data_image0
_chemical_formula_structural       CHCHC4H2SH2C2H3CSC3FeS2FeS2FeHFeS4H3CHC6H4C6H5C2H2C2HC3HC3HCH2CHC6H4SHC5H3CPHCH2C2SCH3CFeH2CHCHC7HC6SH3C6H3C3PH2C6SC13H10C6PC4HC16H2CHC2H11C6PC9H2C4HC2H6CH3CH9C3H2CHCH2CHCHCPC2HC2H2CHCSHC5PCH2CH3CH2C6HSHCHCHCH4C2H4CH3CH4CSHCHCH2CH3C2HCHC2HCFeC3H2CPC2H5CH2SHSH2C2HC2H2CHC2HFeC2HCHC2H2C2FeHFe2CSHC2H3CSPCSFeHSFeS2FeCFeS3FeS2FeS2FeSFeS3FeS2FeS2FeSFeS2HC3H2SHFeSHSH2CSCH3CHSC4H4C2HCH4C6H4C6H4CHCHC2SC2H2CSC3HCHC9H2C3HC6H6C4HC2HSCHCH2CPC16HCHCHPH4CH8CH5CHC2H2CHSH4CHCHC2HSH3CH3PHC2HC3HCHSH2CHCH2C2FeC7PC2HC7FeC4H3CH3CPH2C7SHCH3C2HC2HC4HC2HC3HC7PC8HC6HC2H8CH2CH8CHCH2C7PC14H15C6PC19H19FeSHC2HC3HCHC3H4SC4H4C4HCHC3H2CH2C2HCHC4H6CH4SH3CHCHCH2CH3C2HSHFeHSHCHCHCHFeCHCHFeS2C2HCFeSCSCFeS2CS2FeSFeSHC3H3C5HCH5CHCHCHCHC8H4C6H7C3H2FeCH5C7H4CH2C2HPC9H3CH9C7H7C2H2C2H2C2H2CHSHC2HC2HCSHC2HC3H2SCSHCSC3H3C4H2CH3CHC2HC2HC4HSHCHC2HC5PCPCH2CHCHCHC2HC3H3C3HCSH3SHC2HCH2C4PC4HC13H5CH3SH6C2HC3H2C4PCSCS2C3HPCHCH2CH2SHC2H2CH2CHC4H2CH2CHCH2SC3H2C3HC2H2CFeHC2HSFeS2C2FeSFeS2HCH2FeHSCHC2FeS2FeS2CSFeHSFeCSHFeS2CFeSFeCS2C3FeCH4CFeC6H4C6H4SHCH2C2HCHCH2C6H6C2HC6HC6PC2HCH3C7H5CHCHCH3CH2CH2CH2C2HSCH2C7SC2H3C5H3C2HCFeCSCHCSCH4SH3CHC2H2C2HCH2C2HC2S2HC2HCH2C5H3CH2CH3SC2H2C2H2C3HCH2SH3CHSC3HC2HC5HCH2CHC2SFeC3HCHC2HCHCH2CHC2HC3HC3HPCHCH5C4H2C3H2FeHC2H3C2SH2C4HPHCH2C2H2C2H3C2H2C2HC2FeCHC5H3C3H2CH2CHPC2HC2HCH2CSHFeSFeS2H2S2FeS2FeS2FeSFeS3PSFeCSCS2FeSFeS2FeSFeS3FeS2FeS2FeSFeS3H5C6H6C8H4CSHCHCH2CH4C7H4C3HCHC7H4C3H2CHC2H2CHC4HC4H4CH2CHCPCHC2HC4H5C3HCHC3HC6HC3H3CH3C4HC2HC4H2PCSH4C12H8PH3C2HC2HCHCH2PHC5H2C6PC18H21CH3C2HC7PC19H4CH11C4PC6HCH9C3H2CHCHCPC5HC6SCHC4H9C2H3SCHC3HC4H2CHC5H3C2HCH2C3H2CHC3H2C2HC3HC4H3CFe2HC6H4C2H2CH2C3H2CHC4H3C2H4C3H2CH2C2H3C2H3C11HCH2CHC4HC2HC2HFeC6HCHC2HC2H5FeCFeCPCH2CHCHC3SHC2H3CH6C3HPC2H2CHSH5C2SFeSHPH2FeSFeSCSHSHFeHSFeS2FeSHS2HCFeSFeS2FeSCFeCFeS4C7H4C6H4CHC6H4C2HC3H2SC6H4SC6H4CHC2HCHC3HC11HCH2C2H3CH5CSH2C2HCHPC6HC2HC4HC2HCH2CH2CH2C4HCH4CHSH2C2H2C6PC18H6C2H12C2H2CH3CHCSHC5HCH2CH5C2SH2SH2CH3C6HC2HC2FeCHCH2C2HC3PHCHCHFeHC2H2C2H4C4HCHFeHCSHSC2FeCPH2C5HCHCHCHSC4HC2HCH3CFeCH7C4H7C2HSCH2CHSH3PC2HC2HC2H2C4HCHPHCH3SC2SCH2C2PHCS2HFeS2FeSHFeSFeS3FeS2FeS2FeSFeS3C6H4CHCHCHC4H4C5H4C4HCPC4H4C6H4C7H3C6H3C6HC2HC2SPCH2C2HCH5CH4C3H3FeC2SCPHC3H3PC9PC7H2C3HC3H9C4H2C3HCHC4H5CSHCH3C3FeCPCHCHCH3CH2C2HCHCH3C3H2C3H2C7H3CH3C2FeCH2FeC2H3C2HC4PC6H2C2H5C3H2C2HCHC4HCH3CH2CH4CH7C4HCH2C2H5CHCHCH2C6H3CHC2SCHCH2CHCSHC3H2CH3CHCHC2HC3HCHC2HCSFeHC3H2C4H2C4HCHCH3C2HC2SHCSH2C3PCH2C3H2C2HC4SHCSCSPCHSFeS2FeS2FeSFeS3HFeSCFeS2FeS2FeSFeS3C2H2CHSC2SCH3CHC6H4C6H5C5H4C6H4C2SC2H2CHCH3C2H3C2HC3S2CHPC3H5PH2SH2SCHCH2CHCHCH2PCHCHCHC4HC7HC3HC2SCHCH4CHC6PC14H2C2H15CH6CHCHC2H4C8HC2HC2H2C2HCH4C7PC14H2C2H11C2H4CH2C5HCHC2HC3HC3H3CH2CH4CHFeCHCH2CHCH3C5HC7H2CHC8HCH5CHC2HCPH2C2PC2H2C2H2C2FeCHC2H2C2HCH3CHSHCHCFeC5HC2HC2Fe2HC2H3CFeCFeS2FeS2HFeS3H4CH2C2FeS2HSCSFeS2FeSFeSFeS3CFeS2FeSCFeSFeSHFeC3HC2HSH3C2SH2C7H4C2H2C7H3C6H4C6H4CSH2CHC4HPC4SC4HCH2CH2CHFeHC3SH2C2HCHCH2C2HPC3SHC2FeCS2HCH2SCH2CH3C6PHC7H4C6H10C2H2CHSHC2HCHC3PC2FeC5HCHCH2CH3FeC2H5FeH4SHFeHCH2C2HCHC2PC12HC3HC4H3CH3C4H2C4H2CH2C2PCHCH3C7H2C3H6C2H7CH2C2HCFeHC6PC3H2C9HC3H6C2H8C2H3C5PC4H2C12HC2H4CSH6C3H4C2HCH2C3H2CH3C2H2C2H3C6H3C4HCH5C3HC2H5FeCFeHCFeCHC2FeCH3C2HSH2C2FeCS2C2SC3HFeCS2FeSFeS2FeS2FeSFeS3CSHFeSCFe2CHPHC5SC2H2CFeCHCH2C3HC2HC2SC5FeHC5H4C4HCHC6H7CHCSCH2CH3C2H5CH3CHCH2CHC6H5CHCHCH3CH3C2H2C2HCH3C7HC4H3FeCHSH5CHCH3FeHC3PC7H3C2HCH5C2HC2H2CHC2SC6PC4SHC12H5C3FeH2C3H6C2H2C7SHC2HC3H3CHCH2C2HC7HCHCSCHCH3C4H2CH4PC16HC2HSC2HCHCH3SH2CSCSH3CHSH3C4H2CHPCHCHC2HPCPHC3H2C3H2CH4C2HCHPH2CHCHCHC3HCH2CHCFeS2FeS2FeS2FeSFeS3C2H2SFeS2FeSCSCFeSFeS3FeS2FeS2FeSFeS3CHCH2PCHC3H2CH2C2H2CH2C6H4C6H4C6H4C6H4C6H3CH4C3H3C2SH2C2SH2C5HC6PHC2HC4H3C7H5C3H5C2H5C5HC5H2C3HC2H2C2H2PC3HFeC5H3C2HCHCHCH5SCSH2CHC2H2CHC10FeCH2CH10CHPH2C5H7C2H5C6PC2H4C7H3CH3CH6C2H6CHCH2C4HC7PC12HC2FeH2C4H5C4SH3C2HCHCHCHC3H2SCSCHCH2C2HC2HC2HC7H2CH4C4H2C4HPHCH2C11HC3HC2H2CHC3HCHFeHCH4CH2CHCSH2C2HCH3CH2C4SHCHSH4CHCHPHCH2C2H2C2FeHC2H3FeCHPHC2FeS2FeSC2S2HCHC2H2CSFeSHC2FeCSFeS2FeSCS2FeSCFeS2FeSFeCS2C6H4CSCH2CHC5H2CHC2HC4HC7H4C6H3CHCH3C3H3CSC4PC3HSCHC2H2C8HC2HCH2CH2CSH4CHC2HC2HCHCH4C2H2CHC8HC2HCHCH3CH7C2HC2PC3HCH2C11H2CH3C2HCH6CH3C6FeHC2H3C8PC18H20CHC6H2C3FeCHCPC2HPCH3CHC4H5CH2CHC5H4CH2CHCP2SCH2CHCHC2HC2HCH4PH2CHSHC3HC2HPH3CHC3HCHCHC3H2CHC2HCHCHCHCH3CHC3HCH4CHCHC2HC5H3CHC2HCH2CSCH2C4H3C4HC2HC2H2SCHCH2SC2SFeS2FeSFeSFeS3HFeSH2C3HSHFeSFeHPH3C2HSC2FeS2FeS2FeSFeS3CFeHC3HSHC3HC3H6C8H4C2SHC5H2CHCH2C9HC6H6CHC8HCH3C3PC5H2C7HCHC2H8PH7C4HC3HSCSCH4C2SH2C5HSCHC3SC3HC2HCHCHCH2CH3C4HC2FeC2PC12HCH3CH11C3H3CHSH2FeC2PCHCHS2H2C4H2C2HC4H2C2PHC2HC2HC7HCH2CHC4H5C4HC5HC5H2CH2C5H3CHPC2HC9HCHCHCHCH5CH7CH2FeHCH3CHSCH4CH3CH2CHCPH3C2HC3H4C2HC5HCSHC2H5CH2CH2C2SC2PC2H5C2H2C4H2CHC6HC3H2C2H2PSCHCHC2HFeH2FeS2FeS2FeSFeS3FeSFeS2FeHFeHS2HSHCHSC2H2C3FeS2FeC2HS2C2HSCH4C5H2CH3C2H2FeH2FeCSCHCHC6H3C6H4C6H4C6H5C3HCHC2HC11HCSH4FeH2C2H3CH2CPC4HCH2CHC2HC3PC2FeCPHC3H5C3H2C3HSCHCH2C4H5C3HCHC4H2CHCH5PCH2C2HC2HSH3CFeSHSCHC2SC2HSC6HCH2C4HC2H3PH2CH2CHCH3C2SHSHCHCHC2H3C3HC3PHCHC3HCH2C2H2FeCHC3HPC7SC2HC2HCH2C3HCH6C3HCH3CHC3H2C3HC2HC3HCHSCHC2SC4H2CH2CPHC2HFeHCHC2HCH5CHC3HC3HCH5C5HCHFeS2FeS2CFeSFeS2FeS3CHCHSFeCSC3FeS2FeSHFeSFeS3FeSFeS2FeSFeS3C6H4CHCHCHCSCHC6H4C3H2C6H4C6H2CHC6H4CH3CSHC6PC18H23C4H2C2SH3C2H2CFePHC6H3C2HSPH2C3H2CH7CHC2H4C3H2C2HSHCHC4HCSC3H2C3HC4HPHCSCHC3H2CH2C2H2C4HC2HCHC6PC4HC13H17CH4CHC3H4C2H2SCHCHCH2C2HSC2HC7PSCHCHC3FeH4FeH3C13H2CH2C3H6C2HC2HCH4C3HC2HC3HCH4S2CHPCH2C2H3CH2C2HCHC3H2CHCH2C3S2C3HC4H9C2FeCH2C2H3C2H2C6HCHC2HC8HCFeCH5CFeS2HCH2CHC2HFe2S4CSHFeS2FeS2CFeS3FeS2FeSHFeCFeS3HCHC2HCHC2SC6H4C2FeHC11H5C2HCFeC2HCHCHCHC4HC2H2CH2C4H4SHC6PC10HC7H7SH3C3H7SC2HC2HFeSCH2SH7C2HC2H2C4H2C3H2CH4Fe2H2CH5SC2HCH2CH2CSCHCHC2HFeCH2CHC3HCH2CHPC2H2C3H5CH2CH3CHC4HC2PC2HC3SH2C6H3CHC3H4SCHC8PC18HCH10C2H3CH3CH2CSH4SHCH2C2H2C6PC8HC7H4C2H2CH5C3H2CHCHCHC2HCHCH3CHCH2CHCH2CHC2HCH2C2SH2C4H3C3FeCH6CHCHC4SHCHFeSHCSHFeS2FeS2FeSFeS4CH2CSCH2CH2FeS2FeS2FeSFeS2FeSH2SH4C6HC3HC2H2C8H2C6H6SH2SH4SC6H4C6H4C6H4C6H6C3HCHCH2CHCHCHPC14H10CHCH2P2HC13H2FeCH6CH2CH4C2SCHCSHCH2CHFeC6SC2H3CSCHC3HC2HCHCH3CH2CHCH2C4H3C2H2CH3CHC3H4CHC7PC18H20CH2C3PC8SHC4H2C4H10CH4C2H3CFeCHCH2CH2C3H3CHCHCHCHC6PC9H3CHCHCHCHCHSCH3C2PC5H3FeSCSFeS2FeS2FeSFeS3HSCHFeSHFeCSFeS2FeSCPSCHPHCFeHCH3C2H3C3HCHCHC2HCHC3HC2HC7H4C6H4C4HCHCH2C2H3PH2C2SHC2HCHCHC2HCH3C3H2C17H8PH3C3HSC2HCH2C3HC3HC2HC3HC2H2C2HCFeC2HC2HC6PC5HCHCHCHC6H6C2H2CSH2CH2CHC2H2C3HCH3C2HC2H3CFeH2SC2HCHC6HCH2CH4C2HC2SH2CH2C2H2C2SCH3C2HCH4CHC2SCPC2H2CHCFeCHC3H2CSHCH2C2SHC5H3CH2CFeH2C3H2CFeCSFeS2FeSCS3HFeSCFeS2FeS2FeC3S2CFeS2FeS2FeSFeS3HC2H2CHC5H3C2HCHCH3C7H3SC6H4C6H4C6H4C3HC7PC10HC3HC3H13CH3C2HC8HC2H3C5H2SC2PC2H2CPSC3PC2H3CH3CH2CSH3CHC5HC2HCFeH2C2HC6H2PCHC3H2SC6PC5HC12H6CHCH12C2HCSCHCH2C2HCHC2SH3CHC2HCH4CHCHC2HC5H3C4H2C3PC3HCHC14H4C3H8CH3SCH2FeH2C2H2C4H2C3H3C3H2C4HC2SPHC2H4CHCH5CHCPC4HFeC2HCHC6FeCHC4H3SCH2CHC2H3CHC2HPCH2CH3CHCHCH4C2H2CH3CHCHCH2C3FeHSFeS2C2H2S3HCSHCS2Fe2SCHCFeSCFeS2FeSFeS3FeS2FeS2FeSFeS3CHCH2C6H4C2PC4H3CHCPCH2C6H4CHFeHC6H2SCSH2C4H2C6H4CFeC2H4C9PH4C2HCHC6FeH6CHCHC2H2C4H2C2HSH6C2HC6HC2H2C7H2CH4CHC3FeH2C2HC2HSHC2H4CH2PC3H3C6PC18H17CH2CPCSHCH3SC3PC8HC4HCH9CSHC2HCSHC2HC2H2C3SC8PC18H20C16H3CH4C3H2FeC2H3C5HSHCHCHC3HCHCHCHCH2CHPHCH2CHFeCFe2SH5C2H2CH2CSHCHC2HC2H2C4HCSC2SC3HCH2C2HC2HC6HCH3CH2CHC2HC2HCH3C3H2SH2C7HCH2C5HFeH3CHC2Fe2H4CH2FeC2HFeCSH2SCHCH2SCSCSC2S2FeS2HFeS2FeS2FeHFeS3HSC2SCHCFeSHCHC3HC6H4CHC2SHC7H4C6H2CH2CSFeH3CSC7H4CHCHPC2HCHCH5CSCH4CH3C2H3C4PC17H2CH6CH3CHSCH2C2H2C3HC2HCHCHSH2C2HC6HC3HCHFeCHCH4SCHC3HC2HPH2C2HCH2CFeCPSH4C6PC3HC13H5C2H11SCHC4HFeCHC7HCHSCH2CH2C6H6C2H2PCHCH5SCPCH2C2HC2HC3HCH2CH2FeCHC4HC2H2C3PHCH2CH2C2HC2HC2H2CFeC4HCHFeCHCH2C3HC2H2C3HC2H2FeHC2HCHCHCSC2HC2HCH2C2H2C2HCH4C2S2CFeSFeS2FeCSHFeSHSFeS2FeSHFeS3HCSFeS2FeHFeCFeS3HCSHCH2C6H4C6H4CPSCHC6H4C6H4C7H2C7H3FeCSH3C3PHC3H3CHC5H2C2H3CHCH3C6HCPC3HFeHC2S2FeHCH2CFe2HCH2C3HC3PC13SH7C2H2C6PC3HC12H2CH7SH6C6PC15H17CH3PFeCSH2SCH2PC6H4C2H2CH3C3H8CSHCHCHC2H2CH2CHCHSHC4HSHC2HCHC4HCHFeCHSCHSH2SFeHCHCH3C5HC4HFeC2HC4HCHC3HC3HCHCSCH2FeCHCH2C3H2C2HCH2CSC2HCHC2H2CHC4H2CS3CHC2FeS2FeS2FeSFeS3HFeSHFeSCFeSFeS3FeS2FeS2FeSFeS3CFe2S2FeSCSCHCH2C3HC2H3CHC2HSC7H5SC3HCH3C6H4C4HCH2CHC3H2C7H3CHC5H5C6H4C5HC2H2C13HC2H7C4PCHCH3CH3CH5SCH2C13HCHCHC2HCH5CHC2H2C3HCHC2HCH3C3H2CH2C6HCH2C4FeHCHC2HC7PC18H19CHC2SH2CH3CHC3H3CHPCHC5PC3H3C4HC8HP2CH3C2H6C2HC2HCHC2PC6PC8HFeC3H2C2H13CH2C2SC5H2C5H4CH3C2HCFeCSCHCH3C2HCH2C2H4CH2C2HCH3C2HCHCH2CHC3HC2HC2HC3HCSC4PHCHCHCH3C4HPH3C2HCSC3PC2H2CHC5HC2HC4H4C2PHCHC4HCHC4H4C3HCPH2CHC2HC3H2CSCH3C2HC2PCHC4H2C2HCHC2HCH2C2H2C3H5C3H2CH3CHC3HC2H4C4HSC3HCH2CSH2C3H3C3H2C3SHFeS3FeS2HSHFeSFeCSHC3H7CFeHCH2C6H4C2H2C2H4C7H5CH4PHCH2CHC4HC4HC3H2C5H2CHCHCHC3HC9HC5H4CHCSC3HCHCSHPCSC2HCH4CH2CHCHC2HC3HC4H3C3HCH2CHC6PC13HSFePC2H5CH8CPHCHFeCSHCH3CH3C2FeC5HC2SC2H2CH8C2H3C3HC6H2CHCH4CH5CH2CSHC3HSC3HCHFeC2HC
_chemical_formula_sum              "C5760 H4608 S768 Fe384 P192"
_cell_length_a       69.007
_cell_length_b       68.8833
_cell_length_c       68.7834
_cell_angle_alpha    78.5988
_cell_angle_beta     78.619
_cell_angle_gamma    78.5347

_space_group_name_H-M_alt    "P 1"
_space_group_IT_number       1

loop_
  _space_group_symop_operation_xyz
  'x, y, z'

loop_
  _atom_site_type_symbol
  _atom_site_label
  _atom_site_symmetry_multiplicity
  _atom_site_fract_x
  _atom_site_fract_y
  _atom_site_fract_z
  _atom_site_occupancy
  C   C1        1.0  0.05233  0.08990  0.22312  1.0000
  H   H1        1.0  0.12896  0.44216  0.03309  1.0000
  C   C2        1.0  0.16689  0.37921  0.14530  1.0000
  H   H2        1.0  0.21247  0.01307  0.05844  1.0000
  C   C3        1.0  0.02588  0.46811  0.26744  1.0000
  C   C4        1.0  0.20544  0.02656  0.25381  1.0000
  C   C5        1.0  0.19589  0.47902  0.04598  1.0000
  C   C6        1.0  0.21086  0.00864  0.17796  1.0000
  H   H3        1.0  0.06936  0.27597  0.02650  1.0000
  H   H4        1.0  0.99435  0.28752  0.17359  1.0000
  S   S1        1.0  0.02158  0.19978  0.08743  1.0000
  H   H5        1.0  0.01322  0.29757  0.24382  1.0000
  H   H6        1.0  0.00091  0.01552  0.31264  1.0000
  C   C7        1.0  0.13333  0.45269  0.01977  1.0000
  C   C8        1.0  0.19967  0.40320  0.09108  1.0000
  H   H7        1.0  0.01781  0.34741  0.05323  1.0000
  H   H8        1.0  0.09717  0.41868  0.99251  1.0000
  H   H9        1.0  0.20175  0.42481  0.98553  1.0000
  C   C9        1.0  0.18638  0.48382  0.01315  1.0000
  S   S2        1.0  0.08497  0.99778  0.24955  1.0000
  C   C10       1.0  0.01655  0.09025  0.28401  1.0000
  C   C11       1.0  0.02845  0.48080  0.16563  1.0000
  C   C12       1.0  0.04895  0.11093  0.22034  1.0000
  Fe  Fe1       1.0  0.04992  0.39165  0.13436  1.0000
  S   S3        1.0  0.03797  0.40060  0.16488  1.0000
  S   S4        1.0  0.06337  0.40936  0.10509  1.0000
  Fe  Fe2       1.0  0.04216  0.34830  0.14837  1.0000
  S   S5        1.0  0.02942  0.35377  0.17971  1.0000
  S   S6        1.0  0.04736  0.31678  0.14096  1.0000
  Fe  Fe3       1.0  0.01367  0.38292  0.16504  1.0000
  H   H10       1.0  0.12825  0.30956  0.01901  1.0000
  Fe  Fe4       1.0  0.05466  0.37064  0.17713  1.0000
  S   S7        1.0  0.07179  0.36221  0.20322  1.0000
  S   S8        1.0  0.02422  0.37625  0.13374  1.0000
  S   S9        1.0  0.06870  0.36308  0.14663  1.0000
  S   S10       1.0  0.06648  0.42392  0.26233  1.0000
  H   H11       1.0  0.09936  0.38152  0.11355  1.0000
  H   H12       1.0  0.19480  0.40865  0.10528  1.0000
  H   H13       1.0  0.01112  0.42352  0.26108  1.0000
  C   C13       1.0  0.02174  0.22552  0.99108  1.0000
  H   H14       1.0  0.02024  0.19204  0.25431  1.0000
  C   C14       1.0  0.07149  0.43209  0.10517  1.0000
  C   C15       1.0  0.08411  0.44051  0.08829  1.0000
  C   C16       1.0  0.09098  0.45848  0.08822  1.0000
  C   C17       1.0  0.08506  0.46818  0.10500  1.0000
  C   C18       1.0  0.07228  0.45987  0.12171  1.0000
  C   C19       1.0  0.06555  0.44188  0.12183  1.0000
  H   H15       1.0  0.08862  0.43313  0.07523  1.0000
  H   H16       1.0  0.10081  0.46480  0.07525  1.0000
  H   H17       1.0  0.06767  0.46739  0.13465  1.0000
  H   H18       1.0  0.05564  0.43564  0.13476  1.0000
  C   C20       1.0  0.06726  0.40647  0.24639  1.0000
  C   C21       1.0  0.06153  0.41338  0.22739  1.0000
  C   C22       1.0  0.06222  0.39986  0.21429  1.0000
  C   C23       1.0  0.06924  0.37941  0.21986  1.0000
  C   C24       1.0  0.07507  0.37252  0.23879  1.0000
  C   C25       1.0  0.07386  0.38595  0.25213  1.0000
  H   H19       1.0  0.05660  0.42924  0.22278  1.0000
  H   H20       1.0  0.05781  0.40531  0.19969  1.0000
  H   H21       1.0  0.08055  0.35672  0.24319  1.0000
  H   H22       1.0  0.07836  0.38048  0.26669  1.0000
  H   H23       1.0  0.02312  0.38727  0.26390  1.0000
  C   C26       1.0  0.13207  0.47298  0.02117  1.0000
  C   C27       1.0  0.20862  0.40924  0.05480  1.0000
  H   H24       1.0  0.03599  0.23086  0.98639  1.0000
  H   H25       1.0  0.10331  0.40965  0.13121  1.0000
  C   C28       1.0  0.03896  0.07979  0.21783  1.0000
  C   C29       1.0  0.99943  0.20673  0.01611  1.0000
  H   H26       1.0  0.19977  0.11602  0.98883  1.0000
  C   C30       1.0  0.18663  0.37422  0.14902  1.0000
  C   C31       1.0  0.01681  0.01562  0.26202  1.0000
  C   C32       1.0  0.17240  0.99766  0.20255  1.0000
  H   H27       1.0  0.00604  0.11992  0.20023  1.0000
  C   C33       1.0  0.02891  0.03052  0.25596  1.0000
  C   C34       1.0  0.04991  0.02502  0.25196  1.0000
  C   C35       1.0  0.05875  0.00467  0.25412  1.0000
  H   H28       1.0  0.12795  0.28598  0.99619  1.0000
  C   C36       1.0  0.14613  0.45964  0.98419  1.0000
  H   H29       1.0  0.02211  0.04619  0.25457  1.0000
  H   H30       1.0  0.05932  0.03649  0.24739  1.0000
  C   C37       1.0  0.21826  0.46740  0.27143  1.0000
  H   H31       1.0  0.01353  0.30726  0.00962  1.0000
  C   C38       1.0  0.03423  0.21319  0.06569  1.0000
  C   C39       1.0  0.02723  0.23348  0.05930  1.0000
  C   C40       1.0  0.03658  0.24369  0.04132  1.0000
  C   C41       1.0  0.05325  0.23383  0.02976  1.0000
  C   C42       1.0  0.06086  0.21374  0.03645  1.0000
  C   C43       1.0  0.05127  0.20341  0.05440  1.0000
  H   H32       1.0  0.01454  0.24133  0.06810  1.0000
  H   H33       1.0  0.03074  0.25922  0.03623  1.0000
  H   H34       1.0  0.07375  0.20604  0.02757  1.0000
  H   H35       1.0  0.05686  0.18774  0.05931  1.0000
  S   S11       1.0  0.08824  0.38392  0.30818  1.0000
  H   H36       1.0  0.09626  0.06430  0.31270  1.0000
  C   C44       1.0  0.01009  0.32277  0.13013  1.0000
  C   C45       1.0  0.02698  0.30892  0.13464  1.0000
  C   C46       1.0  0.02807  0.28868  0.13314  1.0000
  C   C47       1.0  0.01238  0.28235  0.12703  1.0000
  C   C48       1.0  0.14480  0.47998  0.98556  1.0000
  H   H37       1.0  0.00912  0.33839  0.13121  1.0000
  H   H38       1.0  0.04108  0.27787  0.13665  1.0000
  H   H39       1.0  0.01335  0.26675  0.12588  1.0000
  C   C49       1.0  0.01001  0.41605  0.24904  1.0000
  P   P1        1.0  0.13136  0.37094  0.13791  1.0000
  H   H40       1.0  0.00126  0.26870  0.23691  1.0000
  C   C50       1.0  0.11504  0.28924  0.00765  1.0000
  H   H41       1.0  0.00576  0.10146  0.27658  1.0000
  H   H42       1.0  0.00260  0.42193  0.15271  1.0000
  C   C51       1.0  0.14888  0.38457  0.09836  1.0000
  C   C52       1.0  0.21556  0.42367  0.99132  1.0000
  S   S12       1.0  0.99061  0.02140  0.26821  1.0000
  C   C53       1.0  0.18896  0.02594  0.22598  1.0000
  H   H43       1.0  0.02741  0.33868  0.98881  1.0000
  H   H44       1.0  0.21161  0.41921  0.04068  1.0000
  H   H45       1.0  0.99587  0.33281  0.17733  1.0000
  C   C54       1.0  0.01527  0.38503  0.23573  1.0000
  Fe  Fe5       1.0  0.07046  0.41278  0.29483  1.0000
  H   H46       1.0  0.99650  0.19816  0.03105  1.0000
  H   H47       1.0  0.03212  0.44809  0.24594  1.0000
  C   C55       1.0  0.02117  0.45962  0.25247  1.0000
  H   H48       1.0  0.21165  0.35915  0.07269  1.0000
  C   C56       1.0  0.00962  0.20492  0.24911  1.0000
  H   H49       1.0  0.17326  0.00486  0.17025  1.0000
  C   C57       1.0  0.99200  0.14403  0.23721  1.0000
  C   C58       1.0  0.02717  0.23649  0.18412  1.0000
  C   C59       1.0  0.01601  0.27137  0.20574  1.0000
  C   C60       1.0  0.02814  0.28264  0.19068  1.0000
  C   C61       1.0  0.03496  0.29895  0.19485  1.0000
  C   C62       1.0  0.02957  0.30433  0.21396  1.0000
  C   C63       1.0  0.99462  0.31654  0.12369  1.0000
  H   H50       1.0  0.18682  0.07295  0.00087  1.0000
  C   C64       1.0  0.04738  0.23540  0.18564  1.0000
  C   C65       1.0  0.06259  0.22495  0.17303  1.0000
  C   C66       1.0  0.05772  0.21541  0.15893  1.0000
  C   C67       1.0  0.03766  0.21635  0.15741  1.0000
  C   C68       1.0  0.02242  0.22667  0.17007  1.0000
  C   C69       1.0  0.00936  0.46447  0.20357  1.0000
  S   S13       1.0  0.12190  0.22681  0.99082  1.0000
  H   H51       1.0  0.21219  0.47231  0.25763  1.0000
  H   H52       1.0  0.23350  0.04942  0.15695  1.0000
  H   H53       1.0  0.00410  0.36611  0.02289  1.0000
  C   C70       1.0  0.21676  0.99978  0.23396  1.0000
  C   C71       1.0  0.00238  0.46561  0.24632  1.0000
  C   C72       1.0  0.03497  0.46095  0.17408  1.0000
  C   C73       1.0  0.00062  0.41618  0.21686  1.0000
  C   C74       1.0  0.99444  0.35857  0.03523  1.0000
  C   C75       1.0  0.20188  0.00814  0.22200  1.0000
  H   H54       1.0  0.03233  0.27893  0.17566  1.0000
  H   H55       1.0  0.04442  0.30751  0.18323  1.0000
  H   H56       1.0  0.03486  0.31706  0.21707  1.0000
  C   C76       1.0  0.20775  0.45546  0.28727  1.0000
  C   C77       1.0  0.10008  0.05346  0.30252  1.0000
  C   C78       1.0  0.19073  0.03508  0.24184  1.0000
  P   P2        1.0  0.19903  0.99621  0.20181  1.0000
  H   H57       1.0  0.06945  0.20737  0.14907  1.0000
  H   H58       1.0  0.03389  0.20925  0.14625  1.0000
  C   C79       1.0  0.05092  0.07632  0.28812  1.0000
  C   C80       1.0  0.16399  0.00246  0.18484  1.0000
  C   C81       1.0  0.11299  0.39133  0.08325  1.0000
  C   C82       1.0  0.00701  0.39541  0.21888  1.0000
  C   C83       1.0  0.15543  0.08565  0.00306  1.0000
  C   C84       1.0  0.21494  0.44903  0.30546  1.0000
  S   S14       1.0  0.14393  0.42016  0.00043  1.0000
  C   C85       1.0  0.11990  0.34850  0.14438  1.0000
  C   C86       1.0  0.11124  0.34199  0.16430  1.0000
  C   C87       1.0  0.10150  0.32527  0.16899  1.0000
  C   C88       1.0  0.10041  0.31482  0.15389  1.0000
  C   C89       1.0  0.10947  0.32081  0.13414  1.0000
  C   C90       1.0  0.11931  0.33746  0.12940  1.0000
  C   C91       1.0  0.11855  0.38913  0.15392  1.0000
  C   C92       1.0  0.12150  0.38597  0.17405  1.0000
  C   C93       1.0  0.11170  0.39975  0.18670  1.0000
  C   C94       1.0  0.09927  0.41706  0.17927  1.0000
  C   C95       1.0  0.09652  0.42054  0.15923  1.0000
  C   C96       1.0  0.10599  0.40662  0.14657  1.0000
  C   C97       1.0  0.13911  0.99573  0.22204  1.0000
  H   H59       1.0  0.15990  0.33284  0.14041  1.0000
  H   H60       1.0  0.11113  0.35011  0.17623  1.0000
  H   H61       1.0  0.09409  0.32101  0.18425  1.0000
  H   H62       1.0  0.09212  0.30242  0.15740  1.0000
  H   H63       1.0  0.10837  0.31285  0.12240  1.0000
  H   H64       1.0  0.12603  0.34193  0.11395  1.0000
  H   H65       1.0  0.13112  0.37268  0.18015  1.0000
  H   H66       1.0  0.11339  0.39684  0.20241  1.0000
  H   H67       1.0  0.09152  0.42763  0.18916  1.0000
  H   H68       1.0  0.08683  0.43397  0.15362  1.0000
  C   C98       1.0  0.23252  0.45466  0.30792  1.0000
  C   C99       1.0  0.01655  0.39530  0.25090  1.0000
  C   C100      1.0  0.00352  0.29145  0.06006  1.0000
  C   C101      1.0  0.03392  0.30519  0.03027  1.0000
  C   C102      1.0  0.03721  0.29948  0.05026  1.0000
  C   C103      1.0  0.02166  0.29310  0.06521  1.0000
  P   P3        1.0  0.06049  0.30185  0.05711  1.0000
  C   C104      1.0  0.06589  0.28223  0.07791  1.0000
  C   C105      1.0  0.08164  0.29750  0.03738  1.0000
  C   C106      1.0  0.08184  0.28385  0.02466  1.0000
  C   C107      1.0  0.03708  0.09066  0.27830  1.0000
  H   H69       1.0  0.05729  0.47029  0.30247  1.0000
  C   C108      1.0  0.11520  0.30249  0.02058  1.0000
  C   C109      1.0  0.09869  0.30639  0.03560  1.0000
  C   C110      1.0  0.07436  0.28587  0.09354  1.0000
  C   C111      1.0  0.07824  0.27053  0.10963  1.0000
  C   C112      1.0  0.07402  0.25141  0.11006  1.0000
  C   C113      1.0  0.06608  0.24754  0.09430  1.0000
  C   C114      1.0  0.06220  0.26284  0.07820  1.0000
  C   C115      1.0  0.05676  0.32660  0.06365  1.0000
  C   C116      1.0  0.06298  0.34286  0.04955  1.0000
  C   C117      1.0  0.06035  0.36185  0.05508  1.0000
  C   C118      1.0  0.05115  0.36480  0.07453  1.0000
  C   C119      1.0  0.04413  0.34887  0.08827  1.0000
  C   C120      1.0  0.04668  0.32995  0.08279  1.0000
  C   C121      1.0  0.01738  0.29334  0.22899  1.0000
  C   C122      1.0  0.21364  0.99977  0.16071  1.0000
  C   C123      1.0  0.09839  0.27988  0.00974  1.0000
  H   H70       1.0  0.04552  0.31066  0.01863  1.0000
  H   H71       1.0  0.02352  0.28925  0.08087  1.0000
  C   C124      1.0  0.21796  0.02674  0.17646  1.0000
  H   H72       1.0  0.02089  0.36906  0.23691  1.0000
  C   C125      1.0  0.13068  0.39493  0.07028  1.0000
  C   C126      1.0  0.04659  0.98988  0.26016  1.0000
  H   H73       1.0  0.09939  0.31616  0.04589  1.0000
  H   H74       1.0  0.07789  0.30051  0.09345  1.0000
  H   H75       1.0  0.15223  0.08094  0.01919  1.0000
  H   H76       1.0  0.07701  0.23957  0.12252  1.0000
  H   H77       1.0  0.06293  0.23268  0.09444  1.0000
  H   H78       1.0  0.05631  0.25949  0.06598  1.0000
  H   H79       1.0  0.06997  0.34093  0.03437  1.0000
  H   H80       1.0  0.06565  0.37426  0.04437  1.0000
  H   H81       1.0  0.04947  0.37939  0.07902  1.0000
  H   H82       1.0  0.03699  0.35105  0.10333  1.0000
  H   H83       1.0  0.04104  0.31784  0.09362  1.0000
  C   C127      1.0  0.05712  0.16149  0.24911  1.0000
  C   C128      1.0  0.06822  0.17589  0.23754  1.0000
  C   C129      1.0  0.06679  0.18217  0.21720  1.0000
  C   C130      1.0  0.05437  0.17399  0.20834  1.0000
  C   C131      1.0  0.04352  0.15918  0.21977  1.0000
  C   C132      1.0  0.04467  0.15328  0.24031  1.0000
  P   P4        1.0  0.02667  0.14904  0.20903  1.0000
  C   C133      1.0  0.00206  0.15746  0.22239  1.0000
  C   C134      1.0  0.02961  0.15715  0.18209  1.0000
  C   C135      1.0  0.01373  0.16858  0.17276  1.0000
  C   C136      1.0  0.01626  0.17414  0.15184  1.0000
  C   C137      1.0  0.03462  0.16825  0.14003  1.0000
  C   C138      1.0  0.05050  0.15676  0.14916  1.0000
  C   C139      1.0  0.04800  0.15115  0.17009  1.0000
  C   C140      1.0  0.17366  0.13927  0.98717  1.0000
  C   C141      1.0  0.04427  0.06143  0.30373  1.0000
  H   H84       1.0  0.16323  0.12926  0.99460  1.0000
  H   H85       1.0  0.16578  0.99064  0.23509  1.0000
  C   C142      1.0  0.99370  0.17793  0.21959  1.0000
  C   C143      1.0  0.03198  0.12194  0.21246  1.0000
  C   C144      1.0  0.00331  0.48459  0.19527  1.0000
  C   C145      1.0  0.14866  0.39138  0.07782  1.0000
  H   H86       1.0  0.18066  0.04873  0.24492  1.0000
  C   C146      1.0  0.11321  0.38432  0.10375  1.0000
  C   C147      1.0  0.02234  0.09070  0.20954  1.0000
  H   H87       1.0  0.05805  0.15676  0.26495  1.0000
  H   H88       1.0  0.07786  0.18224  0.24439  1.0000
  H   H89       1.0  0.07529  0.19345  0.20829  1.0000
  H   H90       1.0  0.05318  0.17938  0.19267  1.0000
  H   H91       1.0  0.03585  0.14239  0.24952  1.0000
  H   H92       1.0  0.99388  0.07502  0.30362  1.0000
  C   C148      1.0  0.15973  0.99439  0.22118  1.0000
  H   H93       1.0  0.03643  0.17248  0.12378  1.0000
  H   H94       1.0  0.06465  0.15197  0.13994  1.0000
  H   H95       1.0  0.06034  0.14194  0.17692  1.0000
  C   C149      1.0  0.23073  0.02647  0.14099  1.0000
  H   H96       1.0  0.07816  0.22439  0.17408  1.0000
  H   H97       1.0  0.99925  0.17292  0.18142  1.0000
  H   H98       1.0  0.00586  0.38744  0.20718  1.0000
  H   H99       1.0  0.00135  0.18868  0.20864  1.0000
  H   H100      1.0  0.05965  0.11842  0.22423  1.0000
  H   H101      1.0  0.19407  0.38568  0.15168  1.0000
  H   H102      1.0  0.20153  0.37209  0.10501  1.0000
  H   H103      1.0  0.22583  0.00151  0.12912  1.0000
  H   H104      1.0  0.20673  0.03355  0.26620  1.0000
  C   C150      1.0  0.21749  0.44949  0.08177  1.0000
  C   C151      1.0  0.14331  0.00386  0.18578  1.0000
  C   C152      1.0  0.14066  0.44594  0.00135  1.0000
  H   H105      1.0  0.02822  0.21100  0.02032  1.0000
  H   H106      1.0  0.18129  0.47219  0.10192  1.0000
  C   C153      1.0  0.13641  0.45606  0.11620  1.0000
  H   H107      1.0  0.16238  0.39403  0.06767  1.0000
  C   C154      1.0  0.20196  0.41677  0.07294  1.0000
  H   H108      1.0  0.20519  0.02393  0.00119  1.0000
  H   H109      1.0  0.99221  0.16365  0.01959  1.0000
  C   C155      1.0  0.16995  0.46313  0.10274  1.0000
  H   H110      1.0  0.21616  0.45540  0.98414  1.0000
  C   C156      1.0  0.14016  0.09638  0.99258  1.0000
  H   H111      1.0  0.21623  0.38283  0.04064  1.0000
  C   C157      1.0  0.23675  0.00489  0.07564  1.0000
  P   P5        1.0  0.99621  0.45388  0.22750  1.0000
  C   C158      1.0  0.13114  0.38093  0.11151  1.0000
  C   C159      1.0  0.20915  0.37518  0.07281  1.0000
  H   H112      1.0  0.23463  0.45189  0.12436  1.0000
  C   C160      1.0  0.02555  0.45282  0.19301  1.0000
  C   C161      1.0  0.15695  0.36434  0.14238  1.0000
  H   H113      1.0  0.17655  0.45865  0.00615  1.0000
  H   H114      1.0  0.16290  0.38201  0.10385  1.0000
  C   C162      1.0  0.19665  0.35441  0.14965  1.0000
  H   H115      1.0  0.09899  0.39410  0.07747  1.0000
  C   C163      1.0  0.22709  0.01572  0.05965  1.0000
  S   S15       1.0  0.06320  0.24701  0.00658  1.0000
  H   H116      1.0  0.13043  0.40045  0.05439  1.0000
  C   C164      1.0  0.01744  0.21424  0.01018  1.0000
  C   C165      1.0  0.13930  0.44157  0.10384  1.0000
  C   C166      1.0  0.22788  0.03558  0.15803  1.0000
  C   C167      1.0  0.17322  0.44811  0.09078  1.0000
  C   C168      1.0  0.15753  0.43782  0.09097  1.0000
  P   P6        1.0  0.19638  0.44345  0.07355  1.0000
  C   C169      1.0  0.19214  0.45917  0.04994  1.0000
  H   H117      1.0  0.99712  0.12047  0.11488  1.0000
  H   H118      1.0  0.99561  0.33107  0.08194  1.0000
  C   C170      1.0  0.18423  0.45228  0.03579  1.0000
  H   H119      1.0  0.12713  0.43377  0.10375  1.0000
  H   H120      1.0  0.15921  0.42725  0.08083  1.0000
  H   H121      1.0  0.03089  0.43743  0.19919  1.0000
  C   C171      1.0  0.22368  0.44088  0.99055  1.0000
  H   H122      1.0  0.04012  0.46261  0.27264  1.0000
  H   H123      1.0  0.17950  0.43775  0.03899  1.0000
  C   C172      1.0  0.11064  0.02583  0.27584  1.0000
  C   C173      1.0  0.12442  0.03759  0.27739  1.0000
  C   C174      1.0  0.11910  0.05148  0.29064  1.0000
  C   C175      1.0  0.21847  0.00896  0.24983  1.0000
  C   C176      1.0  0.08641  0.04117  0.30158  1.0000
  C   C177      1.0  0.09169  0.02766  0.28779  1.0000
  H   H124      1.0  0.12942  0.99299  0.23640  1.0000
  S   S16       1.0  0.22411  0.04339  0.02529  1.0000
  H   H125      1.0  0.04222  0.10212  0.26628  1.0000
  C   C178      1.0  0.00085  0.23373  0.22378  1.0000
  H   H126      1.0  0.00388  0.18288  0.14474  1.0000
  C   C179      1.0  0.00984  0.07537  0.29937  1.0000
  H   H127      1.0  0.22951  0.99405  0.08678  1.0000
  C   C180      1.0  0.01574  0.30348  0.02515  1.0000
  H   H128      1.0  0.05140  0.24269  0.19652  1.0000
  H   H129      1.0  0.15929  0.39463  0.14488  1.0000
  H   H130      1.0  0.99457  0.42402  0.20349  1.0000
  H   H131      1.0  0.04719  0.45175  0.16589  1.0000
  C   C181      1.0  0.16718  0.34454  0.14276  1.0000
  C   C182      1.0  0.18696  0.33962  0.14641  1.0000
  H   H132      1.0  0.02932  0.21350  0.22187  1.0000
  H   H133      1.0  0.09845  0.26926  0.99998  1.0000
  H   H134      1.0  0.19469  0.32424  0.14697  1.0000
  H   H135      1.0  0.21935  0.39153  0.99927  1.0000
  C   C183      1.0  0.00057  0.29654  0.04005  1.0000
  H   H136      1.0  0.11464  0.01508  0.26553  1.0000
  H   H137      1.0  0.13924  0.03582  0.26840  1.0000
  H   H138      1.0  0.12984  0.06047  0.29200  1.0000
  C   C184      1.0  0.13089  0.00042  0.20437  1.0000
  H   H139      1.0  0.08136  0.01831  0.28627  1.0000
  H   H140      1.0  0.06674  0.07697  0.28355  1.0000
  H   H141      1.0  0.06532  0.08135  0.22932  1.0000
  H   H142      1.0  0.11489  0.00123  0.20517  1.0000
  C   C185      1.0  0.22349  0.00865  0.14232  1.0000
  S   S17       1.0  0.99349  0.22880  0.12994  1.0000
  H   H143      1.0  0.22984  0.00233  0.25914  1.0000
  C   C186      1.0  0.21170  0.38855  0.05473  1.0000
  H   H144      1.0  0.12508  0.10001  0.00060  1.0000
  C   C187      1.0  0.01063  0.27692  0.22495  1.0000
  H   H145      1.0  0.08432  0.27360  0.12187  1.0000
  H   H146      1.0  0.99814  0.12821  0.24013  1.0000
  C   C188      1.0  0.17491  0.08118  0.99275  1.0000
  H   H147      1.0  0.02012  0.27332  0.99007  1.0000
  H   H148      1.0  0.04058  0.02308  0.29624  1.0000
  H   H149      1.0  0.20665  0.44156  0.11358  1.0000
  C   C189      1.0  0.01466  0.21710  0.23065  1.0000
  C   C190      1.0  0.22543  0.40490  0.99922  1.0000
  H   H150      1.0  0.21186  0.35049  0.15278  1.0000
  C   C191      1.0  0.15163  0.46702  0.11546  1.0000
  H   H151      1.0  0.19384  0.45138  0.28564  1.0000
  C   C192      1.0  0.23630  0.02998  0.04523  1.0000
  C   C193      1.0  0.02570  0.99535  0.26403  1.0000
  H   H152      1.0  0.23864  0.03308  0.12675  1.0000
  C   C194      1.0  0.98963  0.33902  0.06858  1.0000
  Fe  Fe6       1.0  0.08976  0.23268  0.98623  1.0000
  C   C195      1.0  0.20343  0.38249  0.09100  1.0000
  C   C196      1.0  0.01896  0.11167  0.20673  1.0000
  C   C197      1.0  0.00266  0.42678  0.23163  1.0000
  H   H153      1.0  0.99280  0.45853  0.14355  1.0000
  H   H154      1.0  0.13696  0.00726  0.17206  1.0000
  C   C198      1.0  0.23600  0.47316  0.27380  1.0000
  P   P7        1.0  0.00750  0.25005  0.20033  1.0000
  C   C199      1.0  0.18209  0.46431  0.01722  1.0000
  C   C200      1.0  0.00217  0.34816  0.05237  1.0000
  H   H155      1.0  0.21615  0.03395  0.18945  1.0000
  H   H156      1.0  0.17746  0.03269  0.21684  1.0000
  H   H157      1.0  0.04151  0.06351  0.21999  1.0000
  H   H158      1.0  0.12668  0.47800  0.03550  1.0000
  H   H159      1.0  0.06765  0.48503  0.26682  1.0000
  C   C201      1.0  0.99567  0.29634  0.12213  1.0000
  H   H160      1.0  0.23346  0.45741  0.05159  1.0000
  H   H161      1.0  0.01193  0.08294  0.20537  1.0000
  S   S18       1.0  0.08350  0.43175  0.31040  1.0000
  H   H162      1.0  0.00699  0.22703  0.16873  1.0000
  S   S19       1.0  0.14013  0.16836  0.98543  1.0000
  H   H163      1.0  0.12208  0.45938  0.12578  1.0000
  H   H164      1.0  0.09980  0.45452  0.98667  1.0000
  C   C202      1.0  0.04446  0.01293  0.30960  1.0000
  C   C203      1.0  0.21839  0.44732  0.10233  1.0000
  H   H165      1.0  0.05406  0.48117  0.98822  1.0000
  C   C204      1.0  0.23426  0.45309  0.10850  1.0000
  C   C205      1.0  0.02363  0.06104  0.30921  1.0000
  H   H166      1.0  0.03201  0.98909  0.30311  1.0000
  H   H167      1.0  0.99340  0.13708  0.04947  1.0000
  C   C206      1.0  0.22357  0.99510  0.00801  1.0000
  H   H168      1.0  0.14895  0.47902  0.12425  1.0000
  C   C207      1.0  0.23335  0.45633  0.06753  1.0000
  C   C208      1.0  0.03965  0.99362  0.31336  1.0000
  H   H169      1.0  0.99176  0.28615  0.07167  1.0000
  Fe  Fe7       1.0  0.99276  0.21681  0.10209  1.0000
  C   C209      1.0  0.99083  0.20928  0.26088  1.0000
  C   C210      1.0  0.01225  0.48345  0.27566  1.0000
  H   H170      1.0  0.21490  0.99214  0.02286  1.0000
  C   C211      1.0  0.21802  0.01334  0.99575  1.0000
  H   H171      1.0  0.20075  0.48516  0.05716  1.0000
  C   C212      1.0  0.19437  0.13173  0.98392  1.0000
  C   C213      1.0  0.98964  0.22230  0.98394  1.0000
  H   H172      1.0  0.22698  0.98613  0.23122  1.0000
  H   H173      1.0  0.23807  0.48538  0.15213  1.0000
  C   C214      1.0  0.12718  0.47592  0.39156  1.0000
  C   C215      1.0  0.08001  0.08584  0.64262  1.0000
  Fe  Fe8       1.0  0.21113  0.45191  0.39520  1.0000
  H   H174      1.0  0.07180  0.00923  0.50141  1.0000
  Fe  Fe9       1.0  0.20577  0.47708  0.63778  1.0000
  Fe  Fe10      1.0  0.20761  0.34045  0.53009  1.0000
  C   C216      1.0  0.02719  0.08876  0.50219  1.0000
  S   S20       1.0  0.17392  0.34830  0.53925  1.0000
  H   H175      1.0  0.06496  0.06630  0.39166  1.0000
  C   C217      1.0  0.99224  0.44007  0.58868  1.0000
  C   C218      1.0  0.09033  0.48128  0.33685  1.0000
  H   H176      1.0  0.99320  0.32162  0.38165  1.0000
  H   H177      1.0  0.08498  0.00355  0.43906  1.0000
  H   H178      1.0  0.04423  0.03693  0.49485  1.0000
  C   C219      1.0  0.00019  0.18438  0.59858  1.0000
  S   S21       1.0  0.15890  0.99165  0.40173  1.0000
  P   P8        1.0  0.04878  0.18281  0.62517  1.0000
  C   C220      1.0  0.12240  0.99878  0.32939  1.0000
  S   S22       1.0  0.20002  0.43452  0.42544  1.0000
  Fe  Fe11      1.0  0.17335  0.01365  0.41189  1.0000
  H   H179      1.0  0.09831  0.00013  0.55940  1.0000
  S   S23       1.0  0.20611  0.00207  0.41458  1.0000
  Fe  Fe12      1.0  0.13340  0.04152  0.42016  1.0000
  S   S24       1.0  0.11612  0.02168  0.41069  1.0000
  S   S25       1.0  0.11641  0.07098  0.42914  1.0000
  Fe  Fe13      1.0  0.13482  0.99649  0.42808  1.0000
  C   C221      1.0  0.10119  0.06167  0.60313  1.0000
  Fe  Fe14      1.0  0.14141  0.01837  0.38499  1.0000
  S   S26       1.0  0.13289  0.02008  0.35437  1.0000
  S   S27       1.0  0.15029  0.01650  0.43974  1.0000
  S   S28       1.0  0.15768  0.04039  0.39283  1.0000
  Fe  Fe15      1.0  0.08229  0.30516  0.52666  1.0000
  S   S29       1.0  0.06728  0.30054  0.55907  1.0000
  S   S30       1.0  0.11550  0.30024  0.51440  1.0000
  Fe  Fe16      1.0  0.04258  0.31590  0.51088  1.0000
  S   S31       1.0  0.02442  0.31211  0.54172  1.0000
  S   S32       1.0  0.02972  0.32703  0.48239  1.0000
  Fe  Fe17      1.0  0.04584  0.32861  0.54969  1.0000
  S   S33       1.0  0.03310  0.35761  0.56142  1.0000
  Fe  Fe18      1.0  0.04721  0.28432  0.54800  1.0000
  S   S34       1.0  0.03608  0.25559  0.56442  1.0000
  S   S35       1.0  0.06248  0.33430  0.51826  1.0000
  S   S36       1.0  0.06368  0.28704  0.51634  1.0000
  Fe  Fe19      1.0  0.04190  0.11691  0.57100  1.0000
  S   S37       1.0  0.02587  0.14695  0.55811  1.0000
  S   S38       1.0  0.04301  0.10195  0.60307  1.0000
  Fe  Fe20      1.0  0.05962  0.10477  0.52984  1.0000
  S   S39       1.0  0.04565  0.13409  0.51321  1.0000
  S   S40       1.0  0.07585  0.07547  0.51985  1.0000
  Fe  Fe21      1.0  0.05446  0.14853  0.53608  1.0000
  S   S41       1.0  0.06891  0.17631  0.52579  1.0000
  Fe  Fe22      1.0  0.01813  0.13047  0.53624  1.0000
  S   S42       1.0  0.07116  0.11950  0.55050  1.0000
  S   S43       1.0  0.03142  0.10030  0.55142  1.0000
  H   H180      1.0  0.99095  0.15302  0.63202  1.0000
  C   C222      1.0  0.05635  0.20639  0.62572  1.0000
  C   C223      1.0  0.15154  0.44156  0.40847  1.0000
  C   C224      1.0  0.14785  0.45910  0.41681  1.0000
  H   H181      1.0  0.05298  0.25448  0.60026  1.0000
  H   H182      1.0  0.12512  0.45748  0.37003  1.0000
  S   S44       1.0  0.13021  0.39773  0.33373  1.0000
  H   H183      1.0  0.04644  0.08370  0.47458  1.0000
  Fe  Fe23      1.0  0.06140  0.38305  0.33287  1.0000
  S   S45       1.0  0.05015  0.35351  0.34440  1.0000
  H   H184      1.0  0.18317  0.39436  0.43076  1.0000
  S   S46       1.0  0.07359  0.39928  0.35181  1.0000
  H   H185      1.0  0.04839  0.33212  0.59610  1.0000
  H   H186      1.0  0.99054  0.43383  0.62088  1.0000
  C   C225      1.0  0.23725  0.47556  0.45321  1.0000
  S   S47       1.0  0.22022  0.46727  0.60841  1.0000
  C   C226      1.0  0.00772  0.45135  0.37552  1.0000
  H   H187      1.0  0.17925  0.29062  0.47270  1.0000
  H   H188      1.0  0.01602  0.44144  0.38644  1.0000
  H   H189      1.0  0.13553  0.32502  0.61476  1.0000
  C   C227      1.0  0.21027  0.32540  0.45995  1.0000
  H   H190      1.0  0.06916  0.00845  0.34903  1.0000
  S   S48       1.0  0.04391  0.45299  0.35135  1.0000
  C   C228      1.0  0.01546  0.37113  0.36606  1.0000
  C   C229      1.0  0.02647  0.35353  0.35972  1.0000
  C   C230      1.0  0.01849  0.33562  0.36560  1.0000
  C   C231      1.0  0.05472  0.01876  0.32264  1.0000
  H   H191      1.0  0.00013  0.18992  0.43186  1.0000
  H   H192      1.0  0.02146  0.38500  0.36156  1.0000
  H   H193      1.0  0.02701  0.32196  0.36074  1.0000
  H   H194      1.0  0.99694  0.17757  0.58697  1.0000
  C   C232      1.0  0.02715  0.35831  0.58728  1.0000
  C   C233      1.0  0.99330  0.32196  0.62521  1.0000
  H   H195      1.0  0.01126  0.30925  0.59994  1.0000
  C   C234      1.0  0.00694  0.31893  0.48352  1.0000
  H   H196      1.0  0.00800  0.36382  0.52358  1.0000
  H   H197      1.0  0.08787  0.47458  0.36894  1.0000
  H   H198      1.0  0.00751  0.30056  0.51268  1.0000
  H   H199      1.0  0.01305  0.25865  0.51436  1.0000
  C   C235      1.0  0.04548  0.23346  0.55388  1.0000
  C   C236      1.0  0.06166  0.23272  0.53806  1.0000
  C   C237      1.0  0.06868  0.21510  0.52966  1.0000
  C   C238      1.0  0.05968  0.19798  0.53707  1.0000
  C   C239      1.0  0.04371  0.19853  0.55315  1.0000
  C   C240      1.0  0.03661  0.21623  0.56151  1.0000
  H   H200      1.0  0.06897  0.24564  0.53235  1.0000
  H   H201      1.0  0.08116  0.21475  0.51736  1.0000
  H   H202      1.0  0.03677  0.18540  0.55905  1.0000
  H   H203      1.0  0.02408  0.21668  0.57373  1.0000
  C   C241      1.0  0.10486  0.07191  0.45435  1.0000
  C   C242      1.0  0.10492  0.05454  0.46887  1.0000
  C   C243      1.0  0.09577  0.05581  0.48886  1.0000
  C   C244      1.0  0.08644  0.07441  0.49445  1.0000
  C   C245      1.0  0.08588  0.09170  0.47984  1.0000
  C   C246      1.0  0.09507  0.09044  0.45985  1.0000
  H   H204      1.0  0.11220  0.04017  0.46475  1.0000
  H   H205      1.0  0.09616  0.04236  0.50007  1.0000
  H   H206      1.0  0.07859  0.10602  0.48402  1.0000
  H   H207      1.0  0.09485  0.10390  0.44865  1.0000
  C   C247      1.0  0.04644  0.06335  0.35011  1.0000
  H   H208      1.0  0.22389  0.38216  0.61099  1.0000
  C   C248      1.0  0.05103  0.22333  0.61149  1.0000
  H   H209      1.0  0.99080  0.35382  0.49963  1.0000
  C   C249      1.0  0.19869  0.43809  0.49388  1.0000
  C   C250      1.0  0.03692  0.34405  0.60119  1.0000
  S   S49       1.0  0.21754  0.44133  0.36538  1.0000
  C   C251      1.0  0.06049  0.00477  0.33919  1.0000
  C   C252      1.0  0.12321  0.98781  0.58860  1.0000
  H   H210      1.0  0.99435  0.05432  0.49078  1.0000
  H   H211      1.0  0.00526  0.38515  0.58310  1.0000
  C   C253      1.0  0.04720  0.06888  0.36844  1.0000
  S   S50       1.0  0.17247  0.47734  0.64794  1.0000
  C   C254      1.0  0.19659  0.45587  0.56600  1.0000
  C   C255      1.0  0.02713  0.11295  0.62263  1.0000
  C   C256      1.0  0.01375  0.13082  0.61882  1.0000
  H   H212      1.0  0.03772  0.08921  0.64549  1.0000
  C   C257      1.0  0.23463  0.04951  0.41087  1.0000
  H   H213      1.0  0.01297  0.13811  0.60351  1.0000
  C   C258      1.0  0.00699  0.47099  0.34225  1.0000
  C   C259      1.0  0.16059  0.45068  0.33636  1.0000
  C   C260      1.0  0.04121  0.41081  0.61506  1.0000
  C   C261      1.0  0.02784  0.98713  0.38990  1.0000
  C   C262      1.0  0.14143  0.41842  0.33482  1.0000
  C   C263      1.0  0.15876  0.41501  0.34364  1.0000
  C   C264      1.0  0.16820  0.43107  0.34465  1.0000
  C   C265      1.0  0.07975  0.04381  0.35016  1.0000
  C   C266      1.0  0.07334  0.22650  0.64014  1.0000
  H   H214      1.0  0.16483  0.39983  0.34966  1.0000
  H   H215      1.0  0.18142  0.42828  0.35165  1.0000
  C   C267      1.0  0.21892  0.38368  0.46171  1.0000
  C   C268      1.0  0.20767  0.40159  0.45353  1.0000
  C   C269      1.0  0.05216  0.10652  0.40746  1.0000
  H   H216      1.0  0.19269  0.40655  0.46095  1.0000
  C   C270      1.0  0.15791  0.33466  0.53229  1.0000
  C   C271      1.0  0.13713  0.33922  0.53853  1.0000
  C   C272      1.0  0.12392  0.32884  0.53312  1.0000
  C   C273      1.0  0.13149  0.31358  0.52162  1.0000
  C   C274      1.0  0.15225  0.30901  0.51535  1.0000
  C   C275      1.0  0.16542  0.31956  0.52056  1.0000
  H   H217      1.0  0.13123  0.35064  0.54778  1.0000
  H   H218      1.0  0.10793  0.33257  0.53790  1.0000
  H   H219      1.0  0.15817  0.29708  0.50661  1.0000
  H   H220      1.0  0.18136  0.31583  0.51567  1.0000
  H   H221      1.0  0.13590  0.98916  0.47091  1.0000
  H   H222      1.0  0.20108  0.41976  0.55052  1.0000
  C   C276      1.0  0.07572  0.18107  0.58914  1.0000
  C   C277      1.0  0.07987  0.00454  0.47066  1.0000
  C   C278      1.0  0.12437  0.33010  0.60496  1.0000
  C   C279      1.0  0.99719  0.08262  0.59190  1.0000
  H   H223      1.0  0.19783  0.47636  0.42973  1.0000
  C   C280      1.0  0.11420  0.08857  0.57862  1.0000
  C   C281      1.0  0.14348  0.45402  0.32723  1.0000
  H   H224      1.0  0.00117  0.42559  0.58642  1.0000
  S   S51       1.0  0.04289  0.41079  0.31839  1.0000
  C   C282      1.0  0.07589  0.01098  0.45107  1.0000
  H   H225      1.0  0.19836  0.44287  0.47792  1.0000
  C   C283      1.0  0.05841  0.07775  0.43345  1.0000
  H   H226      1.0  0.15516  0.45963  0.42923  1.0000
  H   H227      1.0  0.00316  0.31397  0.63569  1.0000
  C   C284      1.0  0.09798  0.05311  0.58734  1.0000
  P   P9        1.0  0.01927  0.20443  0.45962  1.0000
  C   C285      1.0  0.03985  0.18401  0.46350  1.0000
  C   C286      1.0  0.02448  0.21837  0.43450  1.0000
  C   C287      1.0  0.04438  0.21897  0.42495  1.0000
  C   C288      1.0  0.04846  0.23077  0.40606  1.0000
  C   C289      1.0  0.03274  0.24216  0.39661  1.0000
  C   C290      1.0  0.01292  0.24168  0.40602  1.0000
  C   C291      1.0  0.00876  0.22987  0.42488  1.0000
  C   C292      1.0  0.05636  0.18685  0.47112  1.0000
  C   C293      1.0  0.07255  0.17125  0.47345  1.0000
  C   C294      1.0  0.07258  0.15280  0.46790  1.0000
  C   C295      1.0  0.05624  0.14981  0.46029  1.0000
  C   C296      1.0  0.03992  0.16533  0.45812  1.0000
  C   C297      1.0  0.01654  0.22163  0.47718  1.0000
  C   C298      1.0  0.01929  0.21431  0.49719  1.0000
  C   C299      1.0  0.01783  0.22765  0.51053  1.0000
  C   C300      1.0  0.01373  0.24836  0.50406  1.0000
  H   H228      1.0  0.01821  0.04979  0.32120  1.0000
  C   C301      1.0  0.01210  0.24251  0.47091  1.0000
  H   H229      1.0  0.03953  0.33447  0.63254  1.0000
  C   C302      1.0  0.99268  0.02278  0.44382  1.0000
  H   H230      1.0  0.14609  0.42749  0.38521  1.0000
  P   P10       1.0  0.09516  0.04956  0.62884  1.0000
  H   H231      1.0  0.07283  0.99292  0.62868  1.0000
  H   H232      1.0  0.05680  0.21053  0.43212  1.0000
  H   H233      1.0  0.06384  0.23120  0.39878  1.0000
  H   H234      1.0  0.03586  0.25143  0.38204  1.0000
  C   C303      1.0  0.23537  0.38730  0.59901  1.0000
  H   H235      1.0  0.99412  0.00780  0.44045  1.0000
  H   H236      1.0  0.05682  0.20107  0.47535  1.0000
  H   H237      1.0  0.08497  0.17339  0.47987  1.0000
  H   H238      1.0  0.08514  0.14073  0.46981  1.0000
  H   H239      1.0  0.05616  0.13538  0.45628  1.0000
  H   H240      1.0  0.02744  0.16265  0.45223  1.0000
  H   H241      1.0  0.02293  0.19831  0.50244  1.0000
  H   H242      1.0  0.02023  0.22197  0.52583  1.0000
  C   C304      1.0  0.13021  0.99771  0.34700  1.0000
  H   H243      1.0  0.09253  0.03402  0.34340  1.0000
  H   H244      1.0  0.23411  0.43387  0.46511  1.0000
  H   H245      1.0  0.12056  0.44091  0.31968  1.0000
  H   H246      1.0  0.07999  0.12339  0.59334  1.0000
  H   H247      1.0  0.19366  0.39734  0.53042  1.0000
  C   C305      1.0  0.00945  0.08529  0.51513  1.0000
  H   H248      1.0  0.02143  0.11562  0.40286  1.0000
  C   C306      1.0  0.10973  0.07924  0.59861  1.0000
  C   C307      1.0  0.99612  0.32589  0.46761  1.0000
  H   H249      1.0  0.01028  0.07104  0.59048  1.0000
  H   H250      1.0  0.05760  0.11846  0.39620  1.0000
  C   C308      1.0  0.13570  0.47622  0.40842  1.0000
  H   H251      1.0  0.07522  0.09128  0.62814  1.0000
  S   S52       1.0  0.22417  0.36581  0.51492  1.0000
  H   H252      1.0  0.19779  0.40484  0.39565  1.0000
  H   H253      1.0  0.21497  0.29350  0.47032  1.0000
  H   H254      1.0  0.23429  0.47419  0.56370  1.0000
  H   H255      1.0  0.02376  0.01965  0.44566  1.0000
  C   C309      1.0  0.03263  0.08078  0.48439  1.0000
  H   H256      1.0  0.07409  0.19725  0.58715  1.0000
  C   C310      1.0  0.23445  0.40607  0.42533  1.0000
  H   H257      1.0  0.04250  0.22243  0.60016  1.0000
  C   C311      1.0  0.00124  0.13915  0.63491  1.0000
  C   C312      1.0  0.99204  0.09196  0.60888  1.0000
  H   H258      1.0  0.14961  0.00175  0.58221  1.0000
  S   S53       1.0  0.22357  0.31981  0.50833  1.0000
  H   H259      1.0  0.01465  0.47616  0.32740  1.0000
  H   H260      1.0  0.08066  0.47081  0.33635  1.0000
  H   H261      1.0  0.00901  0.02025  0.34483  1.0000
  C   C313      1.0  0.01937  0.17966  0.60373  1.0000
  H   H262      1.0  0.09200  0.99235  0.47371  1.0000
  H   H263      1.0  0.12052  0.10229  0.57518  1.0000
  H   H264      1.0  0.01444  0.13456  0.49168  1.0000
  P   P11       1.0  0.02876  0.05723  0.45748  1.0000
  H   H265      1.0  0.11292  0.08579  0.61045  1.0000
  C   C314      1.0  0.23623  0.45551  0.54125  1.0000
  C   C315      1.0  0.01768  0.45789  0.35628  1.0000
  H   H266      1.0  0.20133  0.35685  0.45004  1.0000
  C   C316      1.0  0.98972  0.20646  0.62339  1.0000
  C   C317      1.0  0.07537  0.99428  0.58541  1.0000
  C   C318      1.0  0.03193  0.34543  0.62176  1.0000
  H   H267      1.0  0.00208  0.33580  0.45449  1.0000
  C   C319      1.0  0.19602  0.41242  0.52344  1.0000
  H   H268      1.0  0.23577  0.40024  0.48545  1.0000
  S   S54       1.0  0.23642  0.46956  0.38833  1.0000
  H   H269      1.0  0.03314  0.06901  0.34333  1.0000
  H   H270      1.0  0.00902  0.08906  0.42870  1.0000
  C   C320      1.0  0.17675  0.44710  0.60574  1.0000
  H   H271      1.0  0.20605  0.46571  0.49774  1.0000
  C   C321      1.0  0.05567  0.00096  0.59434  1.0000
  H   H272      1.0  0.00976  0.24876  0.45571  1.0000
  H   H273      1.0  0.16159  0.42862  0.41451  1.0000
  C   C322      1.0  0.21978  0.03812  0.41083  1.0000
  C   C323      1.0  0.19464  0.43498  0.59909  1.0000
  Fe  Fe24      1.0  0.05755  0.42710  0.33510  1.0000
  C   C324      1.0  0.21532  0.41276  0.43534  1.0000
  C   C325      1.0  0.04502  0.01929  0.58620  1.0000
  C   C326      1.0  0.05382  0.03089  0.56888  1.0000
  C   C327      1.0  0.07303  0.02388  0.55935  1.0000
  C   C328      1.0  0.08367  0.00554  0.56740  1.0000
  C   C329      1.0  0.00953  0.02965  0.44667  1.0000
  C   C330      1.0  0.03188  0.10482  0.41109  1.0000
  P   P12       1.0  0.20967  0.46110  0.54046  1.0000
  C   C331      1.0  0.08048  0.04939  0.36842  1.0000
  C   C332      1.0  0.22365  0.01719  0.41585  1.0000
  H   H274      1.0  0.08111  0.09443  0.41599  1.0000
  C   C333      1.0  0.00770  0.04895  0.45135  1.0000
  C   C334      1.0  0.99657  0.37081  0.37819  1.0000
  C   C335      1.0  0.07168  0.04038  0.63355  1.0000
  C   C336      1.0  0.06571  0.17011  0.60630  1.0000
  C   C337      1.0  0.06058  0.02712  0.44701  1.0000
  C   C338      1.0  0.00728  0.37504  0.61445  1.0000
  C   C339      1.0  0.03796  0.04319  0.62658  1.0000
  Fe  Fe25      1.0  0.19657  0.46914  0.35516  1.0000
  C   C340      1.0  0.02770  0.10327  0.64246  1.0000
  C   C341      1.0  0.00895  0.20185  0.62851  1.0000
  C   C342      1.0  0.20645  0.48056  0.43934  1.0000
  C   C343      1.0  0.11603  0.02975  0.63338  1.0000
  H   H275      1.0  0.02987  0.02443  0.59319  1.0000
  H   H276      1.0  0.04569  0.04517  0.56255  1.0000
  H   H277      1.0  0.07958  0.03263  0.54556  1.0000
  C   C344      1.0  0.99941  0.33538  0.37750  1.0000
  H   H278      1.0  0.09386  0.04415  0.37531  1.0000
  H   H279      1.0  0.10155  0.00582  0.63002  1.0000
  H   H280      1.0  0.17262  0.48328  0.52686  1.0000
  C   C345      1.0  0.04209  0.99526  0.39622  1.0000
  P   P13       1.0  0.06194  0.04334  0.31713  1.0000
  H   H281      1.0  0.02659  0.05013  0.61743  1.0000
  H   H282      1.0  0.21877  0.43010  0.57476  1.0000
  C   C346      1.0  0.00640  0.01986  0.38668  1.0000
  C   C347      1.0  0.14840  0.99908  0.64108  1.0000
  C   C348      1.0  0.99791  0.31940  0.60507  1.0000
  C   C349      1.0  0.10237  0.06254  0.56740  1.0000
  C   C350      1.0  0.19557  0.41871  0.50296  1.0000
  C   C351      1.0  0.05695  0.04877  0.62144  1.0000
  C   C352      1.0  0.16995  0.32227  0.46295  1.0000
  S   S55       1.0  0.18838  0.47829  0.38557  1.0000
  H   H283      1.0  0.19328  0.40834  0.49408  1.0000
  C   C353      1.0  0.06730  0.14923  0.60767  1.0000
  H   H284      1.0  0.09813  0.14299  0.56335  1.0000
  H   H285      1.0  0.16069  0.98714  0.64454  1.0000
  H   H286      1.0  0.16953  0.44419  0.62130  1.0000
  C   C354      1.0  0.02055  0.06887  0.47963  1.0000
  C   C355      1.0  0.01016  0.99939  0.38497  1.0000
  H   H287      1.0  0.00474  0.09237  0.52835  1.0000
  C   C356      1.0  0.14989  0.01906  0.64089  1.0000
  C   C357      1.0  0.05172  0.39197  0.62187  1.0000
  H   H288      1.0  0.05892  0.14056  0.62025  1.0000
  C   C358      1.0  0.07918  0.13943  0.59237  1.0000
  C   C359      1.0  0.02389  0.18832  0.61878  1.0000
  C   C360      1.0  0.99352  0.02305  0.34265  1.0000
  C   C361      1.0  0.14291  0.44101  0.39190  1.0000
  H   H289      1.0  0.11847  0.01321  0.32035  1.0000
  C   C362      1.0  0.01684  0.36072  0.62844  1.0000
  C   C363      1.0  0.11041  0.08027  0.56305  1.0000
  H   H290      1.0  0.22590  0.32667  0.45870  1.0000
  C   C364      1.0  0.06749  0.20817  0.64014  1.0000
  C   C365      1.0  0.11580  0.31610  0.59875  1.0000
  C   C366      1.0  0.19626  0.34254  0.45522  1.0000
  H   H291      1.0  0.01076  0.12771  0.45871  1.0000
  C   C367      1.0  0.05694  0.24159  0.61151  1.0000
  C   C368      1.0  0.10495  0.38707  0.51427  1.0000
  C   C369      1.0  0.08573  0.38574  0.51161  1.0000
  C   C370      1.0  0.07030  0.38475  0.52811  1.0000
  C   C371      1.0  0.07406  0.38497  0.54730  1.0000
  C   C372      1.0  0.09332  0.38628  0.55018  1.0000
  C   C373      1.0  0.10875  0.38738  0.53345  1.0000
  P   P14       1.0  0.09850  0.38376  0.57545  1.0000
  C   C374      1.0  0.10485  0.35730  0.58502  1.0000
  C   C375      1.0  0.11929  0.39638  0.57522  1.0000
  C   C376      1.0  0.13904  0.38735  0.56870  1.0000
  C   C377      1.0  0.15526  0.39659  0.56895  1.0000
  C   C378      1.0  0.15197  0.41499  0.57571  1.0000
  C   C379      1.0  0.13241  0.42413  0.58224  1.0000
  C   C380      1.0  0.11613  0.41489  0.58204  1.0000
  C   C381      1.0  0.11881  0.35063  0.59828  1.0000
  H   H292      1.0  0.06892  0.06775  0.44222  1.0000
  C   C382      1.0  0.04869  0.03650  0.46271  1.0000
  C   C383      1.0  0.10139  0.32264  0.58616  1.0000
  C   C384      1.0  0.09579  0.34316  0.57943  1.0000
  C   C385      1.0  0.07612  0.39434  0.59107  1.0000
  C   C386      1.0  0.06535  0.41321  0.58424  1.0000
  C   C387      1.0  0.04802  0.42145  0.59625  1.0000
  H   H293      1.0  0.07276  0.25736  0.62567  1.0000
  C   C388      1.0  0.13094  0.99441  0.63709  1.0000
  C   C389      1.0  0.06909  0.38373  0.60997  1.0000
  H   H294      1.0  0.11701  0.38733  0.50154  1.0000
  H   H295      1.0  0.08288  0.38514  0.49683  1.0000
  H   H296      1.0  0.05548  0.38317  0.52622  1.0000
  H   H297      1.0  0.06203  0.38343  0.55998  1.0000
  H   H298      1.0  0.12387  0.38786  0.53514  1.0000
  H   H299      1.0  0.14202  0.37293  0.56371  1.0000
  H   H300      1.0  0.17040  0.38922  0.56418  1.0000
  H   H301      1.0  0.16457  0.42204  0.57613  1.0000
  C   C390      1.0  0.99910  0.30623  0.50051  1.0000
  H   H302      1.0  0.10121  0.42214  0.58749  1.0000
  H   H303      1.0  0.12559  0.36121  0.60334  1.0000
  C   C391      1.0  0.16855  0.46337  0.59254  1.0000
  H   H304      1.0  0.09479  0.31178  0.58133  1.0000
  H   H305      1.0  0.08460  0.34781  0.56965  1.0000
  H   H306      1.0  0.07042  0.42156  0.56965  1.0000
  H   H307      1.0  0.03988  0.43610  0.59104  1.0000
  H   H308      1.0  0.23166  0.06566  0.40663  1.0000
  H   H309      1.0  0.11334  0.00136  0.59224  1.0000
  H   H310      1.0  0.07683  0.36903  0.61558  1.0000
  H   H311      1.0  0.03463  0.07870  0.37550  1.0000
  C   C392      1.0  0.06811  0.24319  0.62580  1.0000
  H   H312      1.0  0.21260  0.37490  0.47546  1.0000
  C   C393      1.0  0.20463  0.43943  0.57940  1.0000
  H   H313      1.0  0.11360  0.08761  0.54756  1.0000
  H   H314      1.0  0.03666  0.09784  0.50574  1.0000
  C   C394      1.0  0.06540  0.09299  0.41863  1.0000
  C   C395      1.0  0.09960  0.36591  0.44593  1.0000
  C   C396      1.0  0.09208  0.35604  0.46489  1.0000
  C   C397      1.0  0.10479  0.34835  0.47907  1.0000
  C   C398      1.0  0.12496  0.35034  0.47434  1.0000
  C   C399      1.0  0.13283  0.35957  0.45513  1.0000
  C   C400      1.0  0.11988  0.36788  0.44110  1.0000
  P   P15       1.0  0.15844  0.36370  0.45040  1.0000
  C   C401      1.0  0.15776  0.38191  0.46616  1.0000
  C   C402      1.0  0.17595  0.34119  0.45696  1.0000
  C   C403      1.0  0.13374  0.43806  0.32672  1.0000
  C   C404      1.0  0.14946  0.40206  0.46026  1.0000
  C   C405      1.0  0.14698  0.41599  0.47320  1.0000
  C   C406      1.0  0.15226  0.40978  0.49234  1.0000
  C   C407      1.0  0.16027  0.38969  0.49841  1.0000
  C   C408      1.0  0.16308  0.37578  0.48539  1.0000
  C   C409      1.0  0.16747  0.37274  0.42434  1.0000
  C   C410      1.0  0.16409  0.36357  0.40908  1.0000
  C   C411      1.0  0.17240  0.36964  0.38903  1.0000
  C   C412      1.0  0.18457  0.38448  0.38419  1.0000
  C   C413      1.0  0.18821  0.39345  0.39932  1.0000
  C   C414      1.0  0.17976  0.38755  0.41929  1.0000
  H   H315      1.0  0.08970  0.37205  0.43497  1.0000
  H   H316      1.0  0.07645  0.35424  0.46866  1.0000
  H   H317      1.0  0.09918  0.34066  0.49378  1.0000
  H   H318      1.0  0.13441  0.34468  0.48578  1.0000
  H   H319      1.0  0.12525  0.37613  0.42658  1.0000
  H   H320      1.0  0.15454  0.32055  0.46400  1.0000
  H   H321      1.0  0.14472  0.40695  0.44571  1.0000
  H   H322      1.0  0.14085  0.43157  0.46842  1.0000
  H   H323      1.0  0.15021  0.42051  0.50246  1.0000
  H   H324      1.0  0.16429  0.38484  0.51327  1.0000
  H   H325      1.0  0.16898  0.36020  0.49057  1.0000
  H   H326      1.0  0.15528  0.35159  0.41270  1.0000
  H   H327      1.0  0.16963  0.36270  0.37722  1.0000
  H   H328      1.0  0.19139  0.38891  0.36874  1.0000
  H   H329      1.0  0.05810  0.03238  0.43167  1.0000
  C   C415      1.0  0.04261  0.28103  0.42572  1.0000
  C   C416      1.0  0.02251  0.28902  0.42465  1.0000
  C   C417      1.0  0.01674  0.30971  0.41929  1.0000
  C   C418      1.0  0.03099  0.32245  0.41494  1.0000
  C   C419      1.0  0.05114  0.31463  0.41638  1.0000
  C   C420      1.0  0.05692  0.29377  0.42152  1.0000
  P   P16       1.0  0.06948  0.33118  0.41156  1.0000
  C   C421      1.0  0.08672  0.32216  0.42940  1.0000
  C   C422      1.0  0.08300  0.33233  0.38612  1.0000
  C   C423      1.0  0.09422  0.34781  0.37779  1.0000
  C   C424      1.0  0.10454  0.34898  0.35806  1.0000
  C   C425      1.0  0.10365  0.33478  0.34645  1.0000
  C   C426      1.0  0.09259  0.31930  0.35462  1.0000
  C   C427      1.0  0.08227  0.31806  0.37438  1.0000
  C   C428      1.0  0.07970  0.31360  0.44921  1.0000
  C   C429      1.0  0.09294  0.30627  0.46297  1.0000
  C   C430      1.0  0.11330  0.30730  0.45714  1.0000
  C   C431      1.0  0.12048  0.31574  0.43748  1.0000
  C   C432      1.0  0.10728  0.32313  0.42364  1.0000
  C   C433      1.0  0.05606  0.35587  0.41531  1.0000
  C   C434      1.0  0.04964  0.36045  0.43480  1.0000
  C   C435      1.0  0.03833  0.37918  0.43776  1.0000
  C   C436      1.0  0.03320  0.39345  0.42128  1.0000
  C   C437      1.0  0.03916  0.38887  0.40186  1.0000
  C   C438      1.0  0.05036  0.37010  0.39889  1.0000
  C   C439      1.0  0.08754  0.17121  0.57387  1.0000
  H   H330      1.0  0.01136  0.27924  0.42791  1.0000
  H   H331      1.0  0.00120  0.31604  0.41848  1.0000
  H   H332      1.0  0.02607  0.33838  0.41054  1.0000
  H   H333      1.0  0.07244  0.28740  0.42248  1.0000
  H   H334      1.0  0.09476  0.35919  0.38643  1.0000
  H   H335      1.0  0.11285  0.36118  0.35158  1.0000
  H   H336      1.0  0.11113  0.33611  0.33095  1.0000
  H   H337      1.0  0.09140  0.30871  0.34537  1.0000
  H   H338      1.0  0.07332  0.30631  0.38017  1.0000
  H   H339      1.0  0.06397  0.31253  0.45408  1.0000
  H   H340      1.0  0.08744  0.29984  0.47825  1.0000
  H   H341      1.0  0.12340  0.30170  0.46801  1.0000
  H   H342      1.0  0.13628  0.31657  0.43298  1.0000
  H   H343      1.0  0.11327  0.32947  0.40853  1.0000
  H   H344      1.0  0.05288  0.34941  0.44777  1.0000
  H   H345      1.0  0.03326  0.38242  0.45290  1.0000
  H   H346      1.0  0.02437  0.40793  0.42354  1.0000
  H   H347      1.0  0.03489  0.39975  0.38906  1.0000
  H   H348      1.0  0.05413  0.36660  0.38377  1.0000
  Fe  Fe26      1.0  0.09887  0.40283  0.32598  1.0000
  S   S56       1.0  0.17200  0.47142  0.33673  1.0000
  H   H349      1.0  0.02778  0.41710  0.62441  1.0000
  C   C440      1.0  0.17834  0.46770  0.57270  1.0000
  C   C441      1.0  0.00337  0.06440  0.49337  1.0000
  H   H350      1.0  0.04707  0.26499  0.42994  1.0000
  C   C442      1.0  0.11487  0.00970  0.63311  1.0000
  C   C443      1.0  0.03868  0.01565  0.39758  1.0000
  C   C444      1.0  0.02088  0.02789  0.39298  1.0000
  H   H351      1.0  0.02888  0.44470  0.64909  1.0000
  C   C445      1.0  0.20009  0.42532  0.53486  1.0000
  H   H352      1.0  0.04845  0.99194  0.60746  1.0000
  C   C446      1.0  0.03804  0.07590  0.43720  1.0000
  C   C447      1.0  0.06840  0.01401  0.48630  1.0000
  C   C448      1.0  0.23805  0.37687  0.45179  1.0000
  H   H353      1.0  0.23803  0.44976  0.32207  1.0000
  H   H354      1.0  0.12036  0.30018  0.60364  1.0000
  H   H355      1.0  0.23137  0.45719  0.43352  1.0000
  H   H356      1.0  0.09939  0.05628  0.55522  1.0000
  S   S57       1.0  0.22854  0.32869  0.55267  1.0000
  C   C449      1.0  0.06423  0.06191  0.37758  1.0000
  C   C450      1.0  0.99815  0.12786  0.47088  1.0000
  C   C451      1.0  0.01078  0.25577  0.48427  1.0000
  C   C452      1.0  0.99117  0.18785  0.44669  1.0000
  H   H357      1.0  0.00767  0.27185  0.47919  1.0000
  H   H358      1.0  0.04993  0.02202  0.40208  1.0000
  H   H359      1.0  0.01865  0.04358  0.39426  1.0000
  H   H360      1.0  0.03058  0.16929  0.59585  1.0000
  C   C453      1.0  0.02485  0.08960  0.42587  1.0000
  C   C454      1.0  0.20413  0.30672  0.46639  1.0000
  C   C455      1.0  0.01261  0.37397  0.59390  1.0000
  C   C456      1.0  0.20290  0.45103  0.50523  1.0000
  H   H361      1.0  0.09480  0.17980  0.56040  1.0000
  C   C457      1.0  0.20331  0.44483  0.52592  1.0000
  H   H362      1.0  0.20553  0.04550  0.40653  1.0000
  C   C458      1.0  0.13086  0.45814  0.38336  1.0000
  C   C459      1.0  0.18401  0.30513  0.46774  1.0000
  C   C460      1.0  0.08933  0.15043  0.57549  1.0000
  H   H363      1.0  0.12989  0.43829  0.58772  1.0000
  H   H364      1.0  0.20123  0.42259  0.60947  1.0000
  C   C461      1.0  0.05278  0.02983  0.48241  1.0000
  H   H365      1.0  0.05981  0.06017  0.60843  1.0000
  H   H366      1.0  0.09181  0.03934  0.59045  1.0000
  C   C462      1.0  0.06279  0.05083  0.34074  1.0000
  C   C463      1.0  0.22556  0.46978  0.44147  1.0000
  H   H367      1.0  0.01222  0.20884  0.64001  1.0000
  C   C464      1.0  0.00027  0.13167  0.48959  1.0000
  H   H368      1.0  0.04625  0.38362  0.63637  1.0000
  C   C465      1.0  0.14379  0.98807  0.58299  1.0000
  C   C466      1.0  0.99656  0.19394  0.46295  1.0000
  C   C467      1.0  0.09118  0.06653  0.64667  1.0000
  C   C468      1.0  0.13380  0.03438  0.63694  1.0000
  H   H369      1.0  0.00072  0.25058  0.39872  1.0000
  H   H370      1.0  0.23232  0.36724  0.57961  1.0000
  H   H371      1.0  0.17175  0.48046  0.56289  1.0000
  H   H372      1.0  0.13777  0.46904  0.32049  1.0000
  H   H373      1.0  0.15482  0.47288  0.59792  1.0000
  H   H374      1.0  0.99951  0.99294  0.37964  1.0000
  C   C469      1.0  0.99758  0.07306  0.51079  1.0000
  H   H375      1.0  0.08190  0.15925  0.64472  1.0000
  H   H376      1.0  0.20668  0.43998  0.31781  1.0000
  H   H377      1.0  0.99095  0.36613  0.55827  1.0000
  H   H378      1.0  0.09361  0.48092  0.42051  1.0000
  S   S58       1.0  0.03980  0.48355  0.64463  1.0000
  H   H379      1.0  0.00103  0.08739  0.62078  1.0000
  H   H380      1.0  0.99329  0.40714  0.32717  1.0000
  H   H381      1.0  0.99597  0.38706  0.61943  1.0000
  C   C470      1.0  0.09459  0.48334  0.35531  1.0000
  H   H382      1.0  0.13510  0.04978  0.63700  1.0000
  C   C471      1.0  0.03347  0.02931  0.64389  1.0000
  H   H383      1.0  0.99207  0.45089  0.55712  1.0000
  C   C472      1.0  0.04950  0.16666  0.64928  1.0000
  H   H384      1.0  0.99327  0.23006  0.43203  1.0000
  H   H385      1.0  0.01862  0.02529  0.64807  1.0000
  C   C473      1.0  0.99285  0.36060  0.52829  1.0000
  H   H386      1.0  0.99012  0.08181  0.56299  1.0000
  H   H387      1.0  0.16341  0.02263  0.64410  1.0000
  H   H388      1.0  0.99014  0.10259  0.33924  1.0000
  C   C474      1.0  0.01696  0.21565  0.79507  1.0000
  C   C475      1.0  0.16220  0.46238  0.77394  1.0000
  H   H389      1.0  0.02969  0.32856  0.90453  1.0000
  S   S59       1.0  0.09150  0.00802  0.69877  1.0000
  H   H390      1.0  0.12759  0.17306  0.94362  1.0000
  Fe  Fe27      1.0  0.00859  0.09211  0.73671  1.0000
  H   H391      1.0  0.00486  0.18374  0.75981  1.0000
  S   S60       1.0  0.03887  0.07684  0.74487  1.0000
  H   H392      1.0  0.07769  0.02099  0.66124  1.0000
  C   C476      1.0  0.08084  0.45120  0.79453  1.0000
  H   H393      1.0  0.01073  0.30104  0.76904  1.0000
  C   C477      1.0  0.99700  0.44814  0.65978  1.0000
  H   H394      1.0  0.09415  0.02039  0.73637  1.0000
  C   C478      1.0  0.14860  0.01195  0.80146  1.0000
  H   H395      1.0  0.07338  0.09953  0.68875  1.0000
  Fe  Fe28      1.0  0.12522  0.20035  0.97489  1.0000
  C   C479      1.0  0.01009  0.39322  0.78617  1.0000
  H   H396      1.0  0.17072  0.30002  0.94283  1.0000
  C   C480      1.0  0.18650  0.47772  0.69460  1.0000
  H   H397      1.0  0.21715  0.41797  0.84823  1.0000
  Fe  Fe29      1.0  0.12759  0.24473  0.95974  1.0000
  S   S61       1.0  0.13336  0.21781  0.94411  1.0000
  S   S62       1.0  0.14865  0.26754  0.95133  1.0000
  C   C481      1.0  0.14637  0.48425  0.82865  1.0000
  C   C482      1.0  0.00365  0.40622  0.80024  1.0000
  H   H398      1.0  0.10334  0.04408  0.67006  1.0000
  C   C483      1.0  0.01568  0.35116  0.88298  1.0000
  Fe  Fe30      1.0  0.10024  0.22421  0.94336  1.0000
  S   S63       1.0  0.08892  0.22450  0.91458  1.0000
  C   C484      1.0  0.00371  0.45492  0.84913  1.0000
  S   S64       1.0  0.09536  0.25252  0.95626  1.0000
  C   C485      1.0  0.23119  0.10321  0.92222  1.0000
  Fe  Fe31      1.0  0.14494  0.38116  0.94660  1.0000
  S   S65       1.0  0.16847  0.38892  0.91992  1.0000
  S   S66       1.0  0.12136  0.36145  0.94998  1.0000
  C   C486      1.0  0.00960  0.29710  0.86439  1.0000
  S   S67       1.0  0.17830  0.42116  0.94540  1.0000
  S   S68       1.0  0.23427  0.13581  0.97047  1.0000
  Fe  Fe32      1.0  0.15726  0.42096  0.92425  1.0000
  S   S69       1.0  0.15400  0.44677  0.89842  1.0000
  Fe  Fe33      1.0  0.18792  0.38851  0.94289  1.0000
  S   S70       1.0  0.13222  0.41342  0.94892  1.0000
  H   H399      1.0  0.01007  0.04497  0.76041  1.0000
  C   C487      1.0  0.01430  0.03051  0.75540  1.0000
  C   C488      1.0  0.99369  0.20240  0.70077  1.0000
  C   C489      1.0  0.00234  0.25352  0.73822  1.0000
  H   H400      1.0  0.01722  0.16984  0.65854  1.0000
  H   H401      1.0  0.14777  0.40587  0.82083  1.0000
  H   H402      1.0  0.00478  0.45103  0.73676  1.0000
  C   C490      1.0  0.14104  0.43708  0.77870  1.0000
  C   C491      1.0  0.13000  0.45501  0.89164  1.0000
  C   C492      1.0  0.11505  0.44305  0.89801  1.0000
  C   C493      1.0  0.09656  0.44923  0.89116  1.0000
  C   C494      1.0  0.09281  0.46747  0.87808  1.0000
  H   H403      1.0  0.00608  0.30861  0.85182  1.0000
  C   C495      1.0  0.02043  0.39994  0.76718  1.0000
  H   H404      1.0  0.11789  0.42882  0.90782  1.0000
  H   H405      1.0  0.08521  0.43969  0.89578  1.0000
  H   H406      1.0  0.03088  0.16971  0.78079  1.0000
  H   H407      1.0  0.02987  0.27766  0.84569  1.0000
  H   H408      1.0  0.12501  0.39267  0.89529  1.0000
  C   C496      1.0  0.16900  0.43928  0.82429  1.0000
  H   H409      1.0  0.19573  0.00930  0.94654  1.0000
  C   C497      1.0  0.99771  0.21261  0.77007  1.0000
  H   H410      1.0  0.10532  0.34306  0.88015  1.0000
  C   C498      1.0  0.00403  0.05118  0.67937  1.0000
  H   H411      1.0  0.03838  0.18959  0.80385  1.0000
  C   C499      1.0  0.18182  0.07108  0.89194  1.0000
  H   H412      1.0  0.99453  0.13054  0.78202  1.0000
  C   C500      1.0  0.00828  0.19306  0.76919  1.0000
  C   C501      1.0  0.03515  0.48474  0.73563  1.0000
  C   C502      1.0  0.14060  0.29356  0.95124  1.0000
  C   C503      1.0  0.15502  0.30629  0.94640  1.0000
  C   C504      1.0  0.14932  0.32709  0.94616  1.0000
  C   C505      1.0  0.12909  0.33534  0.95069  1.0000
  C   C506      1.0  0.11463  0.32263  0.95566  1.0000
  C   C507      1.0  0.12033  0.30179  0.95590  1.0000
  H   H413      1.0  0.12553  0.46126  0.94436  1.0000
  H   H414      1.0  0.16058  0.33675  0.94236  1.0000
  H   H415      1.0  0.01552  0.06063  0.67510  1.0000
  H   H416      1.0  0.10913  0.29210  0.95977  1.0000
  C   C508      1.0  0.02682  0.20920  0.91634  1.0000
  C   C509      1.0  0.03351  0.20909  0.93436  1.0000
  C   C510      1.0  0.05248  0.21387  0.93410  1.0000
  C   C511      1.0  0.06503  0.21838  0.91576  1.0000
  C   C512      1.0  0.05847  0.21811  0.89778  1.0000
  C   C513      1.0  0.03941  0.21360  0.89806  1.0000
  H   H417      1.0  0.02402  0.20518  0.94854  1.0000
  H   H418      1.0  0.05745  0.21388  0.94805  1.0000
  H   H419      1.0  0.06819  0.22138  0.88357  1.0000
  H   H420      1.0  0.03454  0.21339  0.88412  1.0000
  H   H421      1.0  0.23168  0.05200  0.93431  1.0000
  H   H422      1.0  0.99147  0.30371  0.72103  1.0000
  H   H423      1.0  0.15362  0.43803  0.85514  1.0000
  C   C514      1.0  0.01541  0.11169  0.65850  1.0000
  C   C515      1.0  0.12808  0.47666  0.94058  1.0000
  C   C516      1.0  0.16054  0.07085  0.93106  1.0000
  H   H424      1.0  0.06469  0.11246  0.65456  1.0000
  H   H425      1.0  0.21173  0.03957  0.91433  1.0000
  Fe  Fe34      1.0  0.15400  0.41074  0.96985  1.0000
  C   C517      1.0  0.18520  0.42753  0.85384  1.0000
  H   H426      1.0  0.15500  0.04171  0.92883  1.0000
  H   H427      1.0  0.03827  0.25141  0.87430  1.0000
  H   H428      1.0  0.19328  0.00227  0.86572  1.0000
  H   H429      1.0  0.04087  0.02238  0.76908  1.0000
  H   H430      1.0  0.01650  0.10443  0.67372  1.0000
  C   C518      1.0  0.00223  0.22383  0.78307  1.0000
  C   C519      1.0  0.07643  0.02602  0.71276  1.0000
  C   C520      1.0  0.08127  0.02948  0.73045  1.0000
  C   C521      1.0  0.06969  0.04518  0.74014  1.0000
  C   C522      1.0  0.05301  0.05718  0.73246  1.0000
  C   C523      1.0  0.04807  0.05348  0.71495  1.0000
  C   C524      1.0  0.05982  0.03808  0.70508  1.0000
  H   H431      1.0  0.09554  0.44414  0.76550  1.0000
  H   H432      1.0  0.07361  0.04802  0.75368  1.0000
  H   H433      1.0  0.03545  0.06271  0.70877  1.0000
  H   H434      1.0  0.05616  0.03571  0.69130  1.0000
  C   C525      1.0  0.15037  0.44919  0.78693  1.0000
  H   H435      1.0  0.99601  0.40095  0.81514  1.0000
  H   H436      1.0  0.02251  0.25548  0.90907  1.0000
  C   C526      1.0  0.00244  0.47610  0.78163  1.0000
  C   C527      1.0  0.16413  0.09910  0.96148  1.0000
  H   H437      1.0  0.01985  0.03037  0.70074  1.0000
  P   P17       1.0  0.16999  0.10755  0.93469  1.0000
  C   C528      1.0  0.15224  0.12966  0.92722  1.0000
  C   C529      1.0  0.19812  0.13323  0.92972  1.0000
  C   C530      1.0  0.03120  0.34225  0.89389  1.0000
  C   C531      1.0  0.14440  0.13217  0.90935  1.0000
  C   C532      1.0  0.13059  0.14934  0.90391  1.0000
  C   C533      1.0  0.12452  0.16409  0.91622  1.0000
  C   C534      1.0  0.13226  0.16168  0.93399  1.0000
  C   C535      1.0  0.14604  0.14460  0.93945  1.0000
  C   C536      1.0  0.05113  0.14211  0.68697  1.0000
  H   H438      1.0  0.19335  0.01343  0.76416  1.0000
  H   H439      1.0  0.19427  0.08418  0.96428  1.0000
  H   H440      1.0  0.18572  0.14499  0.93325  1.0000
  C   C537      1.0  0.03172  0.01777  0.76026  1.0000
  H   H441      1.0  0.14885  0.12096  0.89962  1.0000
  H   H442      1.0  0.13237  0.11118  0.96403  1.0000
  H   H443      1.0  0.11383  0.17743  0.91205  1.0000
  H   H444      1.0  0.06399  0.44845  0.75210  1.0000
  H   H445      1.0  0.15185  0.14306  0.95329  1.0000
  H   H446      1.0  0.15238  0.07041  0.94625  1.0000
  H   H447      1.0  0.01122  0.23805  0.96305  1.0000
  H   H448      1.0  0.07698  0.47498  0.72111  1.0000
  H   H449      1.0  0.12046  0.00738  0.79558  1.0000
  C   C538      1.0  0.12822  0.43343  0.82712  1.0000
  C   C539      1.0  0.13324  0.41251  0.82810  1.0000
  C   C540      1.0  0.11957  0.40002  0.83851  1.0000
  C   C541      1.0  0.10090  0.40830  0.84826  1.0000
  C   C542      1.0  0.09590  0.42905  0.84755  1.0000
  C   C543      1.0  0.10951  0.44162  0.83713  1.0000
  C   C544      1.0  0.00276  0.02496  0.74350  1.0000
  H   H450      1.0  0.03047  0.46297  0.80882  1.0000
  H   H451      1.0  0.11495  0.47959  0.79785  1.0000
  H   H452      1.0  0.12351  0.38390  0.83918  1.0000
  H   H453      1.0  0.09039  0.39864  0.85658  1.0000
  H   H454      1.0  0.08152  0.43545  0.85536  1.0000
  H   H455      1.0  0.10535  0.45761  0.83717  1.0000
  H   H456      1.0  0.17770  0.01172  0.80855  1.0000
  C   C545      1.0  0.04459  0.45914  0.79909  1.0000
  C   C546      1.0  0.01544  0.45503  0.65351  1.0000
  H   H457      1.0  0.08319  0.13797  0.67805  1.0000
  H   H458      1.0  0.01080  0.14102  0.80651  1.0000
  C   C547      1.0  0.01411  0.46241  0.73082  1.0000
  C   C548      1.0  0.11690  0.36761  0.88606  1.0000
  H   H459      1.0  0.21940  0.42463  0.81110  1.0000
  H   H460      1.0  0.17439  0.04172  0.89428  1.0000
  C   C549      1.0  0.02317  0.27974  0.86094  1.0000
  C   C550      1.0  0.00844  0.00645  0.73654  1.0000
  H   H461      1.0  0.00724  0.37789  0.79009  1.0000
  H   H462      1.0  0.15915  0.46804  0.92839  1.0000
  C   C551      1.0  0.00462  0.28449  0.90031  1.0000
  H   H463      1.0  0.13065  0.36505  0.87548  1.0000
  S   S71       1.0  0.99860  0.17128  0.83161  1.0000
  H   H464      1.0  0.99698  0.27091  0.78777  1.0000
  C   C552      1.0  0.18001  0.17250  0.97138  1.0000
  C   C553      1.0  0.00639  0.03403  0.69399  1.0000
  H   H465      1.0  0.19042  0.07094  0.87695  1.0000
  C   C554      1.0  0.00402  0.47554  0.84737  1.0000
  C   C555      1.0  0.18769  0.43526  0.81200  1.0000
  H   H466      1.0  0.05163  0.13263  0.70155  1.0000
  C   C556      1.0  0.10754  0.47972  0.87213  1.0000
  S   S72       1.0  0.07000  0.47364  0.86865  1.0000
  H   H467      1.0  0.14715  0.02738  0.79378  1.0000
  C   C557      1.0  0.04797  0.28183  0.94361  1.0000
  C   C558      1.0  0.04324  0.27801  0.96452  1.0000
  H   H468      1.0  0.99879  0.22756  0.71199  1.0000
  C   C559      1.0  0.00841  0.27959  0.96212  1.0000
  C   C560      1.0  0.01310  0.28316  0.94102  1.0000
  C   C561      1.0  0.03296  0.28466  0.93190  1.0000
  H   H469      1.0  0.00240  0.34435  0.88504  1.0000
  H   H470      1.0  0.17654  0.99755  0.92588  1.0000
  S   S73       1.0  0.22436  0.45255  0.65613  1.0000
  C   C562      1.0  0.20894  0.98639  0.77979  1.0000
  S   S74       1.0  0.22172  0.99993  0.79143  1.0000
  H   H471      1.0  0.17482  0.99577  0.74743  1.0000
  C   C563      1.0  0.20075  0.16500  0.96832  1.0000
  S   S75       1.0  0.23318  0.07742  0.97298  1.0000
  C   C564      1.0  0.04499  0.45672  0.77921  1.0000
  C   C565      1.0  0.99126  0.02208  0.70024  1.0000
  C   C566      1.0  0.19502  0.11377  0.92934  1.0000
  H   H472      1.0  0.09466  0.44926  0.80040  1.0000
  H   H473      1.0  0.02053  0.27658  0.72606  1.0000
  H   H474      1.0  0.05152  0.98991  0.75645  1.0000
  C   C567      1.0  0.06885  0.14512  0.67374  1.0000
  C   C568      1.0  0.99467  0.30134  0.77220  1.0000
  C   C569      1.0  0.21177  0.09880  0.92558  1.0000
  C   C570      1.0  0.09584  0.05935  0.66607  1.0000
  H   H475      1.0  0.99622  0.43253  0.66017  1.0000
  H   H476      1.0  0.06338  0.28233  0.93647  1.0000
  C   C571      1.0  0.16284  0.99952  0.86545  1.0000
  H   H477      1.0  0.09302  0.06557  0.69608  1.0000
  H   H478      1.0  0.21750  0.43784  0.89725  1.0000
  H   H479      1.0  0.03704  0.28782  0.91575  1.0000
  C   C572      1.0  0.08132  0.44836  0.77487  1.0000
  H   H480      1.0  0.03237  0.42457  0.74750  1.0000
  C   C573      1.0  0.12613  0.47344  0.87887  1.0000
  C   C574      1.0  0.06805  0.15717  0.65488  1.0000
  H   H481      1.0  0.13027  0.48001  0.65278  1.0000
  C   C575      1.0  0.13761  0.47505  0.81686  1.0000
  C   C576      1.0  0.02776  0.26485  0.87709  1.0000
  H   H482      1.0  0.13149  0.42709  0.78821  1.0000
  C   C577      1.0  0.00774  0.22969  0.97803  1.0000
  C   C578      1.0  0.22802  0.42598  0.89075  1.0000
  C   C579      1.0  0.04785  0.02137  0.65633  1.0000
  C   C580      1.0  0.20376  0.42382  0.84153  1.0000
  H   H483      1.0  0.20988  0.08357  0.92569  1.0000
  S   S76       1.0  0.16524  0.37795  0.96918  1.0000
  H   H484      1.0  0.01893  0.14853  0.69144  1.0000
  C   C581      1.0  0.14442  0.10290  0.97183  1.0000
  H   H485      1.0  0.06208  0.45841  0.82204  1.0000
  C   C582      1.0  0.00721  0.42602  0.79525  1.0000
  C   C583      1.0  0.00544  0.27316  0.73007  1.0000
  H   H486      1.0  0.13673  0.42845  0.75155  1.0000
  C   C584      1.0  0.23632  0.39155  0.88504  1.0000
  C   C585      1.0  0.08325  0.42089  0.96650  1.0000
  C   C586      1.0  0.20500  0.42763  0.82063  1.0000
  C   C587      1.0  0.99604  0.14866  0.80386  1.0000
  C   C588      1.0  0.17278  0.05456  0.90175  1.0000
  P   P18       1.0  0.14628  0.44916  0.81375  1.0000
  C   C589      1.0  0.08908  0.48331  0.71959  1.0000
  P   P19       1.0  0.02197  0.45857  0.76984  1.0000
  C   C590      1.0  0.16986  0.08738  0.92141  1.0000
  H   H487      1.0  0.13263  0.99396  0.86922  1.0000
  H   H488      1.0  0.20830  0.40414  0.90152  1.0000
  C   C591      1.0  0.02393  0.41979  0.76211  1.0000
  H   H489      1.0  0.17463  0.47286  0.74316  1.0000
  C   C592      1.0  0.06688  0.02684  0.65116  1.0000
  H   H490      1.0  0.01420  0.36443  0.96174  1.0000
  C   C593      1.0  0.16575  0.00316  0.80987  1.0000
  H   H491      1.0  0.15821  0.45129  0.72893  1.0000
  C   C594      1.0  0.16788  0.43516  0.84529  1.0000
  C   C595      1.0  0.18025  0.08750  0.90165  1.0000
  H   H492      1.0  0.02575  0.38976  0.75639  1.0000
  C   C596      1.0  0.01865  0.26721  0.89672  1.0000
  C   C597      1.0  0.00009  0.29938  0.88390  1.0000
  C   C598      1.0  0.00205  0.12958  0.65478  1.0000
  H   H493      1.0  0.21794  0.47608  0.69492  1.0000
  H   H494      1.0  0.18761  0.10006  0.89395  1.0000
  H   H495      1.0  0.21986  0.15247  0.92726  1.0000
  C   C599      1.0  0.13360  0.00067  0.80247  1.0000
  C   C600      1.0  0.01706  0.36917  0.86964  1.0000
  C   C601      1.0  0.22766  0.03911  0.90941  1.0000
  H   H496      1.0  0.17461  0.18823  0.96651  1.0000
  C   C602      1.0  0.07671  0.43358  0.94968  1.0000
  S   S77       1.0  0.09219  0.20484  0.97300  1.0000
  H   H497      1.0  0.00486  0.37636  0.86148  1.0000
  H   H498      1.0  0.12454  0.15126  0.89014  1.0000
  H   H499      1.0  0.99326  0.27847  0.96959  1.0000
  S   S78       1.0  0.00091  0.12586  0.72988  1.0000
  H   H500      1.0  0.18416  0.42460  0.87007  1.0000
  C   C603      1.0  0.21756  0.13761  0.92623  1.0000
  C   C604      1.0  0.16201  0.05452  0.92124  1.0000
  H   H501      1.0  0.00765  0.46590  0.70071  1.0000
  C   C605      1.0  0.02323  0.18503  0.78100  1.0000
  H   H502      1.0  0.15197  0.45442  0.97003  1.0000
  H   H503      1.0  0.18906  0.43785  0.79581  1.0000
  C   C606      1.0  0.02751  0.19627  0.79398  1.0000
  C   C607      1.0  0.03406  0.37815  0.86701  1.0000
  C   C608      1.0  0.04967  0.36922  0.87780  1.0000
  C   C609      1.0  0.04833  0.35120  0.89142  1.0000
  P   P20       1.0  0.06704  0.34095  0.90753  1.0000
  C   C610      1.0  0.08521  0.35765  0.90342  1.0000
  C   C611      1.0  0.05417  0.33973  0.93327  1.0000
  C   C612      1.0  0.03695  0.35381  0.93816  1.0000
  C   C613      1.0  0.02725  0.35331  0.95809  1.0000
  H   H504      1.0  0.01985  0.22409  0.80563  1.0000
  C   C614      1.0  0.05177  0.32476  0.96863  1.0000
  C   C615      1.0  0.06146  0.32520  0.94871  1.0000
  C   C616      1.0  0.08210  0.37344  0.91445  1.0000
  C   C617      1.0  0.09630  0.38618  0.91127  1.0000
  C   C618      1.0  0.11375  0.38318  0.89720  1.0000
  C   C619      1.0  0.16513  0.46299  0.75312  1.0000
  C   C620      1.0  0.10259  0.35504  0.88894  1.0000
  C   C621      1.0  0.08024  0.31617  0.90346  1.0000
  C   C622      1.0  0.07252  0.30411  0.89359  1.0000
  C   C623      1.0  0.08215  0.28439  0.89222  1.0000
  C   C624      1.0  0.09970  0.27671  0.90033  1.0000
  C   C625      1.0  0.10782  0.28879  0.90959  1.0000
  C   C626      1.0  0.09823  0.30844  0.91105  1.0000
  H   H505      1.0  0.03487  0.39230  0.85685  1.0000
  H   H506      1.0  0.06247  0.37671  0.87576  1.0000
  H   H507      1.0  0.03124  0.36546  0.92663  1.0000
  H   H508      1.0  0.01756  0.48046  0.84855  1.0000
  H   H509      1.0  0.21120  0.17507  0.96108  1.0000
  C   C627      1.0  0.23717  0.03068  0.89224  1.0000
  H   H510      1.0  0.07476  0.31425  0.94562  1.0000
  H   H511      1.0  0.06898  0.37580  0.92579  1.0000
  H   H512      1.0  0.09422  0.39790  0.92028  1.0000
  S   S79       1.0  0.22021  0.37254  0.93928  1.0000
  H   H513      1.0  0.05904  0.30963  0.88711  1.0000
  H   H514      1.0  0.07595  0.27484  0.88509  1.0000
  H   H515      1.0  0.10698  0.26132  0.89952  1.0000
  H   H516      1.0  0.12145  0.28278  0.91594  1.0000
  H   H517      1.0  0.10471  0.31748  0.91848  1.0000
  H   H518      1.0  0.13761  0.48280  0.87410  1.0000
  C   C628      1.0  0.22274  0.40701  0.89306  1.0000
  C   C629      1.0  0.09300  0.44894  0.97640  1.0000
  H   H519      1.0  0.05777  0.31360  0.98039  1.0000
  C   C630      1.0  0.18506  0.98722  0.75727  1.0000
  C   C631      1.0  0.20294  0.48436  0.69855  1.0000
  C   C632      1.0  0.23408  0.12260  0.92264  1.0000
  H   H520      1.0  0.01714  0.44414  0.85130  1.0000
  H   H521      1.0  0.04417  0.01146  0.67035  1.0000
  C   C633      1.0  0.01677  0.43318  0.77591  1.0000
  C   C634      1.0  0.07874  0.09063  0.67684  1.0000
  C   C635      1.0  0.15592  0.45080  0.74508  1.0000
  C   C636      1.0  0.08985  0.07146  0.68099  1.0000
  P   P21       1.0  0.99354  0.28794  0.92582  1.0000
  C   C637      1.0  0.06249  0.45643  0.80668  1.0000
  S   S80       1.0  0.22347  0.01941  0.87985  1.0000
  C   C638      1.0  0.01549  0.47097  0.71047  1.0000
  S   S81       1.0  0.00603  0.21502  0.85628  1.0000
  S   S82       1.0  0.00264  0.20398  0.91716  1.0000
  C   C639      1.0  0.08617  0.46186  0.95971  1.0000
  C   C640      1.0  0.14385  0.43790  0.75785  1.0000
  C   C641      1.0  0.06344  0.45101  0.76724  1.0000
  H   H522      1.0  0.15493  0.48342  0.69483  1.0000
  P   P22       1.0  0.99424  0.00038  0.71972  1.0000
  C   C642      1.0  0.02442  0.46881  0.74340  1.0000
  H   H523      1.0  0.22108  0.41352  0.94376  1.0000
  C   C643      1.0  0.03265  0.15115  0.68133  1.0000
  H   H524      1.0  0.05499  0.27573  0.97350  1.0000
  H   H525      1.0  0.07177  0.19556  0.65141  1.0000
  C   C644      1.0  0.07810  0.45400  0.94629  1.0000
  H   H526      1.0  0.01518  0.24185  0.74036  1.0000
  H   H527      1.0  0.09671  0.48439  0.68748  1.0000
  S   S83       1.0  0.99655  0.08742  0.71040  1.0000
  H   H528      1.0  0.07296  0.46343  0.93314  1.0000
  C   C645      1.0  0.02611  0.99381  0.74134  1.0000
  C   C646      1.0  0.20804  0.14460  0.97462  1.0000
  H   H529      1.0  0.01440  0.99489  0.67858  1.0000
  H   H530      1.0  0.22621  0.03332  0.96839  1.0000
  C   C647      1.0  0.03178  0.16335  0.66258  1.0000
  H   H531      1.0  0.00449  0.32359  0.93613  1.0000
  H   H532      1.0  0.00257  0.43567  0.80660  1.0000
  C   C648      1.0  0.19563  0.99720  0.76678  1.0000
  H   H533      1.0  0.07078  0.42757  0.93910  1.0000
  C   C649      1.0  0.99180  0.21428  0.71561  1.0000
  C   C650      1.0  0.09138  0.42859  0.97986  1.0000
  C   C651      1.0  0.17918  0.08774  0.97202  1.0000
  C   C652      1.0  0.07391  0.09787  0.65762  1.0000
  H   H534      1.0  0.23230  0.37671  0.88738  1.0000
  H   H535      1.0  0.18873  0.46440  0.68772  1.0000
  C   C653      1.0  0.03469  0.33882  0.97333  1.0000
  H   H536      1.0  0.19148  0.99029  0.68223  1.0000
  H   H537      1.0  0.09902  0.32898  0.95941  1.0000
  C   C654      1.0  0.02350  0.27687  0.97381  1.0000
  H   H538      1.0  0.16925  0.47211  0.77994  1.0000
  C   C655      1.0  0.14723  0.48045  0.93140  1.0000
  H   H539      1.0  0.15835  0.47599  0.83653  1.0000
  H   H540      1.0  0.00205  0.20655  0.68594  1.0000
  S   S84       1.0  0.01037  0.36184  0.65427  1.0000
  C   C656      1.0  0.03768  0.99949  0.75315  1.0000
  C   C657      1.0  0.01657  0.47525  0.65296  1.0000
  C   C658      1.0  0.22989  0.01866  0.97727  1.0000
  H   H541      1.0  0.08270  0.40496  0.96882  1.0000
  H   H542      1.0  0.16194  0.00975  0.85137  1.0000
  C   C659      1.0  0.23619  0.40533  0.94244  1.0000
  C   C660      1.0  0.16637  0.15969  0.98099  1.0000
  C   C661      1.0  0.23891  0.04606  0.92079  1.0000
  H   H543      1.0  0.99402  0.23875  0.78426  1.0000
  C   C662      1.0  0.19366  0.99372  0.94951  1.0000
  C   C663      1.0  0.18056  0.99521  0.87350  1.0000
  H   H544      1.0  0.08204  0.22775  0.65121  1.0000
  H   H545      1.0  0.10688  0.98890  0.96975  1.0000
  C   C664      1.0  0.14632  0.99069  0.87558  1.0000
  Fe  Fe35      1.0  0.98994  0.20984  0.88814  1.0000
  H   H546      1.0  0.98963  0.03534  0.73938  1.0000
  C   C665      1.0  0.99002  0.32782  0.93127  1.0000
  C   C666      1.0  0.18302  0.98687  0.93761  1.0000
  H   H547      1.0  0.14112  0.98695  0.95046  1.0000
  S   S85       1.0  0.01588  0.66914  0.12514  1.0000
  Fe  Fe36      1.0  0.08057  0.71905  0.02775  1.0000
  S   S86       1.0  0.11092  0.70613  0.03648  1.0000
  S   S87       1.0  0.04996  0.72601  0.04665  1.0000
  C   C667      1.0  0.19550  0.94312  0.06498  1.0000
  C   C668      1.0  0.07980  0.59298  0.00727  1.0000
  Fe  Fe37      1.0  0.11543  0.68923  0.01065  1.0000
  S   S88       1.0  0.13143  0.65750  0.00812  1.0000
  Fe  Fe38      1.0  0.12222  0.73135  0.01320  1.0000
  S   S89       1.0  0.14552  0.74654  0.02142  1.0000
  S   S90       1.0  0.99117  0.81247  0.25297  1.0000
  H   H548      1.0  0.05668  0.58962  0.08733  1.0000
  C   C669      1.0  0.20549  0.95791  0.06769  1.0000
  H   H549      1.0  0.18381  0.49339  0.99905  1.0000
  H   H550      1.0  0.04391  0.76124  0.06753  1.0000
  Fe  Fe39      1.0  0.22784  0.94341  0.14131  1.0000
  H   H551      1.0  0.01204  0.72869  0.07231  1.0000
  S   S91       1.0  0.19557  0.95207  0.15594  1.0000
  C   C670      1.0  0.06317  0.48959  0.99342  1.0000
  H   H552      1.0  0.00341  0.63415  0.14697  1.0000
  C   C671      1.0  0.00643  0.90177  0.26415  1.0000
  C   C672      1.0  0.05615  0.48642  0.29807  1.0000
  Fe  Fe40      1.0  0.12537  0.92752  0.25718  1.0000
  S   S92       1.0  0.11364  0.91180  0.28797  1.0000
  S   S93       1.0  0.15200  0.91002  0.23925  1.0000
  Fe  Fe41      1.0  0.08312  0.92426  0.28006  1.0000
  S   S94       1.0  0.05737  0.90667  0.29196  1.0000
  S   S95       1.0  0.09471  0.93809  0.24841  1.0000
  C   C673      1.0  0.09219  0.50598  0.98817  1.0000
  S   S96       1.0  0.00591  0.75346  0.24648  1.0000
  Fe  Fe42      1.0  0.01495  0.81710  0.26923  1.0000
  H   H553      1.0  0.02444  0.74539  0.09844  1.0000
  S   S97       1.0  0.03914  0.83604  0.25462  1.0000
  Fe  Fe43      1.0  0.00234  0.78790  0.30669  1.0000
  C   C674      1.0  0.03464  0.66722  0.00547  1.0000
  S   S98       1.0  0.02463  0.78396  0.27867  1.0000
  H   H554      1.0  0.15180  0.63028  0.05442  1.0000
  Fe  Fe44      1.0  0.11822  0.55026  0.06262  1.0000
  S   S99       1.0  0.14838  0.54149  0.04425  1.0000
  S   S100      1.0  0.10078  0.58153  0.06508  1.0000
  C   C675      1.0  0.04696  0.51977  0.30716  1.0000
  Fe  Fe45      1.0  0.15544  0.51946  0.07181  1.0000
  S   S101      1.0  0.18374  0.51250  0.08586  1.0000
  Fe  Fe46      1.0  0.13430  0.51699  0.03804  1.0000
  C   C676      1.0  0.06207  0.64114  0.99565  1.0000
  S   S102      1.0  0.12644  0.53029  0.09078  1.0000
  S   S103      1.0  0.10355  0.52740  0.05436  1.0000
  C   C677      1.0  0.99402  0.49047  0.26867  1.0000
  C   C678      1.0  0.20617  0.51966  0.07173  1.0000
  C   C679      1.0  0.20625  0.53295  0.05352  1.0000
  Fe  Fe47      1.0  0.09505  0.96523  0.26203  1.0000
  C   C680      1.0  0.99095  0.70828  0.98430  1.0000
  H   H555      1.0  0.02651  0.62044  0.03823  1.0000
  H   H556      1.0  0.16054  0.69150  0.04214  1.0000
  H   H557      1.0  0.19236  0.53886  0.04784  1.0000
  H   H558      1.0  0.18237  0.84239  0.14129  1.0000
  C   C681      1.0  0.08922  0.57438  0.01617  1.0000
  Fe  Fe48      1.0  0.11399  0.50663  0.08116  1.0000
  C   C682      1.0  0.05382  0.88596  0.28214  1.0000
  C   C683      1.0  0.06491  0.88092  0.26398  1.0000
  C   C684      1.0  0.06058  0.86524  0.25599  1.0000
  C   C685      1.0  0.04525  0.85440  0.26611  1.0000
  C   C686      1.0  0.03475  0.85891  0.28468  1.0000
  C   C687      1.0  0.03897  0.87468  0.29260  1.0000
  H   H559      1.0  0.07640  0.88948  0.25581  1.0000
  H   H560      1.0  0.06881  0.86179  0.24164  1.0000
  H   H561      1.0  0.02297  0.85069  0.29265  1.0000
  H   H562      1.0  0.99967  0.70877  0.27884  1.0000
  C   C688      1.0  0.18385  0.93988  0.17901  1.0000
  C   C689      1.0  0.19244  0.92115  0.18844  1.0000
  C   C690      1.0  0.18235  0.91195  0.20675  1.0000
  C   C691      1.0  0.16398  0.92171  0.21602  1.0000
  C   C692      1.0  0.15540  0.94039  0.20653  1.0000
  C   C693      1.0  0.16516  0.94924  0.18794  1.0000
  H   H563      1.0  0.20683  0.91384  0.18163  1.0000
  H   H564      1.0  0.18902  0.89743  0.21397  1.0000
  H   H565      1.0  0.14115  0.94794  0.21340  1.0000
  H   H566      1.0  0.15824  0.96347  0.18047  1.0000
  S   S104      1.0  0.08421  0.70005  0.00387  1.0000
  H   H567      1.0  0.06772  0.68754  0.06797  1.0000
  C   C694      1.0  0.13780  0.70898  0.29741  1.0000
  H   H568      1.0  0.06407  0.52209  0.25680  1.0000
  H   H569      1.0  0.13738  0.77469  0.98463  1.0000
  C   C695      1.0  0.15398  0.76940  0.00908  1.0000
  C   C696      1.0  0.19764  0.69796  0.98496  1.0000
  H   H570      1.0  0.07817  0.54014  0.30560  1.0000
  C   C697      1.0  0.12146  0.84051  0.30428  1.0000
  H   H571      1.0  0.00199  0.68700  0.31170  1.0000
  C   C698      1.0  0.16773  0.77669  0.01729  1.0000
  H   H572      1.0  0.15743  0.87279  0.26671  1.0000
  H   H573      1.0  0.17252  0.76860  0.03113  1.0000
  C   C699      1.0  0.12198  0.63679  0.02379  1.0000
  C   C700      1.0  0.12867  0.61765  0.01852  1.0000
  C   C701      1.0  0.12236  0.60060  0.03109  1.0000
  C   C702      1.0  0.10896  0.60264  0.04894  1.0000
  C   C703      1.0  0.10181  0.62186  0.05402  1.0000
  C   C704      1.0  0.10842  0.63891  0.04155  1.0000
  H   H574      1.0  0.13869  0.61600  0.00459  1.0000
  H   H575      1.0  0.12791  0.58590  0.02700  1.0000
  H   H576      1.0  0.09136  0.62354  0.06779  1.0000
  H   H577      1.0  0.10315  0.65363  0.04574  1.0000
  H   H578      1.0  0.01639  0.98378  0.26864  1.0000
  H   H579      1.0  0.18253  0.93925  0.07571  1.0000
  C   C705      1.0  0.99490  0.78791  0.16131  1.0000
  C   C706      1.0  0.13820  0.48658  0.00414  1.0000
  H   H580      1.0  0.01391  0.72114  0.22366  1.0000
  C   C707      1.0  0.02533  0.68496  0.10329  1.0000
  C   C708      1.0  0.04485  0.67945  0.09315  1.0000
  C   C709      1.0  0.05262  0.69177  0.07561  1.0000
  C   C710      1.0  0.04085  0.70964  0.06814  1.0000
  C   C711      1.0  0.02127  0.71496  0.07812  1.0000
  C   C712      1.0  0.01357  0.70275  0.09568  1.0000
  H   H581      1.0  0.05399  0.66565  0.09892  1.0000
  C   C713      1.0  0.13479  0.89223  0.19565  1.0000
  C   C714      1.0  0.12443  0.87604  0.19945  1.0000
  C   C715      1.0  0.12833  0.86256  0.18584  1.0000
  C   C716      1.0  0.14265  0.86521  0.16843  1.0000
  C   C717      1.0  0.15313  0.88145  0.16452  1.0000
  C   C718      1.0  0.14901  0.89499  0.17824  1.0000
  P   P23       1.0  0.17170  0.88535  0.14221  1.0000
  C   C719      1.0  0.19675  0.87838  0.14829  1.0000
  C   C720      1.0  0.23209  0.48805  0.22097  1.0000
  H   H582      1.0  0.23028  0.54988  0.14682  1.0000
  C   C721      1.0  0.17531  0.79440  0.00778  1.0000
  H   H583      1.0  0.04496  0.80746  0.30379  1.0000
  H   H584      1.0  0.21851  0.48657  0.19579  1.0000
  H   H585      1.0  0.06215  0.69844  0.13268  1.0000
  C   C722      1.0  0.21307  0.87438  0.13301  1.0000
  C   C723      1.0  0.16660  0.91165  0.13177  1.0000
  C   C724      1.0  0.18202  0.92317  0.12570  1.0000
  C   C725      1.0  0.17760  0.94365  0.11817  1.0000
  C   C726      1.0  0.15789  0.95275  0.11654  1.0000
  C   C727      1.0  0.14247  0.94133  0.12240  1.0000
  C   C728      1.0  0.14679  0.92086  0.13005  1.0000
  H   H586      1.0  0.13185  0.90266  0.20623  1.0000
  H   H587      1.0  0.11334  0.87400  0.21293  1.0000
  H   H588      1.0  0.12017  0.85009  0.18876  1.0000
  H   H589      1.0  0.14531  0.85467  0.15807  1.0000
  H   H590      1.0  0.15689  0.90767  0.17554  1.0000
  C   C729      1.0  0.20241  0.93311  0.04852  1.0000
  H   H591      1.0  0.05068  0.54425  0.28233  1.0000
  C   C730      1.0  0.21999  0.49587  0.20622  1.0000
  H   H592      1.0  0.20002  0.52151  0.19387  1.0000
  C   C731      1.0  0.22204  0.77142  0.02473  1.0000
  H   H593      1.0  0.21077  0.87553  0.11767  1.0000
  H   H594      1.0  0.19736  0.91666  0.12730  1.0000
  H   H595      1.0  0.18943  0.95262  0.11443  1.0000
  C   C732      1.0  0.21845  0.72599  0.99287  1.0000
  H   H596      1.0  0.12714  0.94840  0.12135  1.0000
  H   H597      1.0  0.13466  0.91222  0.13478  1.0000
  C   C733      1.0  0.05930  0.65326  0.02719  1.0000
  H   H598      1.0  0.04459  0.48935  0.02261  1.0000
  H   H599      1.0  0.16307  0.87507  0.07529  1.0000
  C   C734      1.0  0.04209  0.66679  0.02305  1.0000
  H   H600      1.0  0.23863  0.91510  0.21695  1.0000
  H   H601      1.0  0.00754  0.50798  0.16965  1.0000
  C   C735      1.0  0.20024  0.87674  0.16802  1.0000
  C   C736      1.0  0.00645  0.59999  0.08555  1.0000
  H   H602      1.0  0.09960  0.75493  0.31287  1.0000
  S   S105      1.0  0.09147  0.74546  0.00647  1.0000
  C   C737      1.0  0.18146  0.61930  0.00004  1.0000
  H   H603      1.0  0.13821  0.57403  0.08100  1.0000
  H   H604      1.0  0.21148  0.72377  0.03512  1.0000
  C   C738      1.0  0.04448  0.65443  0.99187  1.0000
  C   C739      1.0  0.13802  0.72791  0.28551  1.0000
  C   C740      1.0  0.17893  0.83811  0.11215  1.0000
  C   C741      1.0  0.06931  0.64053  0.01352  1.0000
  C   C742      1.0  0.21127  0.97030  0.20611  1.0000
  C   C743      1.0  0.19434  0.57911  0.07284  1.0000
  C   C744      1.0  0.11673  0.57494  0.98825  1.0000
  S   S106      1.0  0.19554  0.87237  0.99366  1.0000
  C   C745      1.0  0.21119  0.93582  0.22309  1.0000
  C   C746      1.0  0.23591  0.86727  0.15703  1.0000
  H   H605      1.0  0.20017  0.96583  0.08032  1.0000
  H   H606      1.0  0.99097  0.49389  0.20324  1.0000
  H   H607      1.0  0.13858  0.66579  0.05523  1.0000
  C   C747      1.0  0.00799  0.76981  0.15885  1.0000
  C   C748      1.0  0.22332  0.51964  0.23363  1.0000
  C   C749      1.0  0.20360  0.53739  0.14919  1.0000
  C   C750      1.0  0.16653  0.86793  0.09001  1.0000
  C   C751      1.0  0.22423  0.51214  0.07911  1.0000
  H   H608      1.0  0.22241  0.87031  0.18753  1.0000
  H   H609      1.0  0.02131  0.89713  0.25613  1.0000
  H   H610      1.0  0.21442  0.79227  0.04569  1.0000
  C   C752      1.0  0.19557  0.51995  0.15074  1.0000
  C   C753      1.0  0.22944  0.95269  0.03740  1.0000
  H   H611      1.0  0.18472  0.82217  0.11470  1.0000
  C   C754      1.0  0.01269  0.49264  0.17627  1.0000
  Fe  Fe49      1.0  0.11228  0.94103  0.29832  1.0000
  C   C755      1.0  0.02438  0.59270  0.09331  1.0000
  S   S107      1.0  0.99407  0.82126  0.29816  1.0000
  C   C756      1.0  0.06095  0.80754  0.29983  1.0000
  H   H612      1.0  0.99366  0.72393  0.16563  1.0000
  C   C757      1.0  0.99433  0.61817  0.12723  1.0000
  S   S108      1.0  0.22136  0.82890  0.00999  1.0000
  C   C758      1.0  0.99339  0.55583  0.10229  1.0000
  H   H613      1.0  0.23452  0.53846  0.30082  1.0000
  H   H614      1.0  0.02153  0.67786  0.00202  1.0000
  H   H615      1.0  0.14869  0.72975  0.27170  1.0000
  H   H616      1.0  0.22743  0.51091  0.28667  1.0000
  S   S109      1.0  0.23476  0.95176  0.10752  1.0000
  H   H617      1.0  0.02751  0.76219  0.20219  1.0000
  H   H618      1.0  0.03482  0.67722  0.03327  1.0000
  H   H619      1.0  0.19492  0.92135  0.04656  1.0000
  C   C759      1.0  0.22416  0.53617  0.14875  1.0000
  H   H620      1.0  0.20093  0.89094  0.08052  1.0000
  C   C760      1.0  0.22346  0.88050  0.05667  1.0000
  C   C761      1.0  0.99892  0.72896  0.22216  1.0000
  H   H621      1.0  0.04743  0.71432  0.29769  1.0000
  H   H622      1.0  0.03022  0.74680  0.17218  1.0000
  C   C762      1.0  0.23143  0.96492  0.19759  1.0000
  C   C763      1.0  0.15417  0.85092  0.29378  1.0000
  H   H623      1.0  0.01587  0.49003  0.28728  1.0000
  C   C764      1.0  0.16914  0.80515  0.98995  1.0000
  H   H624      1.0  0.22420  0.50188  0.09322  1.0000
  H   H625      1.0  0.22391  0.58830  0.01053  1.0000
  C   C765      1.0  0.01794  0.72166  0.00208  1.0000
  C   C766      1.0  0.08898  0.60291  0.98894  1.0000
  H   H626      1.0  0.99266  0.66748  0.09565  1.0000
  C   C767      1.0  0.21124  0.52741  0.21884  1.0000
  C   C768      1.0  0.21887  0.60435  0.03570  1.0000
  S   S110      1.0  0.09347  0.49041  0.10622  1.0000
  S   S111      1.0  0.14367  0.49416  0.06419  1.0000
  H   H627      1.0  0.08308  0.63072  0.01659  1.0000
  C   C769      1.0  0.23388  0.49990  0.23477  1.0000
  C   C770      1.0  0.05991  0.51561  0.27241  1.0000
  H   H628      1.0  0.19394  0.55191  0.14786  1.0000
  C   C771      1.0  0.22969  0.89785  0.08203  1.0000
  H   H629      1.0  0.19651  0.55485  0.09792  1.0000
  H   H630      1.0  0.19810  0.76868  0.07319  1.0000
  C   C772      1.0  0.12425  0.74442  0.29128  1.0000
  C   C773      1.0  0.04843  0.71632  0.31268  1.0000
  C   C774      1.0  0.04876  0.49885  0.31258  1.0000
  C   C775      1.0  0.01607  0.55382  0.31640  1.0000
  C   C776      1.0  0.18675  0.66988  0.03406  1.0000
  H   H631      1.0  0.08239  0.56710  0.03064  1.0000
  H   H632      1.0  0.16057  0.55192  0.10336  1.0000
  H   H633      1.0  0.08053  0.71239  0.30716  1.0000
  C   C777      1.0  0.16154  0.58952  0.06303  1.0000
  H   H634      1.0  0.02409  0.58514  0.10874  1.0000
  H   H635      1.0  0.19564  0.50667  0.02489  1.0000
  C   C778      1.0  0.00180  0.92003  0.27132  1.0000
  H   H636      1.0  0.20979  0.64558  0.02628  1.0000
  H   H637      1.0  0.19626  0.68116  0.02813  1.0000
  H   H638      1.0  0.99377  0.61582  0.05921  1.0000
  S   S112      1.0  0.12888  0.71333  0.98801  1.0000
  C   C779      1.0  0.05238  0.52810  0.28690  1.0000
  C   C780      1.0  0.20805  0.50125  0.15207  1.0000
  H   H639      1.0  0.07802  0.86388  0.31168  1.0000
  H   H640      1.0  0.15455  0.96872  0.11110  1.0000
  C   C781      1.0  0.18720  0.71407  0.99433  1.0000
  C   C782      1.0  0.18213  0.63484  0.04096  1.0000
  H   H641      1.0  0.16015  0.89548  0.10157  1.0000
  H   H642      1.0  0.14830  0.69612  0.29281  1.0000
  C   C783      1.0  0.22425  0.53906  0.04300  1.0000
  C   C784      1.0  0.04362  0.60524  0.06145  1.0000
  C   C785      1.0  0.06188  0.49476  0.27802  1.0000
  H   H643      1.0  0.00165  0.52364  0.10452  1.0000
  C   C786      1.0  0.22825  0.61081  0.04908  1.0000
  H   H644      1.0  0.09836  0.65563  0.98547  1.0000
  H   H645      1.0  0.16938  0.85008  0.29619  1.0000
  S   S113      1.0  0.08085  0.95249  0.29286  1.0000
  H   H646      1.0  0.22426  0.52903  0.24419  1.0000
  H   H647      1.0  0.04810  0.73413  0.12454  1.0000
  H   H648      1.0  0.03029  0.87847  0.30664  1.0000
  C   C787      1.0  0.03931  0.76895  0.08044  1.0000
  H   H649      1.0  0.22413  0.54971  0.02916  1.0000
  S   S114      1.0  0.12666  0.95572  0.26835  1.0000
  C   C788      1.0  0.99098  0.74572  0.23185  1.0000
  C   C789      1.0  0.04465  0.78766  0.07959  1.0000
  C   C790      1.0  0.99548  0.62241  0.14599  1.0000
  H   H650      1.0  0.20327  0.92453  0.23289  1.0000
  C   C791      1.0  0.16197  0.64092  0.04903  1.0000
  C   C792      1.0  0.12392  0.70653  0.31516  1.0000
  H   H651      1.0  0.21020  0.57955  0.07049  1.0000
  C   C793      1.0  0.20956  0.51553  0.20516  1.0000
  C   C794      1.0  0.20123  0.95556  0.21893  1.0000
  C   C795      1.0  0.22103  0.75221  0.02139  1.0000
  C   C796      1.0  0.20395  0.74470  0.05580  1.0000
  C   C797      1.0  0.99648  0.66492  0.06442  1.0000
  H   H652      1.0  0.11346  0.98228  0.30988  1.0000
  C   C798      1.0  0.18196  0.58436  0.01526  1.0000
  H   H653      1.0  0.00777  0.53293  0.30088  1.0000
  H   H654      1.0  0.99389  0.70905  0.20356  1.0000
  C   C799      1.0  0.16641  0.56324  0.09156  1.0000
  H   H655      1.0  0.21936  0.61875  0.06083  1.0000
  C   C800      1.0  0.21655  0.88976  0.07379  1.0000
  C   C801      1.0  0.23256  0.86894  0.13734  1.0000
  S   S115      1.0  0.13900  0.51151  0.00603  1.0000
  Fe  Fe50      1.0  0.20245  0.84124  0.98578  1.0000
  C   C802      1.0  0.16666  0.67572  0.04205  1.0000
  C   C803      1.0  0.22863  0.49997  0.15163  1.0000
  C   C804      1.0  0.14749  0.86368  0.27710  1.0000
  H   H656      1.0  0.11497  0.55094  0.01349  1.0000
  C   C805      1.0  0.00445  0.54792  0.30462  1.0000
  H   H657      1.0  0.06551  0.50802  0.03520  1.0000
  C   C806      1.0  0.00734  0.60990  0.06553  1.0000
  C   C807      1.0  0.02588  0.61255  0.05356  1.0000
  H   H658      1.0  0.06523  0.65311  0.04070  1.0000
  C   C808      1.0  0.15431  0.66123  0.04954  1.0000
  H   H659      1.0  0.04305  0.81193  0.09565  1.0000
  C   C809      1.0  0.05774  0.49419  0.01289  1.0000
  H   H660      1.0  0.17970  0.52095  0.15059  1.0000
  H   H661      1.0  0.09578  0.49047  0.30476  1.0000
  C   C810      1.0  0.14789  0.78009  0.99118  1.0000
  H   H662      1.0  0.00390  0.79360  0.20667  1.0000
  C   C811      1.0  0.02243  0.76963  0.11496  1.0000
  C   C812      1.0  0.07148  0.80090  0.28216  1.0000
  H   H663      1.0  0.18571  0.95907  0.22568  1.0000
  C   C813      1.0  0.21977  0.87122  0.17234  1.0000
  C   C814      1.0  0.20471  0.76398  0.05887  1.0000
  C   C815      1.0  0.16494  0.87945  0.10504  1.0000
  H   H664      1.0  0.20303  0.54261  0.21814  1.0000
  C   C816      1.0  0.07086  0.81496  0.31194  1.0000
  C   C817      1.0  0.11499  0.85322  0.28727  1.0000
  C   C818      1.0  0.12796  0.86475  0.27380  1.0000
  H   H665      1.0  0.00941  0.65313  0.06525  1.0000
  P   P24       1.0  0.19182  0.60877  0.03849  1.0000
  C   C819      1.0  0.19441  0.64959  0.03328  1.0000
  H   H666      1.0  0.17437  0.56540  0.99745  1.0000
  C   C820      1.0  0.14128  0.83929  0.30727  1.0000
  H   H667      1.0  0.05804  0.60732  0.05233  1.0000
  H   H668      1.0  0.02847  0.72677  0.00897  1.0000
  H   H669      1.0  0.18286  0.63454  0.00066  1.0000
  H   H670      1.0  0.15177  0.59820  0.05284  1.0000
  H   H671      1.0  0.12417  0.75904  0.28188  1.0000
  C   C821      1.0  0.09198  0.80139  0.27670  1.0000
  C   C822      1.0  0.10199  0.80864  0.28883  1.0000
  C   C823      1.0  0.08660  0.51070  0.00760  1.0000
  C   C824      1.0  0.23108  0.93051  0.21415  1.0000
  H   H672      1.0  0.09997  0.85419  0.28423  1.0000
  H   H673      1.0  0.12284  0.87475  0.26084  1.0000
  C   C825      1.0  0.00532  0.78727  0.19311  1.0000
  C   C826      1.0  0.21220  0.73876  0.03719  1.0000
  C   C827      1.0  0.18178  0.59169  0.06001  1.0000
  H   H674      1.0  0.00869  0.55826  0.09716  1.0000
  H   H675      1.0  0.04252  0.67544  0.15759  1.0000
  Fe  Fe51      1.0  0.99922  0.77943  0.26464  1.0000
  H   H676      1.0  0.05328  0.97417  0.26168  1.0000
  C   C828      1.0  0.23070  0.59380  0.02081  1.0000
  C   C829      1.0  0.21936  0.93777  0.03482  1.0000
  H   H677      1.0  0.09994  0.79660  0.26277  1.0000
  H   H678      1.0  0.11786  0.80911  0.28427  1.0000
  H   H679      1.0  0.18806  0.87983  0.18012  1.0000
  C   C830      1.0  0.10762  0.56533  0.00661  1.0000
  C   C831      1.0  0.18664  0.56499  0.08853  1.0000
  S   S116      1.0  0.20654  0.87056  0.04667  1.0000
  H   H680      1.0  0.99557  0.87533  0.26156  1.0000
  H   H681      1.0  0.99849  0.70707  0.10322  1.0000
  C   C832      1.0  0.17053  0.87039  0.12375  1.0000
  C   C833      1.0  0.15386  0.57557  0.07886  1.0000
  C   C834      1.0  0.22247  0.96257  0.05406  1.0000
  C   C835      1.0  0.06948  0.50473  0.01999  1.0000
  H   H682      1.0  0.02355  0.79629  0.12673  1.0000
  P   P25       1.0  0.00826  0.75771  0.13768  1.0000
  H   H683      1.0  0.99700  0.66612  0.03292  1.0000
  C   C836      1.0  0.17655  0.58042  0.99806  1.0000
  H   H684      1.0  0.01317  0.92949  0.26883  1.0000
  H   H685      1.0  0.18578  0.79984  0.01431  1.0000
  C   C837      1.0  0.17748  0.84960  0.12719  1.0000
  C   C838      1.0  0.02822  0.76001  0.09800  1.0000
  H   H686      1.0  0.18423  0.57218  0.02765  1.0000
  H   H687      1.0  0.00150  0.62686  0.11380  1.0000
  C   C839      1.0  0.17361  0.84731  0.09351  1.0000
  C   C840      1.0  0.09147  0.81563  0.30646  1.0000
  H   H688      1.0  0.06364  0.79593  0.27237  1.0000
  H   H689      1.0  0.19671  0.73445  0.06776  1.0000
  H   H690      1.0  0.20180  0.48780  0.15297  1.0000
  C   C841      1.0  0.03883  0.79745  0.09632  1.0000
  C   C842      1.0  0.02774  0.78851  0.11394  1.0000
  H   H691      1.0  0.11849  0.51385  0.30591  1.0000
  H   H692      1.0  0.05338  0.79447  0.06599  1.0000
  C   C843      1.0  0.11038  0.74203  0.30903  1.0000
  C   C844      1.0  0.01936  0.73164  0.14380  1.0000
  H   H693      1.0  0.17543  0.83862  0.08154  1.0000
  C   C845      1.0  0.02006  0.76079  0.17353  1.0000
  C   C846      1.0  0.01868  0.76952  0.19056  1.0000
  Fe  Fe52      1.0  0.21651  0.86069  0.01609  1.0000
  C   C847      1.0  0.18419  0.60390  0.01650  1.0000
  H   H694      1.0  0.06541  0.59961  0.01477  1.0000
  C   C848      1.0  0.00862  0.71861  0.15829  1.0000
  C   C849      1.0  0.01711  0.69850  0.16346  1.0000
  C   C850      1.0  0.03633  0.69121  0.15416  1.0000
  C   C851      1.0  0.04732  0.70416  0.14003  1.0000
  C   C852      1.0  0.03904  0.72437  0.13512  1.0000
  H   H695      1.0  0.99871  0.71467  0.03003  1.0000
  H   H696      1.0  0.00863  0.68847  0.17443  1.0000
  H   H697      1.0  0.22422  0.90517  0.09506  1.0000
  C   C853      1.0  0.04286  0.59526  0.08127  1.0000
  C   C854      1.0  0.00101  0.71467  0.01397  1.0000
  C   C855      1.0  0.98968  0.69940  0.31059  1.0000
  H   H698      1.0  0.22999  0.97408  0.05637  1.0000
  H   H699      1.0  0.10371  0.55628  0.31360  1.0000
  C   C856      1.0  0.19303  0.49128  0.02766  1.0000
  H   H700      1.0  0.09586  0.51858  0.01323  1.0000
  H   H701      1.0  0.17101  0.71591  0.99850  1.0000
  C   C857      1.0  0.99412  0.58620  0.31521  1.0000
  H   H702      1.0  0.22447  0.92953  0.02242  1.0000
  P   P26       1.0  0.23142  0.74478  0.99720  1.0000
  C   C858      1.0  0.99353  0.79655  0.17842  1.0000
  C   C859      1.0  0.99190  0.88947  0.26724  1.0000
  H   H703      1.0  0.18914  0.74045  0.00539  1.0000
  C   C860      1.0  0.23686  0.51745  0.14989  1.0000
  C   C861      1.0  0.21386  0.77728  0.04338  1.0000
  H   H704      1.0  0.03556  0.48699  0.15080  1.0000
  C   C862      1.0  0.19753  0.72799  0.99827  1.0000
  H   H705      1.0  0.22893  0.78204  0.01292  1.0000
  H   H706      1.0  0.20848  0.98575  0.16157  1.0000
  C   C863      1.0  0.22887  0.70979  0.98334  1.0000
  S   S117      1.0  0.02030  0.60132  0.48174  1.0000
  H   H707      1.0  0.14157  0.97795  0.37203  1.0000
  Fe  Fe53      1.0  0.21009  0.59296  0.50547  1.0000
  S   S118      1.0  0.20084  0.58163  0.53850  1.0000
  Fe  Fe54      1.0  0.19429  0.61560  0.46769  1.0000
  S   S119      1.0  0.22507  0.61233  0.44878  1.0000
  S   S120      1.0  0.16551  0.63238  0.45669  1.0000
  H   H708      1.0  0.06278  0.57511  0.36471  1.0000
  H   H709      1.0  0.12978  0.70464  0.35941  1.0000
  S   S121      1.0  0.19701  0.58328  0.48233  1.0000
  S   S122      1.0  0.20489  0.62588  0.49246  1.0000
  Fe  Fe55      1.0  0.14463  0.90828  0.54265  1.0000
  S   S123      1.0  0.15877  0.88396  0.52438  1.0000
  S   S124      1.0  0.13987  0.94158  0.53280  1.0000
  Fe  Fe56      1.0  0.14376  0.88035  0.58265  1.0000
  S   S125      1.0  0.15797  0.85319  0.56796  1.0000
  S   S126      1.0  0.13293  0.88082  0.61603  1.0000
  Fe  Fe57      1.0  0.17848  0.87360  0.54824  1.0000
  S   S127      1.0  0.21218  0.86774  0.53878  1.0000
  Fe  Fe58      1.0  0.13709  0.86553  0.54515  1.0000
  S   S128      1.0  0.11662  0.84647  0.53744  1.0000
  S   S129      1.0  0.16588  0.89929  0.56461  1.0000
  S   S130      1.0  0.12138  0.89113  0.56162  1.0000
  P   P27       1.0  0.03663  0.53604  0.32564  1.0000
  S   S131      1.0  0.10328  0.54990  0.62783  1.0000
  Fe  Fe59      1.0  0.02952  0.55986  0.63019  1.0000
  C   C864      1.0  0.13713  0.96831  0.49839  1.0000
  S   S132      1.0  0.01524  0.58242  0.60604  1.0000
  C   C865      1.0  0.99893  0.63186  0.52833  1.0000
  S   S133      1.0  0.00835  0.77213  0.33773  1.0000
  S   S134      1.0  0.05418  0.53595  0.61931  1.0000
  Fe  Fe60      1.0  0.03449  0.60955  0.44956  1.0000
  S   S135      1.0  0.01780  0.62528  0.42441  1.0000
  Fe  Fe61      1.0  0.07497  0.60491  0.42227  1.0000
  S   S136      1.0  0.06152  0.61981  0.39457  1.0000
  S   S137      1.0  0.10759  0.59065  0.42259  1.0000
  Fe  Fe62      1.0  0.04403  0.64194  0.41453  1.0000
  S   S138      1.0  0.03828  0.67576  0.40519  1.0000
  Fe  Fe63      1.0  0.03629  0.60186  0.40682  1.0000
  S   S139      1.0  0.02428  0.58097  0.39146  1.0000
  S   S140      1.0  0.05902  0.62805  0.44128  1.0000
  S   S141      1.0  0.05150  0.58508  0.43284  1.0000
  Fe  Fe64      1.0  0.05177  0.79717  0.42476  1.0000
  S   S142      1.0  0.08496  0.78774  0.42416  1.0000
  S   S143      1.0  0.03850  0.81498  0.39758  1.0000
  Fe  Fe65      1.0  0.04251  0.77662  0.46796  1.0000
  S   S144      1.0  0.07489  0.76528  0.47064  1.0000
  S   S145      1.0  0.01729  0.76450  0.48977  1.0000
  Fe  Fe66      1.0  0.07980  0.79641  0.45512  1.0000
  S   S146      1.0  0.10312  0.81376  0.46054  1.0000
  Fe  Fe67      1.0  0.07714  0.75772  0.43983  1.0000
  S   S147      1.0  0.09236  0.72728  0.43206  1.0000
  S   S148      1.0  0.04685  0.80831  0.45433  1.0000
  S   S149      1.0  0.04453  0.76685  0.43850  1.0000
  H   H710      1.0  0.01342  0.67187  0.49509  1.0000
  H   H711      1.0  0.05014  0.63261  0.35082  1.0000
  H   H712      1.0  0.10375  0.72714  0.38104  1.0000
  H   H713      1.0  0.15580  0.88029  0.32945  1.0000
  H   H714      1.0  0.00395  0.55012  0.38673  1.0000
  C   C866      1.0  0.05355  0.68984  0.41263  1.0000
  C   C867      1.0  0.04876  0.71086  0.40950  1.0000
  C   C868      1.0  0.06058  0.72246  0.41531  1.0000
  C   C869      1.0  0.07737  0.71314  0.42425  1.0000
  C   C870      1.0  0.08250  0.69215  0.42679  1.0000
  C   C871      1.0  0.07049  0.68053  0.42129  1.0000
  H   H715      1.0  0.03591  0.71822  0.40248  1.0000
  H   H716      1.0  0.05699  0.73862  0.41234  1.0000
  H   H717      1.0  0.09571  0.68484  0.43320  1.0000
  H   H718      1.0  0.07462  0.66440  0.42344  1.0000
  H   H719      1.0  0.20561  0.93678  0.39539  1.0000
  H   H720      1.0  0.10587  0.87091  0.44545  1.0000
  C   C872      1.0  0.06474  0.49922  0.42620  1.0000
  C   C873      1.0  0.05542  0.54865  0.33047  1.0000
  C   C874      1.0  0.11335  0.83741  0.51581  1.0000
  C   C875      1.0  0.12689  0.83896  0.49773  1.0000
  C   C876      1.0  0.12365  0.83143  0.48114  1.0000
  C   C877      1.0  0.10679  0.82231  0.48229  1.0000
  C   C878      1.0  0.09332  0.82064  0.50041  1.0000
  C   C879      1.0  0.09664  0.82807  0.51702  1.0000
  H   H721      1.0  0.13974  0.84612  0.49646  1.0000
  H   H722      1.0  0.13418  0.83286  0.46724  1.0000
  H   H723      1.0  0.08032  0.81363  0.50165  1.0000
  H   H724      1.0  0.08610  0.82662  0.53093  1.0000
  C   C880      1.0  0.13369  0.94941  0.50876  1.0000
  S   S150      1.0  0.12095  0.96968  0.44476  1.0000
  H   H725      1.0  0.08758  0.86551  0.61605  1.0000
  C   C881      1.0  0.12563  0.93701  0.49979  1.0000
  H   H726      1.0  0.22200  0.52997  0.50937  1.0000
  C   C882      1.0  0.13322  0.97457  0.47874  1.0000
  H   H727      1.0  0.12266  0.92253  0.50801  1.0000
  H   H728      1.0  0.00652  0.80212  0.42911  1.0000
  C   C883      1.0  0.21889  0.87795  0.57344  1.0000
  H   H729      1.0  0.99908  0.63763  0.46152  1.0000
  H   H730      1.0  0.15855  0.89885  0.35597  1.0000
  H   H731      1.0  0.20349  0.87642  0.57957  1.0000
  H   H732      1.0  0.18819  0.54115  0.50042  1.0000
  C   C884      1.0  0.06717  0.71533  0.31810  1.0000
  C   C885      1.0  0.01679  0.78432  0.35408  1.0000
  C   C886      1.0  0.01938  0.80445  0.34892  1.0000
  C   C887      1.0  0.02572  0.81375  0.36251  1.0000
  C   C888      1.0  0.02991  0.80291  0.38120  1.0000
  C   C889      1.0  0.02747  0.78274  0.38627  1.0000
  C   C890      1.0  0.02088  0.77353  0.37280  1.0000
  H   H733      1.0  0.07038  0.91214  0.55604  1.0000
  H   H734      1.0  0.02767  0.82932  0.35840  1.0000
  H   H735      1.0  0.03075  0.77415  0.40048  1.0000
  H   H736      1.0  0.01912  0.75791  0.37686  1.0000
  C   C891      1.0  0.15895  0.92502  0.62677  1.0000
  C   C892      1.0  0.15388  0.91080  0.61738  1.0000
  C   C893      1.0  0.13961  0.89888  0.62750  1.0000
  H   H737      1.0  0.03064  0.97135  0.38859  1.0000
  C   C894      1.0  0.07536  0.85919  0.32778  1.0000
  H   H738      1.0  0.16131  0.90885  0.60246  1.0000
  C   C895      1.0  0.10416  0.57778  0.55397  1.0000
  C   C896      1.0  0.15012  0.62068  0.44636  1.0000
  C   C897      1.0  0.13195  0.63178  0.44110  1.0000
  C   C898      1.0  0.11877  0.62276  0.43389  1.0000
  C   C899      1.0  0.12392  0.60263  0.43130  1.0000
  C   C900      1.0  0.14240  0.59169  0.43591  1.0000
  C   C901      1.0  0.15536  0.60060  0.44361  1.0000
  H   H739      1.0  0.12790  0.64739  0.44285  1.0000
  H   H740      1.0  0.10465  0.63138  0.43036  1.0000
  H   H741      1.0  0.14665  0.57620  0.43369  1.0000
  H   H742      1.0  0.16947  0.59199  0.44724  1.0000
  C   C902      1.0  0.21675  0.53341  0.40373  1.0000
  C   C903      1.0  0.20785  0.55113  0.41143  1.0000
  C   C904      1.0  0.21561  0.55700  0.42644  1.0000
  H   H743      1.0  0.19491  0.56040  0.40573  1.0000
  H   H744      1.0  0.20862  0.57067  0.43225  1.0000
  C   C905      1.0  0.09206  0.75787  0.38313  1.0000
  H   H745      1.0  0.11972  0.64774  0.39480  1.0000
  C   C906      1.0  0.09596  0.83622  0.63359  1.0000
  C   C907      1.0  0.21624  0.56040  0.54952  1.0000
  H   H746      1.0  0.17588  0.52615  0.36047  1.0000
  H   H747      1.0  0.18439  0.50609  0.44642  1.0000
  C   C908      1.0  0.06436  0.92503  0.58320  1.0000
  H   H748      1.0  0.08533  0.65382  0.38679  1.0000
  C   C909      1.0  0.12267  0.52959  0.63256  1.0000
  C   C910      1.0  0.11442  0.66146  0.38517  1.0000
  C   C911      1.0  0.07340  0.92353  0.56337  1.0000
  C   C912      1.0  0.11606  0.50750  0.33816  1.0000
  H   H749      1.0  0.22540  0.81593  0.48274  1.0000
  C   C913      1.0  0.06602  0.56762  0.35167  1.0000
  C   C914      1.0  0.08659  0.93654  0.55307  1.0000
  C   C915      1.0  0.06839  0.71870  0.33729  1.0000
  C   C916      1.0  0.00284  0.65372  0.34278  1.0000
  H   H750      1.0  0.00817  0.48765  0.39882  1.0000
  H   H751      1.0  0.17264  0.97097  0.57324  1.0000
  H   H752      1.0  0.04153  0.96501  0.33268  1.0000
  H   H753      1.0  0.10282  0.85514  0.58341  1.0000
  C   C917      1.0  0.20690  0.94870  0.52598  1.0000
  H   H754      1.0  0.12568  0.82430  0.35501  1.0000
  H   H755      1.0  0.17440  0.50605  0.58765  1.0000
  C   C918      1.0  0.00175  0.63744  0.59064  1.0000
  H   H756      1.0  0.05869  0.91589  0.64267  1.0000
  C   C919      1.0  0.06026  0.87083  0.33932  1.0000
  P   P28       1.0  0.09204  0.71988  0.34402  1.0000
  C   C920      1.0  0.10768  0.49629  0.35610  1.0000
  H   H757      1.0  0.00308  0.61568  0.53171  1.0000
  C   C921      1.0  0.02025  0.65176  0.55919  1.0000
  C   C922      1.0  0.11552  0.97027  0.58909  1.0000
  H   H758      1.0  0.23629  0.55565  0.52205  1.0000
  C   C923      1.0  0.12701  0.80905  0.35236  1.0000
  C   C924      1.0  0.22492  0.94821  0.62496  1.0000
  C   C925      1.0  0.01416  0.72791  0.53297  1.0000
  C   C926      1.0  0.99593  0.73614  0.45819  1.0000
  H   H759      1.0  0.16308  0.55598  0.37714  1.0000
  H   H760      1.0  0.09383  0.93528  0.53777  1.0000
  H   H761      1.0  0.02240  0.62001  0.57033  1.0000
  H   H762      1.0  0.10107  0.97451  0.40909  1.0000
  H   H763      1.0  0.16335  0.51790  0.50941  1.0000
  C   C927      1.0  0.23777  0.84264  0.46907  1.0000
  C   C928      1.0  0.23860  0.82661  0.50382  1.0000
  C   C929      1.0  0.08171  0.83565  0.35788  1.0000
  H   H764      1.0  0.05558  0.92912  0.32316  1.0000
  C   C930      1.0  0.19613  0.94064  0.54418  1.0000
  H   H765      1.0  0.02205  0.54513  0.58736  1.0000
  C   C931      1.0  0.08340  0.49376  0.41455  1.0000
  C   C932      1.0  0.20571  0.93298  0.56088  1.0000
  C   C933      1.0  0.99637  0.70346  0.44996  1.0000
  H   H766      1.0  0.99875  0.75147  0.45368  1.0000
  C   C934      1.0  0.03403  0.49743  0.37912  1.0000
  C   C935      1.0  0.00215  0.58232  0.38120  1.0000
  C   C936      1.0  0.99539  0.81275  0.51756  1.0000
  C   C937      1.0  0.08428  0.96287  0.62211  1.0000
  C   C938      1.0  0.19766  0.89088  0.63993  1.0000
  C   C939      1.0  0.08780  0.74162  0.35631  1.0000
  H   H767      1.0  0.99477  0.60089  0.57291  1.0000
  C   C940      1.0  0.01072  0.57309  0.32169  1.0000
  C   C941      1.0  0.08623  0.84143  0.33692  1.0000
  C   C942      1.0  0.09006  0.94275  0.63068  1.0000
  H   H768      1.0  0.08885  0.82160  0.36547  1.0000
  H   H769      1.0  0.19260  0.95331  0.63208  1.0000
  H   H770      1.0  0.13720  0.51048  0.59435  1.0000
  C   C943      1.0  0.00447  0.66365  0.50749  1.0000
  H   H771      1.0  0.01776  0.51702  0.61579  1.0000
  H   H772      1.0  0.23356  0.84305  0.45462  1.0000
  H   H773      1.0  0.17589  0.94053  0.49060  1.0000
  C   C944      1.0  0.11028  0.72312  0.32129  1.0000
  C   C945      1.0  0.15309  0.54569  0.37700  1.0000
  C   C946      1.0  0.16033  0.52885  0.36761  1.0000
  C   C947      1.0  0.14780  0.51506  0.36810  1.0000
  H   H774      1.0  0.00806  0.74080  0.56010  1.0000
  C   C948      1.0  0.04093  0.50955  0.36127  1.0000
  C   C949      1.0  0.99607  0.54243  0.57570  1.0000
  H   H775      1.0  0.20469  0.51654  0.46731  1.0000
  C   C950      1.0  0.13310  0.96138  0.35235  1.0000
  C   C951      1.0  0.06717  0.84779  0.36942  1.0000
  C   C952      1.0  0.05616  0.86513  0.36013  1.0000
  C   C953      1.0  0.03091  0.72057  0.32637  1.0000
  H   H776      1.0  0.15387  0.50176  0.36129  1.0000
  H   H777      1.0  0.07874  0.52993  0.37333  1.0000
  P   P29       1.0  0.08891  0.97012  0.59510  1.0000
  C   C954      1.0  0.99097  0.51119  0.60803  1.0000
  S   S151      1.0  0.22642  0.49922  0.63550  1.0000
  H   H778      1.0  0.12618  0.51760  0.33823  1.0000
  H   H779      1.0  0.02124  0.92565  0.34047  1.0000
  H   H780      1.0  0.13726  0.94689  0.36127  1.0000
  H   H781      1.0  0.19908  0.95434  0.51332  1.0000
  C   C955      1.0  0.11540  0.81104  0.61394  1.0000
  C   C956      1.0  0.14526  0.55798  0.48317  1.0000
  C   C957      1.0  0.14541  0.56344  0.50166  1.0000
  C   C958      1.0  0.12883  0.56216  0.51714  1.0000
  C   C959      1.0  0.14077  0.59183  0.53664  1.0000
  C   C960      1.0  0.14865  0.59624  0.55226  1.0000
  C   C961      1.0  0.15774  0.61327  0.54925  1.0000
  C   C962      1.0  0.15911  0.62591  0.53062  1.0000
  C   C963      1.0  0.15093  0.62182  0.51514  1.0000
  C   C964      1.0  0.14150  0.60505  0.51823  1.0000
  C   C965      1.0  0.08138  0.58238  0.58516  1.0000
  C   C966      1.0  0.10060  0.57625  0.57501  1.0000
  H   H782      1.0  0.15833  0.56905  0.50372  1.0000
  H   H783      1.0  0.14826  0.58627  0.56660  1.0000
  H   H784      1.0  0.16456  0.61612  0.56108  1.0000
  H   H785      1.0  0.16692  0.63858  0.52803  1.0000
  H   H786      1.0  0.15227  0.63142  0.50055  1.0000
  H   H787      1.0  0.13521  0.60232  0.50604  1.0000
  H   H788      1.0  0.07861  0.58053  0.60145  1.0000
  H   H789      1.0  0.11258  0.57022  0.58371  1.0000
  P   P30       1.0  0.10453  0.82558  0.32157  1.0000
  H   H790      1.0  0.02264  0.63509  0.50302  1.0000
  H   H791      1.0  0.14171  0.67334  0.38146  1.0000
  H   H792      1.0  0.17013  0.93402  0.61880  1.0000
  C   C967      1.0  0.23079  0.60435  0.55696  1.0000
  C   C968      1.0  0.18341  0.49343  0.52351  1.0000
  H   H793      1.0  0.00592  0.72850  0.42851  1.0000
  C   C969      1.0  0.23256  0.54532  0.43363  1.0000
  C   C970      1.0  0.09510  0.66481  0.38052  1.0000
  H   H794      1.0  0.19158  0.52769  0.55897  1.0000
  C   C971      1.0  0.12682  0.67590  0.37759  1.0000
  H   H795      1.0  0.22481  0.88501  0.60058  1.0000
  C   C972      1.0  0.11269  0.54829  0.49588  1.0000
  H   H796      1.0  0.21999  0.90803  0.62269  1.0000
  H   H797      1.0  0.19748  0.92630  0.57489  1.0000
  P   P31       1.0  0.11278  0.49877  0.38021  1.0000
  H   H798      1.0  0.06228  0.82040  0.32533  1.0000
  C   C973      1.0  0.00676  0.52133  0.35549  1.0000
  C   C974      1.0  0.03640  0.64343  0.35075  1.0000
  C   C975      1.0  0.07441  0.54794  0.31835  1.0000
  C   C976      1.0  0.11827  0.51058  0.64148  1.0000
  C   C977      1.0  0.12782  0.51809  0.37782  1.0000
  H   H799      1.0  0.20096  0.87244  0.47331  1.0000
  H   H800      1.0  0.11503  0.93400  0.47318  1.0000
  C   C978      1.0  0.06703  0.60960  0.49692  1.0000
  C   C979      1.0  0.08402  0.59924  0.48631  1.0000
  C   C980      1.0  0.10205  0.60670  0.48204  1.0000
  C   C981      1.0  0.10293  0.62500  0.48746  1.0000
  C   C982      1.0  0.08577  0.63577  0.49760  1.0000
  C   C983      1.0  0.06798  0.62765  0.50281  1.0000
  P   P32       1.0  0.08625  0.65953  0.50468  1.0000
  C   C984      1.0  0.08097  0.65565  0.53181  1.0000
  C   C985      1.0  0.11046  0.66712  0.49579  1.0000
  C   C986      1.0  0.12280  0.66883  0.50915  1.0000
  C   C987      1.0  0.14149  0.67480  0.50172  1.0000
  C   C988      1.0  0.14793  0.67907  0.48099  1.0000
  C   C989      1.0  0.13552  0.67785  0.46767  1.0000
  C   C990      1.0  0.11681  0.67204  0.47503  1.0000
  C   C991      1.0  0.06651  0.66897  0.54230  1.0000
  C   C992      1.0  0.06282  0.66549  0.56335  1.0000
  C   C993      1.0  0.07333  0.64861  0.57402  1.0000
  C   C994      1.0  0.08771  0.63529  0.56367  1.0000
  C   C995      1.0  0.09150  0.63876  0.54267  1.0000
  C   C996      1.0  0.06889  0.67939  0.49276  1.0000
  C   C997      1.0  0.05815  0.67578  0.47881  1.0000
  C   C998      1.0  0.04615  0.69167  0.46846  1.0000
  C   C999      1.0  0.04500  0.71128  0.47169  1.0000
  C   C1000     1.0  0.05565  0.71502  0.48544  1.0000
  C   C1001     1.0  0.06774  0.69921  0.49575  1.0000
  H   H801      1.0  0.05310  0.60367  0.50039  1.0000
  H   H802      1.0  0.08320  0.58550  0.48132  1.0000
  H   H803      1.0  0.11530  0.59848  0.47410  1.0000
  H   H804      1.0  0.11701  0.63063  0.48358  1.0000
  H   H805      1.0  0.05477  0.63553  0.51108  1.0000
  H   H806      1.0  0.11820  0.66555  0.52524  1.0000
  H   H807      1.0  0.15110  0.67594  0.51199  1.0000
  H   H808      1.0  0.16260  0.68321  0.47518  1.0000
  H   H809      1.0  0.14054  0.68107  0.45158  1.0000
  H   H810      1.0  0.10736  0.67118  0.46450  1.0000
  H   H811      1.0  0.05794  0.68194  0.53441  1.0000
  H   H812      1.0  0.05169  0.67582  0.57142  1.0000
  H   H813      1.0  0.07036  0.64585  0.59032  1.0000
  H   H814      1.0  0.09593  0.62223  0.57192  1.0000
  H   H815      1.0  0.10275  0.62831  0.53487  1.0000
  H   H816      1.0  0.05957  0.66095  0.47515  1.0000
  H   H817      1.0  0.03841  0.68891  0.45727  1.0000
  H   H818      1.0  0.03632  0.72370  0.46316  1.0000
  H   H819      1.0  0.05485  0.73029  0.48770  1.0000
  H   H820      1.0  0.07664  0.70255  0.50562  1.0000
  H   H821      1.0  0.07289  0.68499  0.36541  1.0000
  C   C1002     1.0  0.08904  0.55702  0.32289  1.0000
  H   H822      1.0  0.99958  0.69344  0.43894  1.0000
  H   H823      1.0  0.21236  0.84363  0.40771  1.0000
  H   H824      1.0  0.02046  0.80444  0.49488  1.0000
  C   C1003     1.0  0.13903  0.77351  0.36152  1.0000
  C   C1004     1.0  0.99089  0.80681  0.43508  1.0000
  H   H825      1.0  0.09118  0.58932  0.52697  1.0000
  C   C1005     1.0  0.14276  0.53244  0.62735  1.0000
  C   C1006     1.0  0.12440  0.87918  0.33966  1.0000
  C   C1007     1.0  0.14283  0.88412  0.34060  1.0000
  C   C1008     1.0  0.14438  0.89459  0.35554  1.0000
  C   C1009     1.0  0.12739  0.90058  0.36924  1.0000
  C   C1010     1.0  0.10868  0.89621  0.36796  1.0000
  C   C1011     1.0  0.10747  0.88491  0.35347  1.0000
  P   P33       1.0  0.08635  0.90517  0.38457  1.0000
  C   C1012     1.0  0.08073  0.88575  0.40575  1.0000
  C   C1013     1.0  0.09043  0.92720  0.39270  1.0000
  C   C1014     1.0  0.09569  0.92595  0.41169  1.0000
  C   C1015     1.0  0.09902  0.94306  0.41770  1.0000
  C   C1016     1.0  0.09777  0.96142  0.40463  1.0000
  C   C1017     1.0  0.09306  0.96267  0.38553  1.0000
  C   C1018     1.0  0.08953  0.94561  0.37953  1.0000
  C   C1019     1.0  0.06771  0.89071  0.42320  1.0000
  C   C1020     1.0  0.06317  0.87572  0.43951  1.0000
  C   C1021     1.0  0.07153  0.85568  0.43852  1.0000
  C   C1022     1.0  0.08440  0.85058  0.42123  1.0000
  C   C1023     1.0  0.08899  0.86552  0.40487  1.0000
  C   C1024     1.0  0.06546  0.91268  0.37086  1.0000
  C   C1025     1.0  0.04579  0.91114  0.38072  1.0000
  C   C1026     1.0  0.02984  0.91604  0.36986  1.0000
  C   C1027     1.0  0.03340  0.92242  0.34909  1.0000
  C   C1028     1.0  0.05281  0.92436  0.33929  1.0000
  C   C1029     1.0  0.06873  0.91984  0.35009  1.0000
  C   C1030     1.0  0.15384  0.49758  0.64101  1.0000
  H   H826      1.0  0.12880  0.90927  0.38024  1.0000
  H   H827      1.0  0.09329  0.88120  0.35232  1.0000
  H   H828      1.0  0.09762  0.91178  0.42178  1.0000
  H   H829      1.0  0.10304  0.94200  0.43238  1.0000
  C   C1031     1.0  0.13715  0.79327  0.36468  1.0000
  H   H830      1.0  0.08691  0.94665  0.36432  1.0000
  H   H831      1.0  0.06106  0.90617  0.42421  1.0000
  H   H832      1.0  0.05324  0.87956  0.45299  1.0000
  H   H833      1.0  0.06823  0.84406  0.45127  1.0000
  H   H834      1.0  0.09094  0.83498  0.42066  1.0000
  H   H835      1.0  0.09897  0.86116  0.39166  1.0000
  H   H836      1.0  0.04266  0.90578  0.39666  1.0000
  H   H837      1.0  0.01480  0.91438  0.37748  1.0000
  H   H838      1.0  0.99614  0.61448  0.37327  1.0000
  H   H839      1.0  0.99798  0.55472  0.56333  1.0000
  H   H840      1.0  0.08363  0.92161  0.34205  1.0000
  C   C1032     1.0  0.10419  0.88121  0.47340  1.0000
  C   C1033     1.0  0.11444  0.88865  0.48518  1.0000
  C   C1034     1.0  0.13396  0.89240  0.47778  1.0000
  C   C1035     1.0  0.14331  0.88891  0.45846  1.0000
  P   P34       1.0  0.16903  0.89212  0.44915  1.0000
  C   C1036     1.0  0.18194  0.86763  0.44425  1.0000
  C   C1037     1.0  0.19385  0.86494  0.42561  1.0000
  C   C1038     1.0  0.20328  0.84567  0.42216  1.0000
  C   C1039     1.0  0.20073  0.82901  0.43719  1.0000
  C   C1040     1.0  0.18879  0.83157  0.45572  1.0000
  C   C1041     1.0  0.17941  0.85078  0.45923  1.0000
  H   H841      1.0  0.22646  0.62218  0.52823  1.0000
  C   C1042     1.0  0.18959  0.91702  0.41858  1.0000
  H   H842      1.0  0.08940  0.87750  0.47950  1.0000
  H   H843      1.0  0.10752  0.89082  0.50035  1.0000
  H   H844      1.0  0.14177  0.89770  0.48730  1.0000
  H   H845      1.0  0.19570  0.87754  0.41363  1.0000
  H   H846      1.0  0.08538  0.88636  0.64668  1.0000
  H   H847      1.0  0.20783  0.81407  0.43441  1.0000
  H   H848      1.0  0.18655  0.81867  0.46733  1.0000
  H   H849      1.0  0.17012  0.85253  0.47365  1.0000
  H   H850      1.0  0.20288  0.90972  0.42492  1.0000
  C   C1043     1.0  0.00966  0.53704  0.58925  1.0000
  C   C1044     1.0  0.02734  0.52156  0.34930  1.0000
  C   C1045     1.0  0.12502  0.96249  0.33490  1.0000
  H   H851      1.0  0.23140  0.49593  0.52740  1.0000
  H   H852      1.0  0.01570  0.71498  0.50673  1.0000
  C   C1046     1.0  0.99992  0.72323  0.44404  1.0000
  H   H853      1.0  0.14667  0.76126  0.37124  1.0000
  C   C1047     1.0  0.11828  0.80515  0.33701  1.0000
  H   H854      1.0  0.99598  0.53020  0.34645  1.0000
  C   C1048     1.0  0.00056  0.67117  0.35127  1.0000
  P   P35       1.0  0.12899  0.56987  0.54076  1.0000
  C   C1049     1.0  0.21119  0.51977  0.51353  1.0000
  C   C1050     1.0  0.08484  0.56687  0.33953  1.0000
  C   C1051     1.0  0.22106  0.82057  0.56136  1.0000
  C   C1052     1.0  0.13555  0.97893  0.35847  1.0000
  C   C1053     1.0  0.22337  0.53591  0.57916  1.0000
  H   H855      1.0  0.02845  0.73304  0.52772  1.0000
  C   C1054     1.0  0.20600  0.80623  0.52522  1.0000
  C   C1055     1.0  0.19901  0.78802  0.52708  1.0000
  C   C1056     1.0  0.17865  0.78799  0.52747  1.0000
  C   C1057     1.0  0.16516  0.80607  0.52602  1.0000
  C   C1058     1.0  0.17203  0.82421  0.52404  1.0000
  C   C1059     1.0  0.19235  0.82434  0.52353  1.0000
  S   S152      1.0  0.12111  0.94018  0.32848  1.0000
  C   C1060     1.0  0.99058  0.58269  0.60228  1.0000
  H   H856      1.0  0.12375  0.69164  0.32390  1.0000
  C   C1061     1.0  0.08808  0.68262  0.36836  1.0000
  C   C1062     1.0  0.22933  0.49233  0.46286  1.0000
  C   C1063     1.0  0.12048  0.78525  0.33380  1.0000
  C   C1064     1.0  0.12880  0.95269  0.58523  1.0000
  H   H857      1.0  0.13220  0.75419  0.34363  1.0000
  H   H858      1.0  0.20582  0.82402  0.55845  1.0000
  H   H859      1.0  0.22948  0.92575  0.44558  1.0000
  H   H860      1.0  0.04424  0.87389  0.36906  1.0000
  H   H861      1.0  0.20914  0.77384  0.52820  1.0000
  H   H862      1.0  0.17327  0.77392  0.52898  1.0000
  H   H863      1.0  0.14933  0.80606  0.52655  1.0000
  H   H864      1.0  0.16150  0.83818  0.52314  1.0000
  H   H865      1.0  0.19738  0.83858  0.52208  1.0000
  C   C1065     1.0  0.08075  0.77568  0.37500  1.0000
  C   C1066     1.0  0.12557  0.96210  0.46950  1.0000
  H   H866      1.0  0.07766  0.78871  0.38239  1.0000
  H   H867      1.0  0.09792  0.75707  0.39680  1.0000
  H   H868      1.0  0.14342  0.79632  0.37681  1.0000
  S   S153      1.0  0.20695  0.52694  0.38439  1.0000
  C   C1067     1.0  0.12876  0.55071  0.48016  1.0000
  H   H869      1.0  0.15784  0.55968  0.47106  1.0000
  C   C1068     1.0  0.11347  0.87751  0.45421  1.0000
  C   C1069     1.0  0.17087  0.91142  0.42719  1.0000
  C   C1070     1.0  0.15370  0.92187  0.41933  1.0000
  H   H870      1.0  0.06389  0.84334  0.38558  1.0000
  C   C1071     1.0  0.13296  0.88131  0.44676  1.0000
  C   C1072     1.0  0.21167  0.55322  0.57017  1.0000
  C   C1073     1.0  0.00741  0.79983  0.50488  1.0000
  C   C1074     1.0  0.12132  0.94349  0.48019  1.0000
  H   H871      1.0  0.19888  0.56090  0.57918  1.0000
  H   H872      1.0  0.12845  0.54698  0.46563  1.0000
  C   C1075     1.0  0.19531  0.88736  0.47671  1.0000
  H   H873      1.0  0.21973  0.53044  0.59508  1.0000
  C   C1076     1.0  0.10650  0.81668  0.63256  1.0000
  C   C1077     1.0  0.17993  0.90007  0.46747  1.0000
  C   C1078     1.0  0.13318  0.54891  0.38665  1.0000
  C   C1079     1.0  0.19120  0.93230  0.40188  1.0000
  C   C1080     1.0  0.21328  0.97043  0.47501  1.0000
  H   H874      1.0  0.14014  0.87787  0.43207  1.0000
  H   H875      1.0  0.05163  0.88420  0.33203  1.0000
  H   H876      1.0  0.14318  0.97801  0.50542  1.0000
  C   C1081     1.0  0.05485  0.90100  0.64636  1.0000
  C   C1082     1.0  0.05146  0.55836  0.34731  1.0000
  H   H877      1.0  0.21521  0.88389  0.49807  1.0000
  C   C1083     1.0  0.16567  0.51761  0.57822  1.0000
  H   H878      1.0  0.09715  0.93153  0.62127  1.0000
  H   H879      1.0  0.04465  0.48770  0.38794  1.0000
  C   C1084     1.0  0.19881  0.49724  0.44885  1.0000
  C   C1085     1.0  0.17333  0.91947  0.47222  1.0000
  C   C1086     1.0  0.20356  0.89382  0.49080  1.0000
  H   H880      1.0  0.16183  0.92972  0.46494  1.0000
  H   H881      1.0  0.04594  0.53966  0.39411  1.0000
  C   C1087     1.0  0.06571  0.59070  0.57438  1.0000
  H   H882      1.0  0.06369  0.79015  0.35163  1.0000
  C   C1088     1.0  0.07493  0.52129  0.38808  1.0000
  C   C1089     1.0  0.08851  0.58694  0.54321  1.0000
  C   C1090     1.0  0.17536  0.53006  0.56231  1.0000
  H   H883      1.0  0.12343  0.79593  0.61322  1.0000
  H   H884      1.0  0.01871  0.72719  0.35613  1.0000
  C   C1091     1.0  0.22500  0.82554  0.57879  1.0000
  C   C1092     1.0  0.22933  0.95535  0.47998  1.0000
  H   H885      1.0  0.05420  0.91487  0.59121  1.0000
  C   C1093     1.0  0.19638  0.91281  0.49604  1.0000
  C   C1094     1.0  0.06931  0.59319  0.55339  1.0000
  C   C1095     1.0  0.07287  0.77651  0.35763  1.0000
  H   H886      1.0  0.03714  0.55863  0.35721  1.0000
  C   C1096     1.0  0.00266  0.73233  0.55117  1.0000
  C   C1097     1.0  0.07612  0.75954  0.34845  1.0000
  C   C1098     1.0  0.01350  0.49742  0.38527  1.0000
  C   C1099     1.0  0.12057  0.53516  0.38712  1.0000
  H   H887      1.0  0.12768  0.56186  0.39418  1.0000
  H   H888      1.0  0.05719  0.59987  0.54504  1.0000
  H   H889      1.0  0.05083  0.59526  0.58237  1.0000
  C   C1100     1.0  0.99987  0.50948  0.37352  1.0000
  Fe  Fe68      1.0  0.04161  0.51548  0.64647  1.0000
  Fe  Fe69      1.0  0.21400  0.49542  0.37668  1.0000
  H   H890      1.0  0.10545  0.53774  0.39526  1.0000
  C   C1101     1.0  0.13060  0.90123  0.64725  1.0000
  C   C1102     1.0  0.09499  0.85017  0.61575  1.0000
  C   C1103     1.0  0.19208  0.52610  0.50842  1.0000
  C   C1104     1.0  0.05076  0.72242  0.35109  1.0000
  C   C1105     1.0  0.18137  0.92571  0.48665  1.0000
  C   C1106     1.0  0.17413  0.94221  0.39380  1.0000
  H   H891      1.0  0.06916  0.76039  0.33543  1.0000
  H   H892      1.0  0.09621  0.57380  0.34314  1.0000
  H   H893      1.0  0.17534  0.95423  0.38101  1.0000
  H   H894      1.0  0.01471  0.64259  0.62851  1.0000
  C   C1107     1.0  0.23270  0.55032  0.53795  1.0000
  C   C1108     1.0  0.01127  0.67100  0.56288  1.0000
  H   H895      1.0  0.04439  0.49197  0.32795  1.0000
  H   H896      1.0  0.12340  0.93874  0.58618  1.0000
  C   C1109     1.0  0.15538  0.93712  0.40264  1.0000
  H   H897      1.0  0.20240  0.91739  0.50748  1.0000
  H   H898      1.0  0.13894  0.91876  0.42628  1.0000
  C   C1110     1.0  0.11283  0.55372  0.51442  1.0000
  C   C1111     1.0  0.04509  0.97998  0.33004  1.0000
  C   C1112     1.0  0.17816  0.51297  0.51346  1.0000
  H   H899      1.0  0.05135  0.72516  0.36593  1.0000
  H   H900      1.0  0.12076  0.82061  0.58175  1.0000
  C   C1113     1.0  0.99756  0.67351  0.58049  1.0000
  H   H901      1.0  0.10156  0.96055  0.55451  1.0000
  C   C1114     1.0  0.02068  0.63989  0.34259  1.0000
  C   C1115     1.0  0.14475  0.52015  0.58200  1.0000
  C   C1116     1.0  0.08867  0.50492  0.39547  1.0000
  C   C1117     1.0  0.05637  0.52680  0.39979  1.0000
  H   H902      1.0  0.11732  0.53709  0.57345  1.0000
  H   H903      1.0  0.09295  0.97671  0.37506  1.0000
  H   H904      1.0  0.10036  0.55153  0.52649  1.0000
  C   C1118     1.0  0.09104  0.95081  0.56266  1.0000
  C   C1119     1.0  0.00715  0.52136  0.60536  1.0000
  H   H905      1.0  0.01504  0.68774  0.36639  1.0000
  H   H906      1.0  0.04640  0.66346  0.36562  1.0000
  H   H907      1.0  0.20166  0.95308  0.43654  1.0000
  H   H908      1.0  0.13351  0.48991  0.41467  1.0000
  C   C1120     1.0  0.00260  0.78094  0.50538  1.0000
  C   C1121     1.0  0.15004  0.92728  0.64653  1.0000
  C   C1122     1.0  0.21643  0.50034  0.52380  1.0000
  H   H909      1.0  0.01890  0.57796  0.33118  1.0000
  H   H910      1.0  0.14626  0.54706  0.62017  1.0000
  C   C1123     1.0  0.03215  0.72341  0.34561  1.0000
  H   H911      1.0  0.17198  0.55571  0.53906  1.0000
  H   H912      1.0  0.05687  0.50923  0.35653  1.0000
  C   C1124     1.0  0.20921  0.95342  0.44884  1.0000
  C   C1125     1.0  0.13350  0.53555  0.57030  1.0000
  H   H913      1.0  0.21288  0.83276  0.58892  1.0000
  H   H914      1.0  0.01639  0.81289  0.33450  1.0000
  H   H915      1.0  0.03075  0.64982  0.54549  1.0000
  C   C1126     1.0  0.09550  0.74084  0.37395  1.0000
  C   C1127     1.0  0.22687  0.87461  0.55384  1.0000
  H   H916      1.0  0.14206  0.94541  0.39689  1.0000
  H   H917      1.0  0.06142  0.94043  0.60809  1.0000
  H   H918      1.0  0.17380  0.51881  0.62794  1.0000
  C   C1128     1.0  0.05129  0.51581  0.41886  1.0000
  C   C1129     1.0  0.06868  0.93940  0.59280  1.0000
  C   C1130     1.0  0.20328  0.96942  0.45955  1.0000
  C   C1131     1.0  0.14315  0.54902  0.55519  1.0000
  C   C1132     1.0  0.11395  0.82489  0.59624  1.0000
  C   C1133     1.0  0.22607  0.93360  0.55939  1.0000
  C   C1134     1.0  0.21020  0.50304  0.46071  1.0000
  C   C1135     1.0  0.23353  0.52162  0.41113  1.0000
  C   C1136     1.0  0.01642  0.67462  0.35945  1.0000
  C   C1137     1.0  0.03429  0.66082  0.35908  1.0000
  C   C1138     1.0  0.11997  0.69362  0.36520  1.0000
  H   H919      1.0  0.18040  0.94001  0.54508  1.0000
  C   C1139     1.0  0.99579  0.56432  0.38044  1.0000
  H   H920      1.0  0.21556  0.60905  0.56409  1.0000
  H   H921      1.0  0.03694  0.52024  0.42795  1.0000
  C   C1140     1.0  0.10378  0.84443  0.59717  1.0000
  H   H922      1.0  0.15931  0.93945  0.57649  1.0000
  C   C1141     1.0  0.23687  0.61163  0.53668  1.0000
  C   C1142     1.0  0.20554  0.95625  0.62088  1.0000
  C   C1143     1.0  0.11160  0.50555  0.31973  1.0000
  C   C1144     1.0  0.16418  0.54585  0.55097  1.0000
  H   H923      1.0  0.10003  0.54237  0.49361  1.0000
  C   C1145     1.0  0.01008  0.64285  0.51226  1.0000
  C   C1146     1.0  0.01554  0.63499  0.57312  1.0000
  H   H924      1.0  0.06046  0.97465  0.35537  1.0000
  C   C1147     1.0  0.08245  0.95207  0.58273  1.0000
  C   C1148     1.0  0.14931  0.95301  0.57973  1.0000
  H   H925      1.0  0.01494  0.68400  0.55209  1.0000
  Fe  Fe70      1.0  0.07168  0.54392  0.63988  1.0000
  C   C1149     1.0  0.00673  0.71791  0.52093  1.0000
  C   C1150     1.0  0.15679  0.97074  0.57820  1.0000
  C   C1151     1.0  0.23495  0.93904  0.46945  1.0000
  C   C1152     1.0  0.22496  0.93816  0.45387  1.0000
  C   C1153     1.0  0.11968  0.98126  0.32338  1.0000
  C   C1154     1.0  0.15836  0.51646  0.63164  1.0000
  H   H926      1.0  0.19643  0.88396  0.62748  1.0000
  C   C1155     1.0  0.21084  0.90458  0.63725  1.0000
  H   H927      1.0  0.18765  0.97485  0.59988  1.0000
  C   C1156     1.0  0.20270  0.96828  0.60246  1.0000
  C   C1157     1.0  0.99141  0.60053  0.37293  1.0000
  H   H928      1.0  0.99076  0.65069  0.33648  1.0000
  C   C1158     1.0  0.10054  0.69711  0.36044  1.0000
  C   C1159     1.0  0.23101  0.88278  0.58538  1.0000
  H   H929      1.0  0.12302  0.87160  0.32777  1.0000
  H   H930      1.0  0.02223  0.62626  0.33638  1.0000
  H   H931      1.0  0.06077  0.49070  0.44100  1.0000
  H   H932      1.0  0.12981  0.97885  0.63740  1.0000
  H   H933      1.0  0.99913  0.82734  0.51725  1.0000
  Fe  Fe71      1.0  0.23611  0.62004  0.47487  1.0000
  C   C1160     1.0  0.07650  0.97721  0.63482  1.0000
  Fe  Fe72      1.0  0.22832  0.58046  0.46508  1.0000
  C   C1161     1.0  0.22751  0.94879  0.52416  1.0000
  P   P36       1.0  0.23224  0.80683  0.52432  1.0000
  C   C1162     1.0  0.23318  0.82730  0.48502  1.0000
  H   H934      1.0  0.11395  0.78170  0.32218  1.0000
  H   H935      1.0  0.12872  0.83890  0.64916  1.0000
  C   C1163     1.0  0.13086  0.76953  0.34598  1.0000
  H   H936      1.0  0.99605  0.80228  0.46561  1.0000
  C   C1164     1.0  0.00389  0.63423  0.63849  1.0000
  H   H937      1.0  0.99820  0.62424  0.60119  1.0000
  C   C1165     1.0  0.21919  0.97179  0.58759  1.0000
  C   C1166     1.0  0.23679  0.81212  0.54761  1.0000
  C   C1167     1.0  0.03482  0.89852  0.64915  1.0000
  S   S154      1.0  0.22048  0.48870  0.34499  1.0000
  H   H938      1.0  0.10781  0.80581  0.64617  1.0000
  C   C1168     1.0  0.99526  0.61307  0.48594  1.0000
  C   C1169     1.0  0.05564  0.98548  0.34285  1.0000
  H   H939      1.0  0.23807  0.49806  0.47116  1.0000
  H   H940      1.0  0.10288  0.50816  0.64525  1.0000
  H   H941      1.0  0.14694  0.82947  0.31992  1.0000
  C   C1170     1.0  0.20256  0.48695  0.52891  1.0000
  H   H942      1.0  0.19121  0.98137  0.45546  1.0000
  H   H943      1.0  0.12685  0.58055  0.64349  1.0000
  H   H944      1.0  0.99092  0.68854  0.58302  1.0000
  H   H945      1.0  0.21698  0.98091  0.57318  1.0000
  H   H946      1.0  0.06264  0.81454  0.64907  1.0000
  H   H947      1.0  0.01640  0.72215  0.32193  1.0000
  C   C1171     1.0  0.23694  0.94150  0.54114  1.0000
  C   C1172     1.0  0.99267  0.65671  0.59456  1.0000
  C   C1173     1.0  0.06990  0.88423  0.64884  1.0000
  H   H948      1.0  0.23355  0.92752  0.57230  1.0000
  P   P37       1.0  0.22817  0.93271  0.64898  1.0000
  C   C1174     1.0  0.09880  0.49239  0.31907  1.0000
  C   C1175     1.0  0.13381  0.49464  0.64564  1.0000
  H   H949      1.0  0.99133  0.67237  0.64891  1.0000
  H   H950      1.0  0.02316  0.91152  0.64778  1.0000
  C   C1176     1.0  0.23856  0.96334  0.59125  1.0000
  H   H951      1.0  0.20860  0.98316  0.48290  1.0000
  S   S155      1.0  0.04789  0.56936  0.64920  1.0000
  H   H952      1.0  0.98969  0.60082  0.31982  1.0000
  H   H953      1.0  0.16150  0.56586  0.64933  1.0000
  H   H954      1.0  0.23896  0.76841  0.55090  1.0000
  H   H955      1.0  0.23932  0.58485  0.58350  1.0000
  H   H956      1.0  0.05583  0.98581  0.39995  1.0000
  C   C1177     1.0  0.06488  0.51374  0.90470  1.0000
  C   C1178     1.0  0.03632  0.49342  0.71535  1.0000
  S   S156      1.0  0.08879  0.73742  0.95217  1.0000
  Fe  Fe73      1.0  0.01560  0.68742  0.85742  1.0000
  S   S157      1.0  0.03511  0.70693  0.86431  1.0000
  H   H957      1.0  0.00962  0.85205  0.81969  1.0000
  P   P38       1.0  0.15595  0.94535  0.83179  1.0000
  H   H958      1.0  0.11168  0.50463  0.74760  1.0000
  H   H959      1.0  0.11950  0.89214  0.65518  1.0000
  Fe  Fe74      1.0  0.00919  0.73209  0.85944  1.0000
  S   S158      1.0  0.14714  0.97784  0.69948  1.0000
  Fe  Fe75      1.0  0.01895  0.70091  0.89607  1.0000
  S   S159      1.0  0.03326  0.68895  0.92396  1.0000
  C   C1179     1.0  0.08083  0.68874  0.82467  1.0000
  S   S160      1.0  0.00129  0.67959  0.88937  1.0000
  H   H960      1.0  0.13538  0.93160  0.93332  1.0000
  S   S161      1.0  0.03541  0.88710  0.70261  1.0000
  H   H961      1.0  0.06883  0.98233  0.66567  1.0000
  Fe  Fe76      1.0  0.15032  0.95826  0.72959  1.0000
  H   H962      1.0  0.16926  0.59287  0.96858  1.0000
  S   S162      1.0  0.17601  0.95257  0.74800  1.0000
  Fe  Fe77      1.0  0.11542  0.93705  0.72820  1.0000
  S   S163      1.0  0.10983  0.95490  0.69838  1.0000
  S   S164      1.0  0.09736  0.91314  0.74573  1.0000
  Fe  Fe78      1.0  0.14304  0.95004  0.68935  1.0000
  S   S165      1.0  0.15760  0.94475  0.65794  1.0000
  H   H963      1.0  0.01600  0.75274  0.77417  1.0000
  S   S166      1.0  0.14870  0.93003  0.71828  1.0000
  S   S167      1.0  0.11699  0.96395  0.74154  1.0000
  H   H964      1.0  0.06908  0.51293  0.88879  1.0000
  C   C1180     1.0  0.18186  0.98202  0.89166  1.0000
  Fe  Fe79      1.0  0.03617  0.54591  0.67407  1.0000
  S   S168      1.0  0.02241  0.54965  0.70619  1.0000
  Fe  Fe80      1.0  0.04273  0.54838  0.84915  1.0000
  S   S169      1.0  0.07209  0.53100  0.83614  1.0000
  S   S170      1.0  0.03931  0.57128  0.86970  1.0000
  Fe  Fe81      1.0  0.01832  0.52181  0.83733  1.0000
  S   S171      1.0  0.04535  0.50259  0.82309  1.0000
  C   C1181     1.0  0.20816  0.96806  0.70203  1.0000
  Fe  Fe82      1.0  0.05868  0.50331  0.85016  1.0000
  C   C1182     1.0  0.07141  0.50280  0.93899  1.0000
  Fe  Fe83      1.0  0.05636  0.53159  0.80997  1.0000
  S   S172      1.0  0.07269  0.53441  0.77766  1.0000
  S   S173      1.0  0.03068  0.52051  0.86517  1.0000
  S   S174      1.0  0.02799  0.55113  0.82208  1.0000
  S   S175      1.0  0.02037  0.83555  0.70390  1.0000
  C   C1183     1.0  0.18188  0.89615  0.93556  1.0000
  C   C1184     1.0  0.03674  0.54419  0.72588  1.0000
  C   C1185     1.0  0.05767  0.54192  0.72199  1.0000
  C   C1186     1.0  0.06850  0.53889  0.73798  1.0000
  C   C1187     1.0  0.05859  0.53766  0.75799  1.0000
  C   C1188     1.0  0.03771  0.53927  0.76191  1.0000
  C   C1189     1.0  0.02684  0.54264  0.74591  1.0000
  H   H965      1.0  0.06544  0.54307  0.70663  1.0000
  H   H966      1.0  0.08459  0.53782  0.73483  1.0000
  H   H967      1.0  0.02989  0.53837  0.77725  1.0000
  H   H968      1.0  0.99094  0.58612  0.86568  1.0000
  C   C1190     1.0  0.18806  0.96623  0.76025  1.0000
  C   C1191     1.0  0.11653  0.64916  0.92973  1.0000
  C   C1192     1.0  0.05635  0.71634  0.81232  1.0000
  C   C1193     1.0  0.18083  0.51291  0.71089  1.0000
  C   C1194     1.0  0.21169  0.96540  0.78303  1.0000
  C   C1195     1.0  0.20150  0.95543  0.77311  1.0000
  H   H969      1.0  0.99684  0.66583  0.96325  1.0000
  H   H970      1.0  0.22186  0.95684  0.79293  1.0000
  H   H971      1.0  0.20410  0.93921  0.77536  1.0000
  H   H972      1.0  0.07680  0.94675  0.68024  1.0000
  C   C1196     1.0  0.02983  0.87926  0.65421  1.0000
  H   H973      1.0  0.12888  0.91689  0.67207  1.0000
  C   C1197     1.0  0.05284  0.89326  0.71509  1.0000
  C   C1198     1.0  0.06686  0.90507  0.70381  1.0000
  C   C1199     1.0  0.08058  0.91111  0.71306  1.0000
  C   C1200     1.0  0.08036  0.90548  0.73375  1.0000
  C   C1201     1.0  0.06656  0.89333  0.74503  1.0000
  C   C1202     1.0  0.05280  0.88723  0.73574  1.0000
  H   H974      1.0  0.06722  0.90938  0.68778  1.0000
  H   H975      1.0  0.09159  0.91978  0.70414  1.0000
  H   H976      1.0  0.06640  0.88877  0.76103  1.0000
  H   H977      1.0  0.04207  0.87809  0.74457  1.0000
  C   C1203     1.0  0.01324  0.77118  0.81729  1.0000
  C   C1204     1.0  0.10195  0.63834  0.94146  1.0000
  H   H978      1.0  0.04942  0.51671  0.96154  1.0000
  C   C1205     1.0  0.01678  0.78366  0.77519  1.0000
  C   C1206     1.0  0.01613  0.79753  0.78776  1.0000
  C   C1207     1.0  0.14853  0.93675  0.79630  1.0000
  H   H979      1.0  0.01052  0.71574  0.95631  1.0000
  H   H980      1.0  0.99776  0.62890  0.97052  1.0000
  S   S176      1.0  0.99480  0.72783  0.89212  1.0000
  C   C1208     1.0  0.03101  0.63893  0.84566  1.0000
  C   C1209     1.0  0.03394  0.62513  0.83237  1.0000
  C   C1210     1.0  0.03641  0.60435  0.83955  1.0000
  C   C1211     1.0  0.03625  0.59723  0.86006  1.0000
  C   C1212     1.0  0.03353  0.61099  0.87333  1.0000
  C   C1213     1.0  0.03077  0.63179  0.86620  1.0000
  H   H981      1.0  0.01202  0.74204  0.81129  1.0000
  H   H982      1.0  0.03852  0.59387  0.82920  1.0000
  H   H983      1.0  0.03368  0.60555  0.88916  1.0000
  H   H984      1.0  0.02862  0.64228  0.87653  1.0000
  S   S177      1.0  0.01551  0.53874  0.65579  1.0000
  C   C1214     1.0  0.04806  0.70314  0.93171  1.0000
  C   C1215     1.0  0.05879  0.69415  0.94737  1.0000
  C   C1216     1.0  0.07122  0.70462  0.95365  1.0000
  C   C1217     1.0  0.07280  0.72437  0.94458  1.0000
  C   C1218     1.0  0.06196  0.73352  0.92895  1.0000
  C   C1219     1.0  0.04952  0.72293  0.92256  1.0000
  H   H985      1.0  0.05771  0.67899  0.95464  1.0000
  H   H986      1.0  0.07987  0.69723  0.96526  1.0000
  H   H987      1.0  0.06323  0.74878  0.92178  1.0000
  H   H988      1.0  0.04111  0.73001  0.91059  1.0000
  C   C1220     1.0  0.13560  0.54023  0.69061  1.0000
  H   H989      1.0  0.05885  0.68593  0.80750  1.0000
  C   C1221     1.0  0.04482  0.86247  0.65661  1.0000
  C   C1222     1.0  0.10901  0.49991  0.73439  1.0000
  H   H990      1.0  0.01436  0.80193  0.81827  1.0000
  C   C1223     1.0  0.01807  0.94246  0.71224  1.0000
  H   H991      1.0  0.03336  0.93104  0.68537  1.0000
  C   C1224     1.0  0.14031  0.92674  0.78492  1.0000
  C   C1225     1.0  0.19914  0.96039  0.96900  1.0000
  C   C1226     1.0  0.11605  0.54878  0.68721  1.0000
  H   H992      1.0  0.99544  0.51745  0.72984  1.0000
  C   C1227     1.0  0.00721  0.97862  0.70869  1.0000
  C   C1228     1.0  0.09613  0.86033  0.68623  1.0000
  C   C1229     1.0  0.11003  0.86561  0.69570  1.0000
  C   C1230     1.0  0.13053  0.86120  0.68847  1.0000
  C   C1231     1.0  0.22274  0.91996  0.83409  1.0000
  C   C1232     1.0  0.20812  0.96586  0.66732  1.0000
  C   C1233     1.0  0.07356  0.82247  0.67341  1.0000
  C   C1234     1.0  0.07419  0.81787  0.69416  1.0000
  C   C1235     1.0  0.06484  0.80234  0.70618  1.0000
  C   C1236     1.0  0.05479  0.79129  0.69766  1.0000
  C   C1237     1.0  0.05425  0.79561  0.67704  1.0000
  H   H993      1.0  0.16583  0.50296  0.91879  1.0000
  C   C1238     1.0  0.01543  0.98040  0.68816  1.0000
  H   H994      1.0  0.15043  0.52164  0.78067  1.0000
  H   H995      1.0  0.23866  0.95189  0.88856  1.0000
  C   C1239     1.0  0.99710  0.84461  0.82002  1.0000
  C   C1240     1.0  0.16722  0.48863  0.69872  1.0000
  H   H996      1.0  0.08025  0.86399  0.69192  1.0000
  H   H997      1.0  0.10488  0.87324  0.70860  1.0000
  H   H998      1.0  0.14122  0.86565  0.69562  1.0000
  C   C1241     1.0  0.08699  0.93693  0.65156  1.0000
  H   H999      1.0  0.18666  0.93796  0.96057  1.0000
  H   H1000     1.0  0.99365  0.54917  0.87176  1.0000
  H   H1001     1.0  0.06472  0.79928  0.72229  1.0000
  H   H1002     1.0  0.04695  0.77978  0.70722  1.0000
  H   H1003     1.0  0.03121  0.96468  0.66396  1.0000
  C   C1242     1.0  0.00860  0.95950  0.72067  1.0000
  S   S178      1.0  0.06144  0.52122  0.66630  1.0000
  H   H1004     1.0  0.02157  0.49827  0.77906  1.0000
  H   H1005     1.0  0.19591  0.97862  0.89743  1.0000
  C   C1243     1.0  0.99819  0.57662  0.91426  1.0000
  C   C1244     1.0  0.13483  0.91629  0.82680  1.0000
  H   H1006     1.0  0.08405  0.48614  0.75096  1.0000
  C   C1245     1.0  0.20177  0.97619  0.68365  1.0000
  H   H1007     1.0  0.04394  0.72190  0.80413  1.0000
  P   P39       1.0  0.08764  0.48827  0.95618  1.0000
  C   C1246     1.0  0.18212  0.93535  0.83256  1.0000
  C   C1247     1.0  0.19164  0.94016  0.84682  1.0000
  C   C1248     1.0  0.21183  0.93237  0.84765  1.0000
  C   C1249     1.0  0.21849  0.69579  0.97950  1.0000
  C   C1250     1.0  0.21342  0.91522  0.81976  1.0000
  C   C1251     1.0  0.19316  0.92282  0.81901  1.0000
  H   H1008     1.0  0.21917  0.93605  0.85867  1.0000
  C   C1252     1.0  0.13644  0.53190  0.73432  1.0000
  C   C1253     1.0  0.06496  0.86482  0.65415  1.0000
  H   H1009     1.0  0.17461  0.87675  0.66024  1.0000
  C   C1254     1.0  0.14870  0.92751  0.87213  1.0000
  C   C1255     1.0  0.21190  0.91416  0.65314  1.0000
  C   C1256     1.0  0.10312  0.65365  0.96993  1.0000
  C   C1257     1.0  0.14282  0.52953  0.76832  1.0000
  H   H1010     1.0  0.16722  0.54010  0.67884  1.0000
  C   C1258     1.0  0.14562  0.93184  0.81733  1.0000
  C   C1259     1.0  0.15199  0.54663  0.67691  1.0000
  H   H1011     1.0  0.10315  0.54392  0.69735  1.0000
  C   C1260     1.0  0.19307  0.89244  0.91703  1.0000
  H   H1012     1.0  0.11795  0.89458  0.82269  1.0000
  H   H1013     1.0  0.13261  0.91190  0.84297  1.0000
  C   C1261     1.0  0.11297  0.56344  0.67042  1.0000
  H   H1014     1.0  0.18349  0.95011  0.85716  1.0000
  H   H1015     1.0  0.99450  0.85613  0.78905  1.0000
  C   C1262     1.0  0.02669  0.48640  0.70272  1.0000
  H   H1016     1.0  0.03135  0.97979  0.73569  1.0000
  H   H1017     1.0  0.18631  0.91908  0.80768  1.0000
  C   C1263     1.0  0.22102  0.94727  0.66926  1.0000
  C   C1264     1.0  0.10266  0.85026  0.66962  1.0000
  C   C1265     1.0  0.22104  0.94965  0.70410  1.0000
  C   C1266     1.0  0.14104  0.95892  0.94069  1.0000
  H   H1018     1.0  0.16277  0.91749  0.86910  1.0000
  C   C1267     1.0  0.05387  0.51558  0.94578  1.0000
  H   H1019     1.0  0.01917  0.92770  0.72153  1.0000
  H   H1020     1.0  0.10913  0.93390  0.90993  1.0000
  H   H1021     1.0  0.11473  0.60082  0.96516  1.0000
  H   H1022     1.0  0.11821  0.53095  0.82275  1.0000
  C   C1268     1.0  0.19964  0.90970  0.67181  1.0000
  H   H1023     1.0  0.17897  0.52678  0.71671  1.0000
  S   S179      1.0  0.02714  0.66490  0.83609  1.0000
  H   H1024     1.0  0.99108  0.63989  0.84562  1.0000
  H   H1025     1.0  0.11724  0.96647  0.84985  1.0000
  C   C1269     1.0  0.11511  0.50641  0.80909  1.0000
  C   C1270     1.0  0.13558  0.51615  0.92975  1.0000
  H   H1026     1.0  0.09618  0.62818  0.93475  1.0000
  H   H1027     1.0  0.21304  0.50729  0.70921  1.0000
  C   C1271     1.0  0.13099  0.77356  0.81709  1.0000
  C   C1272     1.0  0.14231  0.76280  0.80228  1.0000
  C   C1273     1.0  0.13744  0.74460  0.80036  1.0000
  C   C1274     1.0  0.12118  0.73717  0.81318  1.0000
  C   C1275     1.0  0.10956  0.74801  0.82795  1.0000
  C   C1276     1.0  0.11472  0.76618  0.82993  1.0000
  P   P40       1.0  0.08855  0.73854  0.84466  1.0000
  C   C1277     1.0  0.06919  0.75963  0.84976  1.0000
  C   C1278     1.0  0.07928  0.72202  0.83251  1.0000
  C   C1279     1.0  0.06339  0.72930  0.82158  1.0000
  C   C1280     1.0  0.11643  0.51243  0.93900  1.0000
  C   C1281     1.0  0.12025  0.50527  0.71536  1.0000
  C   C1282     1.0  0.17669  0.93206  0.92276  1.0000
  C   C1283     1.0  0.08819  0.70170  0.83364  1.0000
  C   C1284     1.0  0.05801  0.75999  0.86913  1.0000
  C   C1285     1.0  0.04347  0.77661  0.87320  1.0000
  C   C1286     1.0  0.03997  0.79297  0.85795  1.0000
  C   C1287     1.0  0.05097  0.79271  0.83860  1.0000
  C   C1288     1.0  0.06544  0.77606  0.83446  1.0000
  C   C1289     1.0  0.09624  0.72566  0.86821  1.0000
  C   C1290     1.0  0.10973  0.73313  0.87652  1.0000
  C   C1291     1.0  0.11430  0.72437  0.89558  1.0000
  C   C1292     1.0  0.10564  0.70797  0.90638  1.0000
  C   C1293     1.0  0.09235  0.70031  0.89820  1.0000
  C   C1294     1.0  0.08735  0.70934  0.87938  1.0000
  H   H1028     1.0  0.13475  0.78768  0.81859  1.0000
  H   H1029     1.0  0.15485  0.76859  0.79227  1.0000
  H   H1030     1.0  0.14620  0.73627  0.78885  1.0000
  H   H1031     1.0  0.11766  0.72309  0.81136  1.0000
  H   H1032     1.0  0.10611  0.77473  0.84133  1.0000
  H   H1033     1.0  0.05606  0.74481  0.82045  1.0000
  C   C1295     1.0  0.16417  0.50622  0.70711  1.0000
  C   C1296     1.0  0.02615  0.94435  0.69180  1.0000
  H   H1034     1.0  0.10296  0.51499  0.80154  1.0000
  H   H1035     1.0  0.10064  0.69578  0.84170  1.0000
  H   H1036     1.0  0.06030  0.74742  0.88110  1.0000
  H   H1037     1.0  0.03460  0.77656  0.88807  1.0000
  H   H1038     1.0  0.02832  0.80556  0.86100  1.0000
  H   H1039     1.0  0.04785  0.80513  0.82665  1.0000
  H   H1040     1.0  0.07350  0.77592  0.81928  1.0000
  H   H1041     1.0  0.11621  0.74614  0.86870  1.0000
  H   H1042     1.0  0.12398  0.73073  0.90235  1.0000
  H   H1043     1.0  0.10847  0.70186  0.92151  1.0000
  H   H1044     1.0  0.08507  0.68805  0.90692  1.0000
  H   H1045     1.0  0.07603  0.70396  0.87398  1.0000
  C   C1297     1.0  0.19609  0.90841  0.90133  1.0000
  C   C1298     1.0  0.15299  0.97159  0.82035  1.0000
  H   H1046     1.0  0.09045  0.49245  0.91270  1.0000
  H   H1047     1.0  0.01426  0.57237  0.91002  1.0000
  C   C1299     1.0  0.99122  0.50903  0.79140  1.0000
  H   H1048     1.0  0.08723  0.67294  0.82616  1.0000
  H   H1049     1.0  0.03408  0.63057  0.81648  1.0000
  H   H1050     1.0  0.02643  0.61393  0.65361  1.0000
  C   C1300     1.0  0.15540  0.79787  0.98172  1.0000
  H   H1051     1.0  0.12164  0.64754  0.91411  1.0000
  C   C1301     1.0  0.23254  0.91323  0.92754  1.0000
  S   S180      1.0  0.01933  0.79082  0.74876  1.0000
  H   H1052     1.0  0.23714  0.92483  0.68980  1.0000
  C   C1302     1.0  0.07406  0.97135  0.65572  1.0000
  C   C1303     1.0  0.14622  0.52174  0.75043  1.0000
  C   C1304     1.0  0.09499  0.64062  0.96164  1.0000
  C   C1305     1.0  0.14736  0.97790  0.89402  1.0000
  C   C1306     1.0  0.04103  0.59921  0.95270  1.0000
  H   H1053     1.0  0.12257  0.90417  0.78549  1.0000
  C   C1307     1.0  0.11900  0.55714  0.75475  1.0000
  H   H1054     1.0  0.11428  0.55737  0.72491  1.0000
  H   H1055     1.0  0.19107  0.94026  0.89202  1.0000
  C   C1308     1.0  0.13266  0.97518  0.95088  1.0000
  H   H1056     1.0  0.04444  0.50585  0.70949  1.0000
  H   H1057     1.0  0.23848  0.91420  0.83463  1.0000
  H   H1058     1.0  0.99954  0.60803  0.91019  1.0000
  H   H1059     1.0  0.10456  0.52497  0.94169  1.0000
  H   H1060     1.0  0.09787  0.56950  0.66751  1.0000
  C   C1309     1.0  0.20170  0.98046  0.96521  1.0000
  C   C1310     1.0  0.18538  0.88671  0.65845  1.0000
  S   S181      1.0  0.01161  0.76396  0.84363  1.0000
  H   H1061     1.0  0.01707  0.81303  0.78134  1.0000
  H   H1062     1.0  0.02757  0.49319  0.68701  1.0000
  S   S182      1.0  0.99084  0.71306  0.85030  1.0000
  H   H1063     1.0  0.03831  0.53560  0.90094  1.0000
  H   H1064     1.0  0.14257  0.93070  0.76867  1.0000
  C   C1311     1.0  0.17373  0.59586  0.98179  1.0000
  H   H1065     1.0  0.03862  0.65549  0.97816  1.0000
  H   H1066     1.0  0.00231  0.95776  0.73653  1.0000
  H   H1067     1.0  0.12379  0.67446  0.96480  1.0000
  C   C1312     1.0  0.12915  0.91167  0.79443  1.0000
  C   C1313     1.0  0.01559  0.76355  0.78378  1.0000
  C   C1314     1.0  0.13706  0.92450  0.89122  1.0000
  C   C1315     1.0  0.20013  0.50197  0.70665  1.0000
  C   C1316     1.0  0.13713  0.85144  0.67177  1.0000
  C   C1317     1.0  0.08043  0.49547  0.98087  1.0000
  H   H1068     1.0  0.12382  0.50406  0.68367  1.0000
  C   C1318     1.0  0.99917  0.48851  0.65875  1.0000
  C   C1319     1.0  0.18797  0.92814  0.90417  1.0000
  H   H1069     1.0  0.13844  0.53144  0.92547  1.0000
  C   C1320     1.0  0.17627  0.61527  0.98276  1.0000
  C   C1321     1.0  0.23069  0.93283  0.91673  1.0000
  Fe  Fe84      1.0  0.11379  0.98150  0.71059  1.0000
  C   C1322     1.0  0.01061  0.61800  0.65267  1.0000
  H   H1070     1.0  0.22182  0.81532  0.93829  1.0000
  C   C1323     1.0  0.13945  0.50438  0.83065  1.0000
  H   H1071     1.0  0.20534  0.90551  0.88720  1.0000
  H   H1072     1.0  0.14241  0.91252  0.90270  1.0000
  C   C1324     1.0  0.11261  0.49263  0.94473  1.0000
  C   C1325     1.0  0.17375  0.91586  0.93845  1.0000
  H   H1073     1.0  0.99000  0.70556  0.65780  1.0000
  C   C1326     1.0  0.02488  0.96330  0.67978  1.0000
  C   C1327     1.0  0.01345  0.75741  0.80477  1.0000
  C   C1328     1.0  0.12652  0.90636  0.81536  1.0000
  P   P41       1.0  0.16616  0.95762  0.92647  1.0000
  H   H1074     1.0  0.04607  0.78732  0.67053  1.0000
  C   C1329     1.0  0.01457  0.79123  0.80868  1.0000
  H   H1075     1.0  0.18184  0.97656  0.82484  1.0000
  C   C1330     1.0  0.18641  0.89606  0.67439  1.0000
  H   H1076     1.0  0.10473  0.49380  0.86209  1.0000
  Fe  Fe85      1.0  0.22314  0.87858  0.97169  1.0000
  H   H1077     1.0  0.19985  0.87720  0.91504  1.0000
  C   C1331     1.0  0.05332  0.60300  0.96499  1.0000
  C   C1332     1.0  0.11145  0.95178  0.88038  1.0000
  H   H1078     1.0  0.19958  0.91719  0.68422  1.0000
  H   H1079     1.0  0.10786  0.57044  0.75671  1.0000
  C   C1333     1.0  0.13580  0.91533  0.65679  1.0000
  C   C1334     1.0  0.16501  0.97381  0.90242  1.0000
  H   H1080     1.0  0.99234  0.54634  0.91885  1.0000
  H   H1081     1.0  0.17643  0.89335  0.68856  1.0000
  H   H1082     1.0  0.08142  0.82642  0.70129  1.0000
  H   H1083     1.0  0.10129  0.93369  0.95291  1.0000
  C   C1335     1.0  0.06364  0.81108  0.66494  1.0000
  C   C1336     1.0  0.12912  0.54718  0.77052  1.0000
  C   C1337     1.0  0.07689  0.50208  0.91832  1.0000
  C   C1338     1.0  0.12933  0.56970  0.65686  1.0000
  H   H1084     1.0  0.12600  0.55296  0.78456  1.0000
  C   C1339     1.0  0.21139  0.77216  0.96891  1.0000
  H   H1085     1.0  0.04043  0.84781  0.66075  1.0000
  Fe  Fe86      1.0  0.09718  0.72542  0.98310  1.0000
  H   H1086     1.0  0.20258  0.97235  0.65346  1.0000
  C   C1340     1.0  0.99697  0.60676  0.66545  1.0000
  S   S183      1.0  0.22870  0.97797  0.84776  1.0000
  H   H1087     1.0  0.09132  0.92140  0.65811  1.0000
  S   S184      1.0  0.22254  0.90969  0.95331  1.0000
  C   C1341     1.0  0.12378  0.51543  0.82095  1.0000
  C   C1342     1.0  0.12946  0.94413  0.94126  1.0000
  Fe  Fe87      1.0  0.00640  0.82232  0.73482  1.0000
  C   C1343     1.0  0.14883  0.56134  0.66013  1.0000
  P   P42       1.0  0.13932  0.52074  0.71203  1.0000
  H   H1088     1.0  0.15050  0.80606  0.96795  1.0000
  H   H1089     1.0  0.19541  0.79398  0.94809  1.0000
  C   C1344     1.0  0.04196  0.52733  0.93208  1.0000
  C   C1345     1.0  0.11773  0.66437  0.95820  1.0000
  C   C1346     1.0  0.12446  0.66212  0.93813  1.0000
  C   C1347     1.0  0.00786  0.71538  0.97245  1.0000
  C   C1348     1.0  0.11003  0.94533  0.95225  1.0000
  H   H1090     1.0  0.12410  0.97202  0.81215  1.0000
  C   C1349     1.0  0.12266  0.54960  0.73670  1.0000
  H   H1091     1.0  0.99458  0.52315  0.79346  1.0000
  C   C1350     1.0  0.06487  0.69606  0.81407  1.0000
  H   H1092     1.0  0.13433  0.97140  0.90173  1.0000
  C   C1351     1.0  0.06003  0.62157  0.96139  1.0000
  H   H1093     1.0  0.15703  0.94848  0.78868  1.0000
  S   S185      1.0  0.00250  0.85102  0.74717  1.0000
  C   C1352     1.0  0.03524  0.61395  0.93683  1.0000
  C   C1353     1.0  0.04160  0.63253  0.93331  1.0000
  C   C1354     1.0  0.05400  0.63629  0.94545  1.0000
  C   C1355     1.0  0.04747  0.52642  0.91157  1.0000
  H   H1094     1.0  0.15297  0.84842  0.66582  1.0000
  C   C1356     1.0  0.18858  0.95352  0.95711  1.0000
  C   C1357     1.0  0.18067  0.96657  0.94111  1.0000
  H   H1095     1.0  0.13574  0.67053  0.92909  1.0000
  C   C1358     1.0  0.10745  0.59365  0.97940  1.0000
  H   H1096     1.0  0.02849  0.53724  0.93731  1.0000
  H   H1097     1.0  0.14599  0.51131  0.84007  1.0000
  H   H1098     1.0  0.03608  0.58480  0.95539  1.0000
  C   C1359     1.0  0.07890  0.95120  0.66405  1.0000
  Fe  Fe88      1.0  0.01409  0.86475  0.71551  1.0000
  C   C1360     1.0  0.14186  0.94281  0.85702  1.0000
  H   H1099     1.0  0.01065  0.54435  0.74906  1.0000
  H   H1100     1.0  0.22195  0.90579  0.80908  1.0000
  H   H1101     1.0  0.02582  0.61105  0.92724  1.0000
  H   H1102     1.0  0.03695  0.64411  0.92114  1.0000
  H   H1103     1.0  0.05894  0.65070  0.94221  1.0000
  H   H1104     1.0  0.04236  0.49073  0.74526  1.0000
  H   H1105     1.0  0.15625  0.50766  0.74931  1.0000
  C   C1361     1.0  0.20912  0.78947  0.95445  1.0000
  C   C1362     1.0  0.22752  0.93931  0.68779  1.0000
  C   C1363     1.0  0.15099  0.50015  0.92598  1.0000
  C   C1364     1.0  0.11838  0.93654  0.89530  1.0000
  H   H1106     1.0  0.99978  0.50409  0.65827  1.0000
  H   H1107     1.0  0.17999  0.88376  0.94788  1.0000
  H   H1108     1.0  0.17358  0.62738  0.97039  1.0000
  H   H1109     1.0  0.10593  0.51018  0.97927  1.0000
  H   H1110     1.0  0.18951  0.68725  0.98192  1.0000
  H   H1111     1.0  0.08688  0.96231  0.97112  1.0000
  H   H1112     1.0  0.22225  0.94513  0.92402  1.0000
  C   C1365     1.0  0.02132  0.72207  0.98132  1.0000
  C   C1366     1.0  0.12311  0.95490  0.86130  1.0000
  H   H1113     1.0  0.22659  0.68336  0.97212  1.0000
  S   S186      1.0  0.17815  0.82766  0.97739  1.0000
  C   C1367     1.0  0.12327  0.84600  0.66235  1.0000
  H   H1114     1.0  0.99621  0.83066  0.85103  1.0000
  H   H1115     1.0  0.16544  0.91837  0.95307  1.0000
  C   C1368     1.0  0.11564  0.49962  0.69851  1.0000
  H   H1116     1.0  0.13101  0.56781  0.98096  1.0000
  S   S187      1.0  0.22849  0.84867  0.96163  1.0000
  H   H1117     1.0  0.09687  0.96099  0.88349  1.0000
  H   H1118     1.0  0.19931  0.76351  0.97330  1.0000
  H   H1119     1.0  0.20997  0.98568  0.97437  1.0000
  P   P43       1.0  0.08449  0.84330  0.65775  1.0000
  C   C1369     1.0  0.22865  0.76675  0.97797  1.0000
  C   C1370     1.0  0.98991  0.63795  0.95879  1.0000
  H   H1120     1.0  0.03438  0.72763  0.97210  1.0000
  C   C1371     1.0  0.00654  0.49475  0.78353  1.0000
  C   C1372     1.0  0.16804  0.98305  0.81916  1.0000
  H   H1121     1.0  0.00226  0.59402  0.67630  1.0000
  C   C1373     1.0  0.13575  0.98060  0.81188  1.0000
  C   C1374     1.0  0.22395  0.80158  0.94902  1.0000
  H   H1122     1.0  0.14953  0.49045  0.97236  1.0000
  H   H1123     1.0  0.20282  0.97582  0.71484  1.0000
  C   C1375     1.0  0.10023  0.48855  0.70064  1.0000
  C   C1376     1.0  0.12197  0.48632  0.80703  1.0000
  C   C1377     1.0  0.10191  0.96144  0.96253  1.0000
  C   C1378     1.0  0.98979  0.59684  0.91416  1.0000
  H   H1124     1.0  0.01431  0.87718  0.65688  1.0000
  C   C1379     1.0  0.11319  0.97639  0.96179  1.0000
  H   H1125     1.0  0.22556  0.94322  0.71856  1.0000
  P   P44       1.0  0.07632  0.62645  0.97691  1.0000
  H   H1126     1.0  0.23260  0.97323  0.93256  1.0000
  C   C1380     1.0  0.09330  0.48922  0.73641  1.0000
  H   H1127     1.0  0.05764  0.59136  0.97715  1.0000
  H   H1128     1.0  0.20532  0.95002  0.98117  1.0000
  H   H1129     1.0  0.98958  0.53563  0.69623  1.0000
  S   S188      1.0  0.41946  0.44647  0.23856  1.0000
  C   C1381     1.0  0.33345  0.03001  0.03652  1.0000
  C   C1382     1.0  0.37865  0.40686  0.05311  1.0000
  S   S189      1.0  0.44766  0.35263  0.24380  1.0000
  C   C1383     1.0  0.35559  0.38636  0.07525  1.0000
  H   H1130     1.0  0.41250  0.41582  0.00839  1.0000
  H   H1131     1.0  0.43013  0.48353  0.25456  1.0000
  C   C1384     1.0  0.42829  0.98859  0.30313  1.0000
  C   C1385     1.0  0.27537  0.98607  0.02309  1.0000
  P   P45       1.0  0.32542  0.03223  0.09675  1.0000
  H   H1132     1.0  0.36599  0.22699  0.02531  1.0000
  C   C1386     1.0  0.24943  0.46081  0.09420  1.0000
  S   S190      1.0  0.39211  0.48234  0.20028  1.0000
  S   S191      1.0  0.31706  0.06874  0.99473  1.0000
  H   H1133     1.0  0.46934  0.38621  0.23065  1.0000
  Fe  Fe89      1.0  0.43592  0.29052  0.10413  1.0000
  S   S192      1.0  0.40634  0.29437  0.09368  1.0000
  S   S193      1.0  0.43450  0.29707  0.13550  1.0000
  Fe  Fe90      1.0  0.45846  0.27596  0.06578  1.0000
  S   S194      1.0  0.43082  0.27795  0.05235  1.0000
  H   H1134     1.0  0.41147  0.33216  0.11675  1.0000
  Fe  Fe91      1.0  0.42170  0.30748  0.06348  1.0000
  S   S195      1.0  0.40869  0.33676  0.04559  1.0000
  Fe  Fe92      1.0  0.41775  0.26450  0.08350  1.0000
  S   S196      1.0  0.39749  0.24095  0.09228  1.0000
  S   S197      1.0  0.45039  0.30650  0.07480  1.0000
  S   S198      1.0  0.44635  0.25971  0.09602  1.0000
  Fe  Fe93      1.0  0.37427  0.11014  0.05709  1.0000
  S   S199      1.0  0.38470  0.12625  0.07759  1.0000
  S   S200      1.0  0.34215  0.10524  0.06202  1.0000
  Fe  Fe94      1.0  0.41484  0.10542  0.03012  1.0000
  S   S201      1.0  0.42847  0.12079  0.04860  1.0000
  S   S202      1.0  0.43205  0.09389  0.00206  1.0000
  Fe  Fe95      1.0  0.41241  0.10244  0.07512  1.0000
  S   S203      1.0  0.42668  0.08707  0.10246  1.0000
  Fe  Fe96      1.0  0.39992  0.14309  0.04912  1.0000
  S   S204      1.0  0.40169  0.17593  0.03730  1.0000
  S   S205      1.0  0.40074  0.08527  0.05664  1.0000
  S   S206      1.0  0.38731  0.12870  0.02891  1.0000
  C   C1387     1.0  0.39903  0.22275  0.07705  1.0000
  C   C1388     1.0  0.40823  0.22552  0.05696  1.0000
  C   C1389     1.0  0.40893  0.21104  0.04492  1.0000
  C   C1390     1.0  0.40076  0.19351  0.05304  1.0000
  C   C1391     1.0  0.39143  0.19075  0.07313  1.0000
  C   C1392     1.0  0.39047  0.20542  0.08506  1.0000
  H   H1135     1.0  0.41456  0.23898  0.05075  1.0000
  H   H1136     1.0  0.41588  0.21337  0.02929  1.0000
  H   H1137     1.0  0.38477  0.17744  0.07940  1.0000
  H   H1138     1.0  0.38314  0.20330  0.10058  1.0000
  C   C1393     1.0  0.36034  0.38752  0.03932  1.0000
  H   H1139     1.0  0.39790  0.01858  0.10117  1.0000
  C   C1394     1.0  0.48293  0.09919  0.04265  1.0000
  H   H1140     1.0  0.46294  0.26062  0.02081  1.0000
  C   C1395     1.0  0.41044  0.44495  0.99009  1.0000
  H   H1141     1.0  0.28711  0.99232  0.15384  1.0000
  C   C1396     1.0  0.48849  0.30961  0.15778  1.0000
  C   C1397     1.0  0.33102  0.28269  0.01351  1.0000
  C   C1398     1.0  0.45535  0.12249  0.99933  1.0000
  C   C1399     1.0  0.34371  0.04056  0.10736  1.0000
  H   H1142     1.0  0.36405  0.03288  0.15020  1.0000
  H   H1143     1.0  0.44297  0.13001  0.00877  1.0000
  H   H1144     1.0  0.41549  0.04235  0.11888  1.0000
  H   H1145     1.0  0.48033  0.32614  0.99962  1.0000
  C   C1400     1.0  0.38672  0.31972  0.00185  1.0000
  C   C1401     1.0  0.39612  0.31893  0.01847  1.0000
  C   C1402     1.0  0.39876  0.33671  0.02380  1.0000
  C   C1403     1.0  0.39264  0.35512  0.01195  1.0000
  C   C1404     1.0  0.38300  0.35595  0.99554  1.0000
  H   H1146     1.0  0.25609  0.47162  0.29482  1.0000
  H   H1147     1.0  0.40082  0.30463  0.02745  1.0000
  H   H1148     1.0  0.39527  0.36883  0.01557  1.0000
  H   H1149     1.0  0.47468  0.05572  0.27889  1.0000
  C   C1405     1.0  0.46094  0.39572  0.14947  1.0000
  C   C1406     1.0  0.31636  0.35904  0.99948  1.0000
  C   C1407     1.0  0.33774  0.43078  0.01860  1.0000
  C   C1408     1.0  0.47916  0.22111  0.02725  1.0000
  H   H1150     1.0  0.33013  0.41950  0.02863  1.0000
  C   C1409     1.0  0.39743  0.99663  0.24713  1.0000
  P   P46       1.0  0.47758  0.22489  0.00080  1.0000
  C   C1410     1.0  0.46146  0.06646  0.11561  1.0000
  C   C1411     1.0  0.45084  0.07219  0.09935  1.0000
  C   C1412     1.0  0.45962  0.06595  0.08101  1.0000
  C   C1413     1.0  0.35805  0.44146  0.98654  1.0000
  H   H1151     1.0  0.45079  0.40904  0.15328  1.0000
  H   H1152     1.0  0.45494  0.07145  0.12978  1.0000
  H   H1153     1.0  0.45159  0.07021  0.06840  1.0000
  H   H1154     1.0  0.43950  0.48271  0.19654  1.0000
  C   C1414     1.0  0.32367  0.07948  0.01321  1.0000
  C   C1415     1.0  0.30912  0.08912  0.02697  1.0000
  C   C1416     1.0  0.31494  0.09707  0.04184  1.0000
  C   C1417     1.0  0.33529  0.09557  0.04294  1.0000
  C   C1418     1.0  0.34984  0.08611  0.02903  1.0000
  C   C1419     1.0  0.34402  0.07796  0.01433  1.0000
  H   H1155     1.0  0.29340  0.09035  0.02625  1.0000
  H   H1156     1.0  0.30362  0.10457  0.05239  1.0000
  H   H1157     1.0  0.36557  0.08487  0.02976  1.0000
  H   H1158     1.0  0.35532  0.07046  0.00379  1.0000
  C   C1420     1.0  0.31166  0.27779  0.01742  1.0000
  C   C1421     1.0  0.40973  0.25850  0.00729  1.0000
  C   C1422     1.0  0.47392  0.30199  0.13114  1.0000
  C   C1423     1.0  0.45563  0.30117  0.14401  1.0000
  C   C1424     1.0  0.45391  0.30427  0.16390  1.0000
  C   C1425     1.0  0.47039  0.30819  0.17085  1.0000
  C   C1426     1.0  0.44243  0.13531  0.09019  1.0000
  H   H1159     1.0  0.47544  0.29907  0.11603  1.0000
  H   H1160     1.0  0.43981  0.30353  0.17401  1.0000
  H   H1161     1.0  0.46907  0.31024  0.18625  1.0000
  C   C1427     1.0  0.43969  0.37884  0.24032  1.0000
  C   C1428     1.0  0.41918  0.38660  0.24463  1.0000
  C   C1429     1.0  0.41257  0.40743  0.24336  1.0000
  C   C1430     1.0  0.42654  0.42053  0.23807  1.0000
  C   C1431     1.0  0.44696  0.41282  0.23314  1.0000
  C   C1432     1.0  0.45353  0.39205  0.23408  1.0000
  H   H1162     1.0  0.40841  0.37642  0.24939  1.0000
  H   H1163     1.0  0.39680  0.41327  0.24720  1.0000
  H   H1164     1.0  0.45774  0.42297  0.22893  1.0000
  C   C1433     1.0  0.38479  0.42490  0.16806  1.0000
  C   C1434     1.0  0.39138  0.43210  0.18279  1.0000
  C   C1435     1.0  0.40867  0.42206  0.19031  1.0000
  C   C1436     1.0  0.41950  0.40481  0.18308  1.0000
  C   C1437     1.0  0.41349  0.39792  0.16765  1.0000
  C   C1438     1.0  0.39567  0.40772  0.16062  1.0000
  H   H1165     1.0  0.41036  0.37795  0.05313  1.0000
  C   C1439     1.0  0.39972  0.43925  0.02634  1.0000
  C   C1440     1.0  0.47615  0.99462  0.11363  1.0000
  H   H1166     1.0  0.44758  0.98864  0.22454  1.0000
  C   C1441     1.0  0.41705  0.38620  0.12042  1.0000
  C   C1442     1.0  0.32174  0.30778  0.98513  1.0000
  S   S207      1.0  0.27330  0.04710  0.98638  1.0000
  P   P47       1.0  0.39800  0.42205  0.04998  1.0000
  C   C1443     1.0  0.42385  0.35548  0.17940  1.0000
  H   H1167     1.0  0.37107  0.43259  0.16265  1.0000
  H   H1168     1.0  0.38289  0.44528  0.18868  1.0000
  C   C1444     1.0  0.28988  0.38667  0.99143  1.0000
  C   C1445     1.0  0.48052  0.21384  0.06862  1.0000
  H   H1169     1.0  0.27927  0.02547  0.06402  1.0000
  C   C1446     1.0  0.34747  0.03224  0.12689  1.0000
  H   H1170     1.0  0.27076  0.99584  0.00988  1.0000
  H   H1171     1.0  0.38096  0.00987  0.04441  1.0000
  H   H1172     1.0  0.46534  0.10921  0.09135  1.0000
  H   H1173     1.0  0.47434  0.01074  0.11286  1.0000
  H   H1174     1.0  0.48548  0.04926  0.06481  1.0000
  C   C1447     1.0  0.34788  0.46335  0.01177  1.0000
  H   H1175     1.0  0.25001  0.39761  0.04631  1.0000
  H   H1176     1.0  0.47084  0.30445  0.03210  1.0000
  H   H1177     1.0  0.28814  0.10206  0.09016  1.0000
  H   H1178     1.0  0.35776  0.19539  0.04578  1.0000
  C   C1448     1.0  0.47949  0.45082  0.25585  1.0000
  C   C1449     1.0  0.44639  0.01878  0.07806  1.0000
  C   C1450     1.0  0.41145  0.38234  0.10327  1.0000
  H   H1179     1.0  0.39790  0.12614  0.98501  1.0000
  H   H1180     1.0  0.34845  0.47724  0.01647  1.0000
  H   H1181     1.0  0.28365  0.03010  0.09672  1.0000
  Fe  Fe97      1.0  0.28477  0.07436  0.98965  1.0000
  C   C1451     1.0  0.30321  0.05129  0.09580  1.0000
  C   C1452     1.0  0.29884  0.47181  0.21364  1.0000
  S   S208      1.0  0.32530  0.45347  0.04877  1.0000
  C   C1453     1.0  0.35776  0.45972  0.99265  1.0000
  P   P48       1.0  0.43457  0.00007  0.11754  1.0000
  H   H1182     1.0  0.45752  0.34047  0.09718  1.0000
  C   C1454     1.0  0.43868  0.34712  0.19137  1.0000
  C   C1455     1.0  0.25513  0.03347  0.04690  1.0000
  C   C1456     1.0  0.39898  0.01615  0.23706  1.0000
  H   H1183     1.0  0.47849  0.33814  0.30020  1.0000
  H   H1184     1.0  0.38149  0.06057  0.13043  1.0000
  H   H1185     1.0  0.47207  0.40814  0.04116  1.0000
  P   P49       1.0  0.47389  0.47787  0.25408  1.0000
  C   C1457     1.0  0.33637  0.47963  0.14211  1.0000
  C   C1458     1.0  0.41847  0.35105  0.13502  1.0000
  C   C1459     1.0  0.43715  0.15525  0.08136  1.0000
  C   C1460     1.0  0.34931  0.20957  0.04961  1.0000
  C   C1461     1.0  0.33424  0.20972  0.06646  1.0000
  C   C1462     1.0  0.32364  0.22798  0.07165  1.0000
  C   C1463     1.0  0.32816  0.24611  0.06003  1.0000
  C   C1464     1.0  0.34337  0.24610  0.04311  1.0000
  C   C1465     1.0  0.35391  0.22765  0.03797  1.0000
  P   P50       1.0  0.34972  0.26965  0.02878  1.0000
  C   C1466     1.0  0.42327  0.03687  0.05580  1.0000
  C   C1467     1.0  0.35292  0.28515  0.04590  1.0000
  C   C1468     1.0  0.35057  0.30615  0.04046  1.0000
  C   C1469     1.0  0.35468  0.31788  0.05311  1.0000
  C   C1470     1.0  0.36090  0.30880  0.07137  1.0000
  C   C1471     1.0  0.36299  0.28796  0.07704  1.0000
  C   C1472     1.0  0.35924  0.27616  0.06430  1.0000
  H   H1186     1.0  0.42821  0.17012  0.99349  1.0000
  H   H1187     1.0  0.35194  0.06204  0.08079  1.0000
  C   C1473     1.0  0.37339  0.26448  0.01254  1.0000
  C   C1474     1.0  0.36128  0.03923  0.13508  1.0000
  C   C1475     1.0  0.47881  0.05410  0.07900  1.0000
  H   H1188     1.0  0.36575  0.01526  0.07900  1.0000
  C   C1476     1.0  0.45783  0.98794  0.23483  1.0000
  C   C1477     1.0  0.39139  0.26339  0.01953  1.0000
  C   C1478     1.0  0.31851  0.00906  0.11155  1.0000
  H   H1189     1.0  0.33097  0.19565  0.07559  1.0000
  H   H1190     1.0  0.31210  0.22805  0.08485  1.0000
  H   H1191     1.0  0.32006  0.26015  0.06443  1.0000
  H   H1192     1.0  0.48100  0.21155  0.08457  1.0000
  H   H1193     1.0  0.34632  0.31352  0.02617  1.0000
  H   H1194     1.0  0.36461  0.31784  0.08091  1.0000
  H   H1195     1.0  0.36813  0.28078  0.09106  1.0000
  H   H1196     1.0  0.36193  0.25996  0.06865  1.0000
  H   H1197     1.0  0.31161  0.43918  0.25489  1.0000
  C   C1479     1.0  0.37402  0.26042  0.99317  1.0000
  C   C1480     1.0  0.29016  0.45762  0.15802  1.0000
  C   C1481     1.0  0.38201  0.45835  0.10243  1.0000
  C   C1482     1.0  0.42357  0.38487  0.05098  1.0000
  H   H1198     1.0  0.43170  0.12801  0.10154  1.0000
  H   H1199     1.0  0.39137  0.26608  0.03451  1.0000
  C   C1483     1.0  0.37275  0.44687  0.07500  1.0000
  C   C1484     1.0  0.30176  0.36842  0.98763  1.0000
  C   C1485     1.0  0.40522  0.34890  0.18445  1.0000
  H   H1200     1.0  0.34853  0.38072  0.09027  1.0000
  C   C1486     1.0  0.40754  0.00406  0.20521  1.0000
  H   H1201     1.0  0.25085  0.38861  0.01233  1.0000
  C   C1487     1.0  0.48665  0.40896  0.25737  1.0000
  C   C1488     1.0  0.45401  0.37755  0.15087  1.0000
  C   C1489     1.0  0.26889  0.08057  0.09144  1.0000
  C   C1490     1.0  0.30421  0.07177  0.09396  1.0000
  H   H1202     1.0  0.38770  0.46653  0.03913  1.0000
  H   H1203     1.0  0.44738  0.29510  0.00876  1.0000
  H   H1204     1.0  0.36151  0.44693  0.06596  1.0000
  H   H1205     1.0  0.45296  0.35231  0.18828  1.0000
  H   H1206     1.0  0.45539  0.03388  0.04801  1.0000
  C   C1491     1.0  0.47343  0.12997  0.99399  1.0000
  S   S209      1.0  0.35844  0.46058  0.23403  1.0000
  H   H1207     1.0  0.44711  0.22651  0.03620  1.0000
  C   C1492     1.0  0.37126  0.05467  0.12393  1.0000
  H   H1208     1.0  0.41245  0.98762  0.15794  1.0000
  H   H1209     1.0  0.40515  0.03500  0.20828  1.0000
  H   H1210     1.0  0.45197  0.46562  0.22781  1.0000
  C   C1493     1.0  0.37975  0.33826  0.99060  1.0000
  C   C1494     1.0  0.44857  0.17656  0.01035  1.0000
  C   C1495     1.0  0.40928  0.36292  0.10199  1.0000
  Fe  Fe98      1.0  0.39012  0.46569  0.23192  1.0000
  C   C1496     1.0  0.26464  0.02283  0.06298  1.0000
  P   P51       1.0  0.42780  0.37558  0.15862  1.0000
  C   C1497     1.0  0.44287  0.03006  0.05946  1.0000
  H   H1211     1.0  0.26779  0.40951  0.09855  1.0000
  C   C1498     1.0  0.24903  0.46232  0.07374  1.0000
  H   H1212     1.0  0.41399  0.31350  0.22533  1.0000
  C   C1499     1.0  0.40172  0.33367  0.20084  1.0000
  H   H1213     1.0  0.29359  0.44684  0.17118  1.0000
  H   H1214     1.0  0.38091  0.40603  0.02140  1.0000
  H   H1215     1.0  0.25377  0.05573  0.09247  1.0000
  C   C1500     1.0  0.29745  0.28790  0.00531  1.0000
  H   H1216     1.0  0.41792  0.05517  0.98485  1.0000
  H   H1217     1.0  0.35689  0.38295  0.02637  1.0000
  C   C1501     1.0  0.39413  0.46013  0.02570  1.0000
  C   C1502     1.0  0.28739  0.44005  0.00088  1.0000
  H   H1218     1.0  0.42062  0.04592  0.04147  1.0000
  C   C1503     1.0  0.46149  0.12468  0.08433  1.0000
  H   H1219     1.0  0.32476  0.45682  0.28188  1.0000
  C   C1504     1.0  0.30121  0.45334  0.30770  1.0000
  H   H1220     1.0  0.30486  0.47650  0.19800  1.0000
  H   H1221     1.0  0.29443  0.00598  0.02662  1.0000
  H   H1222     1.0  0.41147  0.00679  0.18899  1.0000
  C   C1505     1.0  0.28708  0.08629  0.09194  1.0000
  C   C1506     1.0  0.30424  0.00960  0.12920  1.0000
  C   C1507     1.0  0.33646  0.02847  0.07141  1.0000
  H   H1223     1.0  0.46589  0.40799  0.28520  1.0000
  H   H1224     1.0  0.46396  0.06248  0.31384  1.0000
  C   C1508     1.0  0.40713  0.03266  0.07086  1.0000
  C   C1509     1.0  0.46678  0.02608  0.28585  1.0000
  C   C1510     1.0  0.41667  0.32517  0.21249  1.0000
  H   H1225     1.0  0.31815  0.07680  0.09361  1.0000
  H   H1226     1.0  0.39340  0.35554  0.17571  1.0000
  C   C1511     1.0  0.26773  0.06025  0.09330  1.0000
  C   C1512     1.0  0.46732  0.25074  0.99195  1.0000
  C   C1513     1.0  0.47009  0.15412  0.06089  1.0000
  C   C1514     1.0  0.48925  0.33306  0.08684  1.0000
  C   C1515     1.0  0.45092  0.16465  0.06667  1.0000
  C   C1516     1.0  0.43976  0.41410  0.04542  1.0000
  C   C1517     1.0  0.42213  0.04958  0.14549  1.0000
  H   H1227     1.0  0.48838  0.31760  0.08680  1.0000
  H   H1228     1.0  0.41348  0.42760  0.20195  1.0000
  H   H1229     1.0  0.42343  0.25733  0.01306  1.0000
  C   C1518     1.0  0.44337  0.01054  0.15145  1.0000
  H   H1230     1.0  0.35284  0.46660  0.09360  1.0000
  H   H1231     1.0  0.36031  0.26066  0.98765  1.0000
  H   H1232     1.0  0.27921  0.45619  0.27030  1.0000
  C   C1519     1.0  0.42273  0.03668  0.13193  1.0000
  C   C1520     1.0  0.46082  0.18987  0.01190  1.0000
  Fe  Fe99      1.0  0.35974  0.47971  0.20322  1.0000
  C   C1521     1.0  0.35110  0.38036  0.05864  1.0000
  H   H1233     1.0  0.25578  0.09188  0.08927  1.0000
  H   H1234     1.0  0.35078  0.30176  0.99376  1.0000
  Fe  Fe100     1.0  0.24390  0.06165  0.00181  1.0000
  C   C1522     1.0  0.46758  0.36087  0.14502  1.0000
  C   C1523     1.0  0.35367  0.02164  0.03231  1.0000
  H   H1235     1.0  0.45168  0.01864  0.17696  1.0000
  H   H1236     1.0  0.29733  0.02378  0.13403  1.0000
  H   H1237     1.0  0.34053  0.37013  0.06073  1.0000
  C   C1524     1.0  0.47547  0.13401  0.06966  1.0000
  C   C1525     1.0  0.46849  0.04447  0.29052  1.0000
  H   H1238     1.0  0.45853  0.37629  0.09687  1.0000
  C   C1526     1.0  0.31915  0.36795  0.01505  1.0000
  C   C1527     1.0  0.30709  0.38608  0.01905  1.0000
  C   C1528     1.0  0.29202  0.39538  0.00754  1.0000
  C   C1529     1.0  0.44328  0.02363  0.16462  1.0000
  P   P52       1.0  0.27591  0.41842  0.01330  1.0000
  C   C1530     1.0  0.27254  0.41661  0.04032  1.0000
  C   C1531     1.0  0.39408  0.00581  0.30168  1.0000
  C   C1532     1.0  0.47220  0.36629  0.09231  1.0000
  C   C1533     1.0  0.26917  0.41137  0.08235  1.0000
  C   C1534     1.0  0.28331  0.42232  0.07004  1.0000
  C   C1535     1.0  0.28496  0.42494  0.04914  1.0000
  H   H1239     1.0  0.30013  0.13939  0.98996  1.0000
  H   H1240     1.0  0.42236  0.16337  0.08594  1.0000
  C   C1536     1.0  0.43027  0.01411  0.09317  1.0000
  C   C1537     1.0  0.28207  0.45818  0.00857  1.0000
  H   H1241     1.0  0.26087  0.46823  0.06266  1.0000
  H   H1242     1.0  0.41896  0.40129  0.12106  1.0000
  H   H1243     1.0  0.33091  0.36094  0.02376  1.0000
  H   H1244     1.0  0.30964  0.39282  0.03106  1.0000
  H   H1245     1.0  0.48659  0.41084  0.14227  1.0000
  C   C1538     1.0  0.39685  0.47325  0.00743  1.0000
  C   C1539     1.0  0.31271  0.46446  0.29170  1.0000
  C   C1540     1.0  0.29848  0.99183  0.14054  1.0000
  H   H1246     1.0  0.29306  0.42888  0.07655  1.0000
  H   H1247     1.0  0.29623  0.43319  0.03996  1.0000
  C   C1541     1.0  0.43327  0.01700  0.13490  1.0000
  C   C1542     1.0  0.43257  0.04314  0.16170  1.0000
  H   H1248     1.0  0.27077  0.45960  0.02180  1.0000
  C   C1543     1.0  0.41466  0.00423  0.29436  1.0000
  H   H1249     1.0  0.33390  0.12650  0.99908  1.0000
  C   C1544     1.0  0.30267  0.45075  0.24568  1.0000
  C   C1545     1.0  0.37403  0.40072  0.03653  1.0000
  C   C1546     1.0  0.47364  0.41749  0.27288  1.0000
  C   C1547     1.0  0.45977  0.38084  0.04623  1.0000
  H   H1250     1.0  0.43276  0.05345  0.17166  1.0000
  C   C1548     1.0  0.36933  0.39948  0.07253  1.0000
  H   H1251     1.0  0.37798  0.37032  0.98681  1.0000
  H   H1252     1.0  0.44322  0.35636  0.05095  1.0000
  H   H1253     1.0  0.44662  0.18012  0.05986  1.0000
  C   C1549     1.0  0.46214  0.20754  0.99779  1.0000
  H   H1254     1.0  0.42171  0.33851  0.14684  1.0000
  H   H1255     1.0  0.42156  0.42836  0.07964  1.0000
  C   C1550     1.0  0.33776  0.44892  0.02478  1.0000
  H   H1256     1.0  0.26148  0.46570  0.09891  1.0000
  H   H1257     1.0  0.40880  0.39437  0.09096  1.0000
  H   H1258     1.0  0.41441  0.06494  0.14280  1.0000
  H   H1259     1.0  0.39642  0.02840  0.24551  1.0000
  C   C1551     1.0  0.29635  0.45236  0.13887  1.0000
  H   H1260     1.0  0.30459  0.43750  0.13717  1.0000
  H   H1261     1.0  0.44704  0.16333  0.02173  1.0000
  H   H1262     1.0  0.38990  0.40206  0.14974  1.0000
  H   H1263     1.0  0.33972  0.02047  0.13589  1.0000
  H   H1264     1.0  0.43899  0.43024  0.04328  1.0000
  H   H1265     1.0  0.38455  0.30595  0.99793  1.0000
  H   H1266     1.0  0.32602  0.34525  0.99615  1.0000
  C   C1552     1.0  0.46206  0.21898  0.06189  1.0000
  C   C1553     1.0  0.45640  0.47980  0.22045  1.0000
  C   C1554     1.0  0.40511  0.46566  0.98966  1.0000
  C   C1555     1.0  0.41288  0.34730  0.11783  1.0000
  H   H1267     1.0  0.24780  0.45292  0.99642  1.0000
  C   C1556     1.0  0.39220  0.43614  0.07063  1.0000
  H   H1268     1.0  0.47377  0.41665  0.18872  1.0000
  H   H1269     1.0  0.37551  0.07481  0.09582  1.0000
  C   C1557     1.0  0.43508  0.33193  0.20777  1.0000
  C   C1558     1.0  0.48062  0.05452  0.11361  1.0000
  H   H1270     1.0  0.30452  0.43710  0.31012  1.0000
  H   H1271     1.0  0.38739  0.32853  0.20462  1.0000
  H   H1272     1.0  0.43253  0.39684  0.18961  1.0000
  H   H1273     1.0  0.46172  0.01403  0.08054  1.0000
  H   H1274     1.0  0.30931  0.04050  0.05863  1.0000
  C   C1559     1.0  0.42008  0.37066  0.13668  1.0000
  H   H1275     1.0  0.46246  0.34684  0.14562  1.0000
  C   C1560     1.0  0.42211  0.40578  0.04922  1.0000
  H   H1276     1.0  0.35382  0.33394  0.04839  1.0000
  C   C1561     1.0  0.40396  0.01988  0.21610  1.0000
  H   H1277     1.0  0.46910  0.18639  0.02426  1.0000
  H   H1278     1.0  0.27556  0.48087  0.17513  1.0000
  C   C1562     1.0  0.36790  0.06272  0.10438  1.0000
  C   C1563     1.0  0.44231  0.37248  0.04965  1.0000
  C   C1564     1.0  0.29231  0.46642  0.12189  1.0000
  C   C1565     1.0  0.40650  0.43651  0.08248  1.0000
  C   C1566     1.0  0.48412  0.29945  0.02188  1.0000
  C   C1567     1.0  0.32488  0.03356  0.05593  1.0000
  H   H1279     1.0  0.44651  0.32552  0.21704  1.0000
  H   H1280     1.0  0.37278  0.40366  0.08566  1.0000
  H   H1281     1.0  0.39400  0.99393  0.26336  1.0000
  C   C1568     1.0  0.28010  0.47700  0.16019  1.0000
  H   H1282     1.0  0.39196  0.03864  0.06821  1.0000
  C   C1569     1.0  0.45232  0.28442  0.99841  1.0000
  C   C1570     1.0  0.45851  0.40164  0.04410  1.0000
  S   S210      1.0  0.48863  0.30877  0.22623  1.0000
  C   C1571     1.0  0.40137  0.44754  0.09836  1.0000
  H   H1283     1.0  0.33247  0.46478  0.14486  1.0000
  C   C1572     1.0  0.28476  0.04571  0.09562  1.0000
  H   H1284     1.0  0.40496  0.35983  0.08871  1.0000
  H   H1285     1.0  0.42002  0.01548  0.28219  1.0000
  C   C1573     1.0  0.25556  0.00845  0.07733  1.0000
  H   H1286     1.0  0.44824  0.22046  0.07264  1.0000
  C   C1574     1.0  0.36774  0.45799  0.09072  1.0000
  S   S211      1.0  0.26792  0.99556  0.09738  1.0000
  H   H1287     1.0  0.28255  0.28401  0.00834  1.0000
  C   C1575     1.0  0.28416  0.46049  0.25439  1.0000
  C   C1576     1.0  0.24336  0.40334  0.00647  1.0000
  C   C1577     1.0  0.35441  0.05552  0.09599  1.0000
  H   H1288     1.0  0.32441  0.44894  0.21861  1.0000
  H   H1289     1.0  0.48068  0.16174  0.04980  1.0000
  C   C1578     1.0  0.29165  0.47456  0.99944  1.0000
  H   H1290     1.0  0.30746  0.26611  0.02966  1.0000
  H   H1291     1.0  0.33804  0.98946  0.09210  1.0000
  H   H1292     1.0  0.29744  0.46249  0.10700  1.0000
  C   C1579     1.0  0.35668  0.01965  0.06717  1.0000
  H   H1293     1.0  0.38011  0.15951  0.99283  1.0000
  C   C1580     1.0  0.28039  0.48163  0.22230  1.0000
  H   H1294     1.0  0.32442  0.03415  0.02465  1.0000
  C   C1581     1.0  0.25885  0.40511  0.05278  1.0000
  C   C1582     1.0  0.25183  0.42055  0.00547  1.0000
  H   H1295     1.0  0.23989  0.47269  0.22181  1.0000
  C   C1583     1.0  0.33592  0.29776  0.99722  1.0000
  C   C1584     1.0  0.48657  0.42414  0.18707  1.0000
  C   C1585     1.0  0.41057  0.02137  0.08951  1.0000
  H   H1296     1.0  0.38668  0.04225  0.98502  1.0000
  C   C1586     1.0  0.46142  0.22254  0.04130  1.0000
  H   H1297     1.0  0.45951  0.44452  0.28413  1.0000
  C   C1587     1.0  0.41028  0.25490  0.98790  1.0000
  C   C1588     1.0  0.30994  0.45631  0.22530  1.0000
  H   H1298     1.0  0.37808  0.46719  0.11450  1.0000
  C   C1589     1.0  0.48365  0.44460  0.18806  1.0000
  S   S212      1.0  0.25595  0.08763  0.00756  1.0000
  Fe  Fe101     1.0  0.47994  0.34068  0.23236  1.0000
  H   H1299     1.0  0.41241  0.44797  0.10743  1.0000
  C   C1590     1.0  0.40795  0.43181  0.00835  1.0000
  C   C1591     1.0  0.34810  0.42693  0.99965  1.0000
  C   C1592     1.0  0.48305  0.08430  0.03142  1.0000
  H   H1300     1.0  0.46941  0.10980  0.04554  1.0000
  H   H1301     1.0  0.46855  0.45291  0.19022  1.0000
  C   C1593     1.0  0.36529  0.01642  0.04765  1.0000
  C   C1594     1.0  0.32713  0.99042  0.10563  1.0000
  C   C1595     1.0  0.27267  0.47581  0.24269  1.0000
  C   C1596     1.0  0.45051  0.98887  0.25518  1.0000
  H   H1302     1.0  0.48041  0.25980  0.31230  1.0000
  H   H1303     1.0  0.47138  0.02364  0.27043  1.0000
  C   C1597     1.0  0.46232  0.04834  0.31019  1.0000
  C   C1598     1.0  0.24170  0.43937  0.99758  1.0000
  C   C1599     1.0  0.46109  0.26473  0.00520  1.0000
  C   C1600     1.0  0.47162  0.34612  0.09247  1.0000
  H   H1304     1.0  0.47425  0.37114  0.04506  1.0000
  C   C1601     1.0  0.45227  0.48425  0.27280  1.0000
  H   H1305     1.0  0.45156  0.99541  0.15391  1.0000
  C   C1602     1.0  0.48128  0.39690  0.14295  1.0000
  H   H1306     1.0  0.47516  0.14283  0.99988  1.0000
  H   H1307     1.0  0.46952  0.08333  0.02619  1.0000
  H   H1308     1.0  0.26233  0.04445  0.03584  1.0000
  C   C1603     1.0  0.45339  0.10528  0.99253  1.0000
  C   C1604     1.0  0.25697  0.40273  0.07372  1.0000
  H   H1309     1.0  0.36028  0.01933  0.01713  1.0000
  C   C1605     1.0  0.48784  0.36215  0.13834  1.0000
  C   C1606     1.0  0.43788  0.18044  0.99441  1.0000
  S   S213      1.0  0.34656  0.46969  0.17977  1.0000
  H   H1310     1.0  0.34881  0.41253  0.99552  1.0000
  C   C1607     1.0  0.45912  0.01127  0.30096  1.0000
  S   S214      1.0  0.48911  0.26504  0.04963  1.0000
  H   H1311     1.0  0.24624  0.39395  0.08322  1.0000
  H   H1312     1.0  0.38364  0.01799  0.29498  1.0000
  C   C1608     1.0  0.47003  0.43832  0.27214  1.0000
  C   C1609     1.0  0.24286  0.46689  0.29231  1.0000
  C   C1610     1.0  0.33111  0.12548  0.98436  1.0000
  P   P53       1.0  0.45495  0.98816  0.29510  1.0000
  C   C1611     1.0  0.30247  0.30290  0.98920  1.0000
  H   H1313     1.0  0.48867  0.05031  0.12622  1.0000
  H   H1314     1.0  0.43458  0.99025  0.26033  1.0000
  C   C1612     1.0  0.28898  0.99191  0.03249  1.0000
  C   C1613     1.0  0.30871  0.48546  0.28864  1.0000
  C   C1614     1.0  0.46380  0.98725  0.26868  1.0000
  H   H1315     1.0  0.46978  0.48424  0.29574  1.0000
  H   H1316     1.0  0.30385  0.00826  0.98598  1.0000
  C   C1615     1.0  0.34402  0.48594  0.15685  1.0000
  C   C1616     1.0  0.43275  0.48562  0.26895  1.0000
  H   H1317     1.0  0.48904  0.39286  0.25770  1.0000
  C   C1617     1.0  0.48947  0.04847  0.09519  1.0000
  C   C1618     1.0  0.48945  0.31168  0.00346  1.0000
  C   C1619     1.0  0.28216  0.48579  0.12405  1.0000
  C   C1620     1.0  0.30164  0.43897  0.98336  1.0000
  S   S215      1.0  0.26530  0.33242  0.51439  1.0000
  H   H1318     1.0  0.44201  0.04352  0.41250  1.0000
  C   C1621     1.0  0.24556  0.40220  0.60143  1.0000
  S   S216      1.0  0.25709  0.27632  0.53872  1.0000
  C   C1622     1.0  0.47990  0.21031  0.51874  1.0000
  S   S217      1.0  0.27155  0.44862  0.34070  1.0000
  P   P54       1.0  0.46543  0.10876  0.40383  1.0000
  C   C1623     1.0  0.27876  0.44043  0.42269  1.0000
  H   H1319     1.0  0.26348  0.33410  0.57507  1.0000
  S   S218      1.0  0.24068  0.41100  0.62462  1.0000
  Fe  Fe102     1.0  0.35963  0.20424  0.51054  1.0000
  S   S219      1.0  0.35773  0.17703  0.53467  1.0000
  S   S220      1.0  0.34762  0.23733  0.51130  1.0000
  Fe  Fe103     1.0  0.38794  0.18040  0.48065  1.0000
  S   S221      1.0  0.38895  0.15123  0.50204  1.0000
  S   S222      1.0  0.40182  0.18476  0.44793  1.0000
  Fe  Fe104     1.0  0.35579  0.16070  0.50989  1.0000
  S   S223      1.0  0.33516  0.13775  0.51441  1.0000
  Fe  Fe105     1.0  0.39106  0.16927  0.52530  1.0000
  S   S224      1.0  0.41193  0.15406  0.54757  1.0000
  S   S225      1.0  0.35448  0.18869  0.48667  1.0000
  S   S226      1.0  0.39335  0.19762  0.50294  1.0000
  H   H1320     1.0  0.37954  0.26251  0.59448  1.0000
  Fe  Fe106     1.0  0.46148  0.18830  0.62454  1.0000
  S   S227      1.0  0.44104  0.20357  0.60188  1.0000
  C   C1624     1.0  0.39823  0.13981  0.35911  1.0000
  Fe  Fe107     1.0  0.33069  0.05969  0.44609  1.0000
  S   S228      1.0  0.32976  0.04981  0.41705  1.0000
  S   S229      1.0  0.34764  0.08486  0.44562  1.0000
  Fe  Fe108     1.0  0.31132  0.02493  0.47095  1.0000
  S   S230      1.0  0.30933  0.01145  0.44431  1.0000
  S   S231      1.0  0.29896  0.01267  0.50272  1.0000
  Fe  Fe109     1.0  0.34044  0.01860  0.43226  1.0000
  S   S232      1.0  0.36901  0.99992  0.41849  1.0000
  Fe  Fe110     1.0  0.29872  0.04355  0.43117  1.0000
  S   S233      1.0  0.27186  0.05499  0.41518  1.0000
  S   S234      1.0  0.34328  0.02896  0.46042  1.0000
  S   S235      1.0  0.29874  0.05653  0.45874  1.0000
  C   C1625     1.0  0.25331  0.04014  0.41622  1.0000
  C   C1626     1.0  0.25701  0.01922  0.42163  1.0000
  H   H1321     1.0  0.25211  0.30095  0.58468  1.0000
  H   H1322     1.0  0.27137  0.01181  0.42561  1.0000
  C   C1627     1.0  0.39406  0.99198  0.48584  1.0000
  H   H1323     1.0  0.35502  0.37312  0.57184  1.0000
  S   S236      1.0  0.47260  0.00006  0.36773  1.0000
  C   C1628     1.0  0.42702  0.08335  0.64889  1.0000
  C   C1629     1.0  0.48449  0.11245  0.58166  1.0000
  S   S237      1.0  0.48487  0.20440  0.63008  1.0000
  C   C1630     1.0  0.41440  0.10508  0.36013  1.0000
  H   H1324     1.0  0.46530  0.11980  0.60885  1.0000
  H   H1325     1.0  0.47369  0.09624  0.36413  1.0000
  H   H1326     1.0  0.39809  0.01023  0.45661  1.0000
  C   C1631     1.0  0.33562  0.30935  0.52303  1.0000
  H   H1327     1.0  0.31161  0.09418  0.38955  1.0000
  C   C1632     1.0  0.41891  0.16793  0.56330  1.0000
  C   C1633     1.0  0.41453  0.18890  0.56033  1.0000
  C   C1634     1.0  0.42101  0.19958  0.57259  1.0000
  C   C1635     1.0  0.43181  0.18942  0.58796  1.0000
  C   C1636     1.0  0.43579  0.16840  0.59123  1.0000
  C   C1637     1.0  0.42951  0.15771  0.57880  1.0000
  H   H1328     1.0  0.40638  0.19688  0.54842  1.0000
  H   H1329     1.0  0.41792  0.21581  0.56995  1.0000
  H   H1330     1.0  0.44402  0.16042  0.60307  1.0000
  H   H1331     1.0  0.43283  0.14147  0.58125  1.0000
  C   C1638     1.0  0.34420  0.09848  0.46559  1.0000
  C   C1639     1.0  0.32839  0.09701  0.48175  1.0000
  C   C1640     1.0  0.32572  0.10910  0.49671  1.0000
  C   C1641     1.0  0.33884  0.12265  0.49559  1.0000
  C   C1642     1.0  0.35483  0.12379  0.47962  1.0000
  C   C1643     1.0  0.35756  0.11162  0.46482  1.0000
  H   H1332     1.0  0.31802  0.08687  0.48252  1.0000
  H   H1333     1.0  0.31333  0.10810  0.50906  1.0000
  H   H1334     1.0  0.36503  0.13415  0.47858  1.0000
  H   H1335     1.0  0.36982  0.11271  0.45241  1.0000
  H   H1336     1.0  0.39864  0.03104  0.42448  1.0000
  C   C1644     1.0  0.45975  0.16317  0.45307  1.0000
  C   C1645     1.0  0.43881  0.16773  0.45753  1.0000
  C   C1646     1.0  0.42798  0.17885  0.44272  1.0000
  C   C1647     1.0  0.43810  0.18546  0.42352  1.0000
  C   C1648     1.0  0.45909  0.18101  0.41911  1.0000
  H   H1337     1.0  0.26875  0.41974  0.58792  1.0000
  H   H1338     1.0  0.43104  0.16269  0.47239  1.0000
  H   H1339     1.0  0.42972  0.19429  0.41211  1.0000
  H   H1340     1.0  0.27832  0.40355  0.55740  1.0000
  C   C1649     1.0  0.28227  0.26558  0.53095  1.0000
  C   C1650     1.0  0.29549  0.27668  0.51732  1.0000
  C   C1651     1.0  0.31534  0.26767  0.51127  1.0000
  C   C1652     1.0  0.32222  0.24751  0.51874  1.0000
  C   C1653     1.0  0.30915  0.23645  0.53264  1.0000
  C   C1654     1.0  0.28919  0.24544  0.53862  1.0000
  H   H1341     1.0  0.29039  0.29217  0.51134  1.0000
  H   H1342     1.0  0.32541  0.27636  0.50065  1.0000
  H   H1343     1.0  0.31442  0.22103  0.53879  1.0000
  H   H1344     1.0  0.27907  0.23679  0.54927  1.0000
  C   C1655     1.0  0.45963  0.08781  0.39498  1.0000
  C   C1656     1.0  0.31153  0.98850  0.50992  1.0000
  S   S238      1.0  0.48229  0.15908  0.62195  1.0000
  C   C1657     1.0  0.46607  0.08532  0.37480  1.0000
  C   C1658     1.0  0.45468  0.05320  0.38182  1.0000
  H   H1345     1.0  0.45354  0.24496  0.50134  1.0000
  H   H1346     1.0  0.44712  0.07322  0.42446  1.0000
  C   C1659     1.0  0.25571  0.38463  0.56624  1.0000
  H   H1347     1.0  0.42796  0.17693  0.38353  1.0000
  C   C1660     1.0  0.38659  0.99168  0.50631  1.0000
  H   H1348     1.0  0.34171  0.12779  0.41358  1.0000
  H   H1349     1.0  0.42282  0.04220  0.54717  1.0000
  H   H1350     1.0  0.30573  0.04918  0.51673  1.0000
  C   C1661     1.0  0.36048  0.06383  0.63348  1.0000
  C   C1662     1.0  0.38538  0.08634  0.39852  1.0000
  H   H1351     1.0  0.42343  0.10834  0.42116  1.0000
  H   H1352     1.0  0.45288  0.22563  0.56182  1.0000
  H   H1353     1.0  0.30663  0.11392  0.35610  1.0000
  C   C1663     1.0  0.45971  0.13198  0.38672  1.0000
  C   C1664     1.0  0.45116  0.07243  0.40860  1.0000
  H   H1354     1.0  0.24361  0.43505  0.51952  1.0000
  C   C1665     1.0  0.36661  0.15640  0.43160  1.0000
  C   C1666     1.0  0.34964  0.28261  0.55893  1.0000
  C   C1667     1.0  0.45428  0.15227  0.50854  1.0000
  S   S239      1.0  0.26382  0.46254  0.62340  1.0000
  S   S240      1.0  0.26361  0.37326  0.54451  1.0000
  C   C1668     1.0  0.35567  0.04633  0.62967  1.0000
  H   H1355     1.0  0.34012  0.44023  0.63074  1.0000
  P   P55       1.0  0.33357  0.30552  0.55010  1.0000
  C   C1669     1.0  0.28868  0.45538  0.38804  1.0000
  C   C1670     1.0  0.47468  0.17869  0.49936  1.0000
  C   C1671     1.0  0.28062  0.42849  0.47730  1.0000
  H   H1356     1.0  0.29323  0.44364  0.54392  1.0000
  H   H1357     1.0  0.44316  0.13638  0.32774  1.0000
  H   H1358     1.0  0.39864  0.03521  0.52839  1.0000
  H   H1359     1.0  0.41495  0.08923  0.36595  1.0000
  H   H1360     1.0  0.39822  0.15720  0.42383  1.0000
  P   P56       1.0  0.26273  0.46258  0.45400  1.0000
  H   H1361     1.0  0.41454  0.16173  0.33937  1.0000
  H   H1362     1.0  0.28934  0.42369  0.39816  1.0000
  S   S241      1.0  0.41511  0.01414  0.63216  1.0000
  H   H1363     1.0  0.25736  0.47057  0.49477  1.0000
  H   H1364     1.0  0.45864  0.98732  0.41050  1.0000
  S   S242      1.0  0.41098  0.06985  0.64154  1.0000
  C   C1672     1.0  0.45321  0.16900  0.36098  1.0000
  H   H1365     1.0  0.47521  0.15592  0.54291  1.0000
  C   C1673     1.0  0.33845  0.31538  0.48102  1.0000
  H   H1366     1.0  0.36805  0.29792  0.48096  1.0000
  H   H1367     1.0  0.40431  0.13348  0.39990  1.0000
  C   C1674     1.0  0.39542  0.04644  0.41713  1.0000
  H   H1368     1.0  0.44235  0.18351  0.50833  1.0000
  C   C1675     1.0  0.37819  0.00967  0.51369  1.0000
  H   H1369     1.0  0.26056  0.38281  0.42578  1.0000
  C   C1676     1.0  0.36396  0.15431  0.59081  1.0000
  H   H1370     1.0  0.45685  0.11997  0.47427  1.0000
  H   H1371     1.0  0.33589  0.15185  0.43703  1.0000
  P   P57       1.0  0.36738  0.00946  0.53991  1.0000
  C   C1677     1.0  0.46318  0.21582  0.53307  1.0000
  H   H1372     1.0  0.45309  0.03971  0.37682  1.0000
  C   C1678     1.0  0.41234  0.02348  0.57468  1.0000
  H   H1373     1.0  0.33620  0.02372  0.51435  1.0000
  C   C1679     1.0  0.38440  0.00740  0.57400  1.0000
  H   H1374     1.0  0.24041  0.41461  0.41121  1.0000
  C   C1680     1.0  0.35323  0.33868  0.54315  1.0000
  C   C1681     1.0  0.37751  0.02794  0.50025  1.0000
  C   C1682     1.0  0.46364  0.06809  0.36829  1.0000
  C   C1683     1.0  0.47883  0.11064  0.60247  1.0000
  H   H1375     1.0  0.26206  0.31016  0.47927  1.0000
  C   C1684     1.0  0.34052  0.10226  0.38814  1.0000
  C   C1685     1.0  0.34456  0.02762  0.54200  1.0000
  C   C1686     1.0  0.33863  0.03762  0.55866  1.0000
  C   C1687     1.0  0.32113  0.05193  0.56004  1.0000
  C   C1688     1.0  0.30939  0.05629  0.54482  1.0000
  C   C1689     1.0  0.31500  0.04612  0.52838  1.0000
  C   C1690     1.0  0.33241  0.03172  0.52703  1.0000
  H   H1376     1.0  0.29835  0.33630  0.55956  1.0000
  C   C1691     1.0  0.33498  0.12448  0.35044  1.0000
  C   C1692     1.0  0.43053  0.13164  0.33850  1.0000
  C   C1693     1.0  0.47142  0.13784  0.50547  1.0000
  H   H1377     1.0  0.42033  0.11927  0.48104  1.0000
  C   C1694     1.0  0.44357  0.14699  0.39209  1.0000
  C   C1695     1.0  0.38804  0.05051  0.39901  1.0000
  S   S243      1.0  0.25220  0.35432  0.46196  1.0000
  C   C1696     1.0  0.35120  0.36011  0.56776  1.0000
  H   H1378     1.0  0.37079  0.04198  0.50548  1.0000
  C   C1697     1.0  0.43086  0.11065  0.43274  1.0000
  H   H1379     1.0  0.31109  0.27167  0.56365  1.0000
  H   H1380     1.0  0.34739  0.03432  0.57067  1.0000
  H   H1381     1.0  0.31664  0.05964  0.57291  1.0000
  H   H1382     1.0  0.29585  0.06739  0.54582  1.0000
  C   C1698     1.0  0.24721  0.42750  0.47201  1.0000
  H   H1383     1.0  0.33925  0.99365  0.49060  1.0000
  C   C1699     1.0  0.29533  0.19909  0.51106  1.0000
  C   C1700     1.0  0.29843  0.18003  0.50575  1.0000
  C   C1701     1.0  0.30283  0.17787  0.48550  1.0000
  C   C1702     1.0  0.30379  0.19483  0.47053  1.0000
  C   C1703     1.0  0.30011  0.21410  0.47575  1.0000
  C   C1704     1.0  0.29647  0.21603  0.49612  1.0000
  P   P58       1.0  0.30324  0.23569  0.45645  1.0000
  C   C1705     1.0  0.29036  0.25917  0.46418  1.0000
  C   C1706     1.0  0.32995  0.23510  0.45039  1.0000
  C   C1707     1.0  0.33948  0.24424  0.46150  1.0000
  C   C1708     1.0  0.36035  0.24258  0.45792  1.0000
  C   C1709     1.0  0.37184  0.23166  0.44332  1.0000
  C   C1710     1.0  0.36248  0.22224  0.43241  1.0000
  C   C1711     1.0  0.34161  0.22380  0.43602  1.0000
  C   C1712     1.0  0.29781  0.27707  0.45565  1.0000
  C   C1713     1.0  0.28758  0.29538  0.46110  1.0000
  C   C1714     1.0  0.26982  0.29598  0.47497  1.0000
  C   C1715     1.0  0.26212  0.27831  0.48327  1.0000
  C   C1716     1.0  0.27215  0.26002  0.47766  1.0000
  C   C1717     1.0  0.29283  0.23416  0.43486  1.0000
  C   C1718     1.0  0.27654  0.22406  0.43712  1.0000
  H   H1384     1.0  0.37343  0.99810  0.58207  1.0000
  H   H1385     1.0  0.47006  0.12214  0.50763  1.0000
  C   C1719     1.0  0.29179  0.24342  0.39906  1.0000
  C   C1720     1.0  0.30019  0.24413  0.41578  1.0000
  H   H1386     1.0  0.29244  0.20071  0.52677  1.0000
  H   H1387     1.0  0.29795  0.16686  0.51734  1.0000
  H   H1388     1.0  0.30599  0.16295  0.48153  1.0000
  H   H1389     1.0  0.30776  0.19285  0.45493  1.0000
  H   H1390     1.0  0.29480  0.23057  0.50050  1.0000
  H   H1391     1.0  0.33086  0.25211  0.47339  1.0000
  H   H1392     1.0  0.36757  0.24917  0.46704  1.0000
  H   H1393     1.0  0.38805  0.22989  0.44091  1.0000
  H   H1394     1.0  0.37155  0.21315  0.42166  1.0000
  H   H1395     1.0  0.33468  0.21578  0.42797  1.0000
  H   H1396     1.0  0.31144  0.27694  0.44471  1.0000
  H   H1397     1.0  0.29333  0.30920  0.45457  1.0000
  H   H1398     1.0  0.26571  0.24658  0.48399  1.0000
  H   H1399     1.0  0.27016  0.21688  0.45181  1.0000
  H   H1400     1.0  0.25368  0.03785  0.49291  1.0000
  C   C1721     1.0  0.28548  0.46309  0.32059  1.0000
  H   H1401     1.0  0.29754  0.25111  0.38436  1.0000
  H   H1402     1.0  0.31231  0.25256  0.41384  1.0000
  H   H1403     1.0  0.47659  0.11568  0.44104  1.0000
  H   H1404     1.0  0.36592  0.29296  0.51775  1.0000
  H   H1405     1.0  0.43396  0.14508  0.40651  1.0000
  H   H1406     1.0  0.38907  0.14913  0.60653  1.0000
  C   C1722     1.0  0.46944  0.15430  0.35565  1.0000
  H   H1407     1.0  0.46818  0.15461  0.46448  1.0000
  C   C1723     1.0  0.38699  0.99199  0.31801  1.0000
  H   H1408     1.0  0.39407  0.09414  0.42414  1.0000
  C   C1724     1.0  0.27740  0.44715  0.54298  1.0000
  C   C1725     1.0  0.32023  0.11371  0.36183  1.0000
  H   H1409     1.0  0.48601  0.09587  0.63127  1.0000
  H   H1410     1.0  0.36784  0.36459  0.53770  1.0000
  H   H1411     1.0  0.42316  0.02627  0.58283  1.0000
  H   H1412     1.0  0.36410  0.16672  0.44226  1.0000
  C   C1726     1.0  0.35126  0.26540  0.55032  1.0000
  C   C1727     1.0  0.43044  0.11125  0.34589  1.0000
  C   C1728     1.0  0.45472  0.22012  0.48586  1.0000
  C   C1729     1.0  0.44607  0.21337  0.47215  1.0000
  C   C1730     1.0  0.42875  0.22453  0.46534  1.0000
  C   C1731     1.0  0.42016  0.24276  0.47184  1.0000
  C   C1732     1.0  0.42918  0.25005  0.48482  1.0000
  C   C1733     1.0  0.44655  0.23889  0.49163  1.0000
  H   H1413     1.0  0.35901  0.16960  0.59361  1.0000
  C   C1734     1.0  0.41220  0.03232  0.55456  1.0000
  C   C1735     1.0  0.32301  0.10260  0.38068  1.0000
  H   H1414     1.0  0.32435  0.32240  0.58742  1.0000
  C   C1736     1.0  0.44966  0.11702  0.46278  1.0000
  C   C1737     1.0  0.26592  0.39943  0.56873  1.0000
  H   H1415     1.0  0.27645  0.42702  0.43350  1.0000
  H   H1416     1.0  0.30611  0.32728  0.52261  1.0000
  C   C1738     1.0  0.31967  0.32071  0.51374  1.0000
  C   C1739     1.0  0.24580  0.38807  0.43355  1.0000
  H   H1417     1.0  0.37109  0.99333  0.32392  1.0000
  C   C1740     1.0  0.28117  0.28435  0.57509  1.0000
  H   H1418     1.0  0.45272  0.19947  0.46672  1.0000
  H   H1419     1.0  0.42198  0.21894  0.45506  1.0000
  H   H1420     1.0  0.40663  0.25129  0.46669  1.0000
  H   H1421     1.0  0.42269  0.26434  0.48960  1.0000
  C   C1741     1.0  0.34245  0.44767  0.64237  1.0000
  C   C1742     1.0  0.35658  0.08381  0.53352  1.0000
  C   C1743     1.0  0.37171  0.08298  0.51678  1.0000
  C   C1744     1.0  0.39128  0.08407  0.51847  1.0000
  C   C1745     1.0  0.39575  0.08597  0.53692  1.0000
  C   C1746     1.0  0.38062  0.08676  0.55390  1.0000
  C   C1747     1.0  0.36096  0.08571  0.55198  1.0000
  P   P59       1.0  0.38598  0.08957  0.57789  1.0000
  C   C1748     1.0  0.37334  0.07305  0.59798  1.0000
  C   C1749     1.0  0.41261  0.08366  0.57852  1.0000
  C   C1750     1.0  0.42065  0.06681  0.59139  1.0000
  C   C1751     1.0  0.44104  0.06323  0.59280  1.0000
  C   C1752     1.0  0.45358  0.07635  0.58126  1.0000
  C   C1753     1.0  0.44571  0.09310  0.56831  1.0000
  C   C1754     1.0  0.42529  0.09686  0.56709  1.0000
  C   C1755     1.0  0.36927  0.07716  0.61771  1.0000
  C   C1756     1.0  0.27395  0.45956  0.42841  1.0000
  C   C1757     1.0  0.24227  0.00781  0.42133  1.0000
  C   C1758     1.0  0.35972  0.04210  0.61010  1.0000
  C   C1759     1.0  0.36867  0.05531  0.59432  1.0000
  C   C1760     1.0  0.37747  0.11507  0.58256  1.0000
  C   C1761     1.0  0.38750  0.12319  0.59418  1.0000
  H   H1422     1.0  0.29730  0.48459  0.43910  1.0000
  H   H1423     1.0  0.33278  0.13307  0.33582  1.0000
  C   C1762     1.0  0.35358  0.14619  0.57972  1.0000
  C   C1763     1.0  0.36042  0.12676  0.57537  1.0000
  H   H1424     1.0  0.34130  0.08356  0.53200  1.0000
  H   H1425     1.0  0.36809  0.08200  0.50239  1.0000
  H   H1426     1.0  0.40291  0.08383  0.50536  1.0000
  H   H1427     1.0  0.41096  0.08694  0.53774  1.0000
  H   H1428     1.0  0.34893  0.08662  0.56470  1.0000
  H   H1429     1.0  0.41117  0.05679  0.60102  1.0000
  H   H1430     1.0  0.44691  0.05063  0.60341  1.0000
  H   H1431     1.0  0.40343  0.05913  0.44008  1.0000
  H   H1432     1.0  0.45524  0.10350  0.55953  1.0000
  H   H1433     1.0  0.41924  0.11031  0.55756  1.0000
  H   H1434     1.0  0.37349  0.09028  0.62111  1.0000
  C   C1764     1.0  0.37342  0.12920  0.40444  1.0000
  C   C1765     1.0  0.36309  0.24741  0.55736  1.0000
  H   H1435     1.0  0.35637  0.02825  0.60737  1.0000
  H   H1436     1.0  0.37233  0.05143  0.57941  1.0000
  H   H1437     1.0  0.40049  0.11445  0.60021  1.0000
  H   H1438     1.0  0.35866  0.29430  0.58222  1.0000
  C   C1766     1.0  0.44845  0.05537  0.40196  1.0000
  H   H1439     1.0  0.34042  0.15511  0.57411  1.0000
  H   H1440     1.0  0.35236  0.12108  0.56634  1.0000
  C   C1767     1.0  0.38479  0.02816  0.47976  1.0000
  C   C1768     1.0  0.25099  0.02262  0.49435  1.0000
  C   C1769     1.0  0.32104  0.32361  0.49284  1.0000
  C   C1770     1.0  0.39300  0.01017  0.47254  1.0000
  C   C1771     1.0  0.28609  0.43840  0.40259  1.0000
  H   H1441     1.0  0.26930  0.23249  0.38839  1.0000
  C   C1772     1.0  0.38589  0.15095  0.42129  1.0000
  H   H1442     1.0  0.38595  0.15110  0.36422  1.0000
  C   C1773     1.0  0.35257  0.12413  0.35785  1.0000
  C   C1774     1.0  0.35839  0.35532  0.54852  1.0000
  H   H1443     1.0  0.47519  0.12300  0.57203  1.0000
  C   C1775     1.0  0.35984  0.28143  0.57502  1.0000
  C   C1776     1.0  0.26972  0.43838  0.53012  1.0000
  C   C1777     1.0  0.44874  0.30229  0.63623  1.0000
  H   H1444     1.0  0.38560  0.03822  0.39253  1.0000
  C   C1778     1.0  0.46083  0.11456  0.44384  1.0000
  C   C1779     1.0  0.35325  0.30148  0.51101  1.0000
  C   C1780     1.0  0.39847  0.02831  0.54396  1.0000
  H   H1445     1.0  0.33327  0.35195  0.59659  1.0000
  H   H1446     1.0  0.33063  0.99144  0.54843  1.0000
  H   H1447     1.0  0.38327  0.04223  0.46940  1.0000
  C   C1781     1.0  0.42908  0.11666  0.46659  1.0000
  H   H1448     1.0  0.24834  0.01688  0.52655  1.0000
  H   H1449     1.0  0.33169  0.47701  0.62742  1.0000
  C   C1782     1.0  0.35412  0.13445  0.41516  1.0000
  H   H1450     1.0  0.36419  0.23424  0.55050  1.0000
  H   H1451     1.0  0.29390  0.45381  0.37238  1.0000
  H   H1452     1.0  0.27039  0.46649  0.56536  1.0000
  H   H1453     1.0  0.24850  0.27876  0.49431  1.0000
  C   C1783     1.0  0.45586  0.17260  0.50568  1.0000
  H   H1454     1.0  0.27961  0.42790  0.52129  1.0000
  Fe  Fe111     1.0  0.23979  0.44367  0.62646  1.0000
  C   C1784     1.0  0.38317  0.07036  0.38964  1.0000
  H   H1455     1.0  0.46690  0.18621  0.40429  1.0000
  C   C1785     1.0  0.25138  0.01459  0.47714  1.0000
  H   H1456     1.0  0.35886  0.33530  0.52815  1.0000
  H   H1457     1.0  0.47995  0.15739  0.34190  1.0000
  C   C1786     1.0  0.38480  0.01537  0.55348  1.0000
  H   H1458     1.0  0.36380  0.13248  0.34873  1.0000
  C   C1787     1.0  0.24515  0.99087  0.51514  1.0000
  H   H1459     1.0  0.37725  0.07323  0.37570  1.0000
  H   H1460     1.0  0.33940  0.31747  0.46485  1.0000
  H   H1461     1.0  0.30848  0.33212  0.48585  1.0000
  C   C1788     1.0  0.46989  0.16984  0.43393  1.0000
  C   C1789     1.0  0.24016  0.37878  0.58130  1.0000
  C   C1790     1.0  0.33388  0.33148  0.57642  1.0000
  C   C1791     1.0  0.27576  0.47642  0.46561  1.0000
  C   C1792     1.0  0.39815  0.11935  0.36690  1.0000
  H   H1462     1.0  0.43966  0.14776  0.51295  1.0000
  C   C1793     1.0  0.26534  0.39898  0.49151  1.0000
  C   C1794     1.0  0.39834  0.01114  0.58440  1.0000
  C   C1795     1.0  0.29395  0.32161  0.56420  1.0000
  C   C1796     1.0  0.39295  0.08213  0.41665  1.0000
  C   C1797     1.0  0.28164  0.40905  0.48837  1.0000
  C   C1798     1.0  0.41440  0.14591  0.34505  1.0000
  C   C1799     1.0  0.37331  0.24638  0.57325  1.0000
  H   H1463     1.0  0.26608  0.38391  0.50007  1.0000
  H   H1464     1.0  0.40366  0.11351  0.45445  1.0000
  C   C1800     1.0  0.46579  0.22116  0.55086  1.0000
  H   H1465     1.0  0.24538  0.99162  0.42516  1.0000
  C   C1801     1.0  0.26322  0.43802  0.46935  1.0000
  C   C1802     1.0  0.45150  0.11128  0.42867  1.0000
  C   C1803     1.0  0.35547  0.11299  0.37679  1.0000
  C   C1804     1.0  0.26819  0.22336  0.42037  1.0000
  C   C1805     1.0  0.38089  0.14279  0.59809  1.0000
  C   C1806     1.0  0.26059  0.40854  0.58604  1.0000
  C   C1807     1.0  0.35072  0.14817  0.42852  1.0000
  C   C1808     1.0  0.38930  0.13741  0.40781  1.0000
  H   H1466     1.0  0.46981  0.17844  0.56799  1.0000
  C   C1809     1.0  0.35459  0.30439  0.49010  1.0000
  H   H1467     1.0  0.25566  0.21547  0.42218  1.0000
  H   H1468     1.0  0.29350  0.43599  0.47479  1.0000
  H   H1469     1.0  0.46927  0.07372  0.58273  1.0000
  H   H1470     1.0  0.29502  0.40170  0.49454  1.0000
  H   H1471     1.0  0.34923  0.03575  0.64193  1.0000
  C   C1810     1.0  0.30113  0.28540  0.56650  1.0000
  H   H1472     1.0  0.48700  0.22421  0.56876  1.0000
  C   C1811     1.0  0.26766  0.30183  0.57839  1.0000
  C   C1812     1.0  0.44022  0.16530  0.37914  1.0000
  H   H1473     1.0  0.45109  0.18348  0.35131  1.0000
  C   C1813     1.0  0.39805  0.06222  0.42587  1.0000
  P   P60       1.0  0.37815  0.11192  0.38667  1.0000
  H   H1474     1.0  0.34237  0.09358  0.40284  1.0000
  H   H1475     1.0  0.44812  0.21605  0.53054  1.0000
  C   C1814     1.0  0.41968  0.11345  0.45157  1.0000
  C   C1815     1.0  0.33898  0.34817  0.58171  1.0000
  P   P61       1.0  0.47668  0.20502  0.49499  1.0000
  C   C1816     1.0  0.37169  0.26339  0.58207  1.0000
  C   C1817     1.0  0.26454  0.45997  0.55508  1.0000
  H   H1476     1.0  0.24934  0.98872  0.46527  1.0000
  H   H1477     1.0  0.46933  0.06603  0.35284  1.0000
  C   C1818     1.0  0.27585  0.23297  0.40134  1.0000
  C   C1819     1.0  0.30777  0.30403  0.56123  1.0000
  H   H1478     1.0  0.45457  0.27436  0.62469  1.0000
  H   H1479     1.0  0.34324  0.26587  0.53820  1.0000
  C   C1820     1.0  0.33744  0.46856  0.64069  1.0000
  C   C1821     1.0  0.34079  0.32673  0.55702  1.0000
  Fe  Fe112     1.0  0.24647  0.35246  0.53553  1.0000
  C   C1822     1.0  0.26981  0.47755  0.48617  1.0000
  H   H1480     1.0  0.27597  0.27001  0.57855  1.0000
  C   C1823     1.0  0.27404  0.32046  0.57292  1.0000
  C   C1824     1.0  0.24404  0.46415  0.55424  1.0000
  H   H1481     1.0  0.39807  0.00454  0.60011  1.0000
  H   H1482     1.0  0.44297  0.10024  0.34071  1.0000
  C   C1825     1.0  0.47267  0.13591  0.36844  1.0000
  C   C1826     1.0  0.45307  0.01525  0.32070  1.0000
  H   H1483     1.0  0.45032  0.03643  0.34063  1.0000
  C   C1827     1.0  0.48450  0.16993  0.56394  1.0000
  H   H1484     1.0  0.38235  0.23237  0.57882  1.0000
  H   H1485     1.0  0.48580  0.12507  0.36447  1.0000
  H   H1486     1.0  0.44511  0.31140  0.62227  1.0000
  C   C1828     1.0  0.24819  0.40822  0.48332  1.0000
  H   H1487     1.0  0.44716  0.00405  0.33261  1.0000
  S   S244      1.0  0.36657  0.99157  0.63688  1.0000
  H   H1488     1.0  0.25406  0.02377  0.46243  1.0000
  C   C1829     1.0  0.48770  0.15737  0.54962  1.0000
  H   H1489     1.0  0.43827  0.13092  0.64079  1.0000
  C   C1830     1.0  0.27632  0.47653  0.41359  1.0000
  Fe  Fe113     1.0  0.24586  0.30960  0.52970  1.0000
  C   C1831     1.0  0.45466  0.03371  0.32527  1.0000
  C   C1832     1.0  0.45416  0.28145  0.63753  1.0000
  C   C1833     1.0  0.48506  0.22038  0.55478  1.0000
  C   C1834     1.0  0.24869  0.99470  0.47886  1.0000
  C   C1835     1.0  0.24793  0.01076  0.51332  1.0000
  H   H1490     1.0  0.41657  0.11120  0.63052  1.0000
  C   C1836     1.0  0.42656  0.10389  0.64105  1.0000
  C   C1837     1.0  0.28384  0.47443  0.39355  1.0000
  H   H1491     1.0  0.42177  0.99755  0.41790  1.0000
  C   C1838     1.0  0.24919  0.44238  0.52932  1.0000
  C   C1839     1.0  0.43884  0.11511  0.64687  1.0000
  Fe  Fe114     1.0  0.24174  0.34432  0.49494  1.0000
  Fe  Fe115     1.0  0.24118  0.46144  0.35727  1.0000
  H   H1492     1.0  0.35792  0.06682  0.64873  1.0000
  C   C1840     1.0  0.29199  0.48557  0.45479  1.0000
  C   C1841     1.0  0.28139  0.48406  0.31741  1.0000
  H   H1493     1.0  0.33683  0.98611  0.40561  1.0000
  H   H1494     1.0  0.47817  0.12717  0.93420  1.0000
  H   H1495     1.0  0.32272  0.45408  0.96111  1.0000
  C   C1842     1.0  0.48877  0.28621  0.90039  1.0000
  Fe  Fe116     1.0  0.38970  0.00033  0.65227  1.0000
  C   C1843     1.0  0.23988  0.38514  0.94015  1.0000
  Fe  Fe117     1.0  0.34942  0.44396  0.73782  1.0000
  S   S245      1.0  0.37887  0.45107  0.71996  1.0000
  S   S246      1.0  0.32901  0.43142  0.72289  1.0000
  Fe  Fe118     1.0  0.35860  0.45301  0.77632  1.0000
  S   S247      1.0  0.38861  0.46076  0.76161  1.0000
  S   S248      1.0  0.34638  0.45766  0.80846  1.0000
  H   H1496     1.0  0.44010  0.45363  0.79532  1.0000
  Fe  Fe119     1.0  0.39245  0.43386  0.74663  1.0000
  S   S249      1.0  0.42448  0.41800  0.74069  1.0000
  S   S250      1.0  0.34239  0.47197  0.75179  1.0000
  S   S251      1.0  0.36352  0.42436  0.76361  1.0000
  H   H1497     1.0  0.31739  0.07402  0.83383  1.0000
  H   H1498     1.0  0.47291  0.34702  0.67751  1.0000
  H   H1499     1.0  0.42962  0.26197  0.76672  1.0000
  H   H1500     1.0  0.39215  0.19421  0.88127  1.0000
  C   C1844     1.0  0.48449  0.24620  0.72345  1.0000
  H   H1501     1.0  0.47786  0.09250  0.70792  1.0000
  H   H1502     1.0  0.24404  0.09148  0.91978  1.0000
  C   C1845     1.0  0.33965  0.47829  0.65610  1.0000
  C   C1846     1.0  0.31122  0.45535  0.97425  1.0000
  Fe  Fe120     1.0  0.40507  0.00474  0.69040  1.0000
  S   S252      1.0  0.43175  0.01766  0.67264  1.0000
  S   S253      1.0  0.40001  0.99983  0.72463  1.0000
  H   H1503     1.0  0.28571  0.99943  0.92302  1.0000
  S   S254      1.0  0.27472  0.05168  0.92936  1.0000
  C   C1847     1.0  0.28581  0.47623  0.70251  1.0000
  S   S255      1.0  0.38309  0.02475  0.67171  1.0000
  Fe  Fe121     1.0  0.39836  0.04962  0.83710  1.0000
  S   S256      1.0  0.41336  0.07407  0.81642  1.0000
  S   S257      1.0  0.36454  0.05065  0.84592  1.0000
  Fe  Fe122     1.0  0.43856  0.02394  0.84359  1.0000
  S   S258      1.0  0.45643  0.04610  0.82327  1.0000
  Fe  Fe123     1.0  0.43470  0.06920  0.83885  1.0000
  S   S259      1.0  0.44394  0.09523  0.84935  1.0000
  Fe  Fe124     1.0  0.43380  0.04849  0.80299  1.0000
  S   S260      1.0  0.44412  0.04597  0.77001  1.0000
  S   S261      1.0  0.41793  0.04671  0.86057  1.0000
  S   S262      1.0  0.41763  0.02476  0.82234  1.0000
  C   C1848     1.0  0.41133  0.47260  0.79868  1.0000
  Fe  Fe125     1.0  0.32385  0.40291  0.94020  1.0000
  S   S263      1.0  0.34122  0.37587  0.92720  1.0000
  S   S264      1.0  0.29128  0.41747  0.94204  1.0000
  Fe  Fe126     1.0  0.36093  0.41399  0.94991  1.0000
  S   S265      1.0  0.38164  0.38841  0.93723  1.0000
  C   C1849     1.0  0.41991  0.18263  0.86363  1.0000
  Fe  Fe127     1.0  0.36350  0.39621  0.91208  1.0000
  S   S266      1.0  0.37934  0.39483  0.88016  1.0000
  Fe  Fe128     1.0  0.35802  0.37013  0.95331  1.0000
  S   S267      1.0  0.34510  0.42363  0.92327  1.0000
  H   H1504     1.0  0.41708  0.25913  0.73612  1.0000
  Fe  Fe129     1.0  0.43410  0.99421  0.65351  1.0000
  C   C1850     1.0  0.39070  0.10821  0.90279  1.0000
  C   C1851     1.0  0.33250  0.07528  0.93870  1.0000
  C   C1852     1.0  0.39935  0.12041  0.88591  1.0000
  H   H1505     1.0  0.28194  0.46101  0.84367  1.0000
  C   C1853     1.0  0.27188  0.40461  0.94119  1.0000
  C   C1854     1.0  0.27564  0.38437  0.93909  1.0000
  H   H1506     1.0  0.26841  0.40951  0.79668  1.0000
  S   S268      1.0  0.31413  0.99727  0.81589  1.0000
  H   H1507     1.0  0.28587  0.06579  0.85556  1.0000
  H   H1508     1.0  0.29082  0.37625  0.93781  1.0000
  H   H1509     1.0  0.26261  0.35907  0.93669  1.0000
  C   C1855     1.0  0.46616  0.09492  0.85916  1.0000
  C   C1856     1.0  0.46890  0.11234  0.86543  1.0000
  S   S269      1.0  0.33855  0.39524  0.96769  1.0000
  H   H1510     1.0  0.46010  0.15388  0.88256  1.0000
  H   H1511     1.0  0.45751  0.12557  0.86411  1.0000
  C   C1857     1.0  0.25964  0.04480  0.91488  1.0000
  C   C1858     1.0  0.41272  0.01221  0.73726  1.0000
  C   C1859     1.0  0.40560  0.01383  0.75757  1.0000
  C   C1860     1.0  0.41486  0.02435  0.76773  1.0000
  C   C1861     1.0  0.43167  0.03293  0.75781  1.0000
  C   C1862     1.0  0.43892  0.03108  0.73761  1.0000
  C   C1863     1.0  0.42954  0.02076  0.72741  1.0000
  H   H1512     1.0  0.29479  0.12142  0.71438  1.0000
  H   H1513     1.0  0.40898  0.02575  0.78321  1.0000
  H   H1514     1.0  0.45168  0.03792  0.72969  1.0000
  H   H1515     1.0  0.43540  0.01945  0.71193  1.0000
  C   C1864     1.0  0.26899  0.03703  0.89734  1.0000
  C   C1865     1.0  0.25782  0.02994  0.88607  1.0000
  H   H1516     1.0  0.28504  0.03604  0.89270  1.0000
  H   H1517     1.0  0.26527  0.02348  0.87288  1.0000
  C   C1866     1.0  0.32811  0.01164  0.82493  1.0000
  C   C1867     1.0  0.34747  0.01402  0.81464  1.0000
  C   C1868     1.0  0.35904  0.02538  0.82122  1.0000
  C   C1869     1.0  0.35132  0.03462  0.83816  1.0000
  C   C1870     1.0  0.33219  0.03180  0.84876  1.0000
  C   C1871     1.0  0.32059  0.02047  0.84214  1.0000
  C   C1872     1.0  0.48498  0.41778  0.83070  1.0000
  H   H1518     1.0  0.37373  0.02734  0.81291  1.0000
  H   H1519     1.0  0.32609  0.03881  0.86192  1.0000
  H   H1520     1.0  0.30573  0.01879  0.85023  1.0000
  C   C1873     1.0  0.43128  0.39225  0.74932  1.0000
  C   C1874     1.0  0.41691  0.37992  0.75779  1.0000
  C   C1875     1.0  0.42305  0.35955  0.76527  1.0000
  C   C1876     1.0  0.44350  0.35145  0.76407  1.0000
  C   C1877     1.0  0.45783  0.36367  0.75509  1.0000
  C   C1878     1.0  0.45170  0.38403  0.74776  1.0000
  H   H1521     1.0  0.40113  0.38615  0.75889  1.0000
  H   H1522     1.0  0.41192  0.35009  0.77214  1.0000
  H   H1523     1.0  0.47364  0.35754  0.75407  1.0000
  H   H1524     1.0  0.46280  0.39352  0.74108  1.0000
  C   C1879     1.0  0.35579  0.44004  0.82814  1.0000
  C   C1880     1.0  0.37214  0.42486  0.82434  1.0000
  C   C1881     1.0  0.37933  0.41116  0.84044  1.0000
  C   C1882     1.0  0.37012  0.41245  0.86036  1.0000
  C   C1883     1.0  0.35375  0.42760  0.86412  1.0000
  C   C1884     1.0  0.34671  0.44142  0.84806  1.0000
  H   H1525     1.0  0.37930  0.42376  0.80902  1.0000
  H   H1526     1.0  0.39198  0.39945  0.83742  1.0000
  H   H1527     1.0  0.34642  0.42861  0.87936  1.0000
  H   H1528     1.0  0.33406  0.45311  0.85108  1.0000
  C   C1885     1.0  0.30642  0.47306  0.98244  1.0000
  S   S270      1.0  0.46754  0.21413  0.68726  1.0000
  H   H1529     1.0  0.30042  0.42235  0.89669  1.0000
  H   H1530     1.0  0.45736  0.23763  0.71910  1.0000
  C   C1886     1.0  0.45699  0.27687  0.96480  1.0000
  H   H1531     1.0  0.26017  0.13439  0.77088  1.0000
  C   C1887     1.0  0.24687  0.00538  0.97065  1.0000
  C   C1888     1.0  0.27023  0.12394  0.76207  1.0000
  C   C1889     1.0  0.45171  0.10587  0.66062  1.0000
  C   C1890     1.0  0.43840  0.34788  0.70545  1.0000
  H   H1532     1.0  0.28279  0.44197  0.67429  1.0000
  P   P62       1.0  0.45327  0.31118  0.69228  1.0000
  C   C1891     1.0  0.34630  0.11606  0.97093  1.0000
  C   C1892     1.0  0.43257  0.16581  0.90065  1.0000
  C   C1893     1.0  0.39050  0.14040  0.88096  1.0000
  C   C1894     1.0  0.27896  0.46789  0.68858  1.0000
  S   S271      1.0  0.45266  0.99399  0.85878  1.0000
  C   C1895     1.0  0.30164  0.46560  0.71253  1.0000
  C   C1896     1.0  0.31031  0.44613  0.70927  1.0000
  C   C1897     1.0  0.30336  0.43770  0.69544  1.0000
  C   C1898     1.0  0.28795  0.44862  0.68491  1.0000
  H   H1533     1.0  0.30993  0.42262  0.69286  1.0000
  C   C1899     1.0  0.25936  0.02330  0.75692  1.0000
  H   H1534     1.0  0.43418  0.46243  0.74816  1.0000
  H   H1535     1.0  0.27076  0.07012  0.74118  1.0000
  C   C1900     1.0  0.37610  0.06662  0.96272  1.0000
  H   H1536     1.0  0.26569  0.38273  0.86886  1.0000
  H   H1537     1.0  0.47392  0.99047  0.70129  1.0000
  C   C1901     1.0  0.42426  0.36522  0.70772  1.0000
  H   H1538     1.0  0.45868  0.15383  0.95967  1.0000
  Fe  Fe130     1.0  0.26384  0.06515  0.95792  1.0000
  H   H1539     1.0  0.46251  0.30762  0.73262  1.0000
  C   C1902     1.0  0.37301  0.14825  0.89297  1.0000
  C   C1903     1.0  0.34499  0.06604  0.89997  1.0000
  C   C1904     1.0  0.25526  0.39498  0.87476  1.0000
  S   S272      1.0  0.25349  0.01458  0.82522  1.0000
  H   H1540     1.0  0.39768  0.09266  0.90626  1.0000
  H   H1541     1.0  0.46549  0.26401  0.85989  1.0000
  C   C1905     1.0  0.39987  0.98988  0.88052  1.0000
  C   C1906     1.0  0.35524  0.07814  0.90703  1.0000
  H   H1542     1.0  0.41286  0.11431  0.87653  1.0000
  C   C1907     1.0  0.37291  0.11584  0.91475  1.0000
  H   H1543     1.0  0.48383  0.32020  0.93181  1.0000
  C   C1908     1.0  0.44976  0.98884  0.79117  1.0000
  H   H1544     1.0  0.47707  0.25454  0.73534  1.0000
  H   H1545     1.0  0.36785  0.08369  0.89709  1.0000
  C   C1909     1.0  0.43999  0.07414  0.66254  1.0000
  C   C1910     1.0  0.47895  0.25409  0.85469  1.0000
  H   H1546     1.0  0.30662  0.45152  0.90853  1.0000
  P   P63       1.0  0.36122  0.09945  0.93576  1.0000
  C   C1911     1.0  0.33848  0.01262  0.94342  1.0000
  C   C1912     1.0  0.44637  0.29494  0.71561  1.0000
  C   C1913     1.0  0.48611  0.11268  0.87356  1.0000
  S   S273      1.0  0.37130  0.43706  0.96270  1.0000
  H   H1547     1.0  0.29331  0.13612  0.95683  1.0000
  C   C1914     1.0  0.36420  0.13603  0.90980  1.0000
  C   C1915     1.0  0.35301  0.44593  0.67422  1.0000
  Fe  Fe131     1.0  0.37313  0.47734  0.73613  1.0000
  C   C1916     1.0  0.29146  0.47525  0.86438  1.0000
  S   S274      1.0  0.36657  0.33906  0.97082  1.0000
  S   S275      1.0  0.44980  0.17978  0.65740  1.0000
  H   H1548     1.0  0.45343  0.35442  0.83738  1.0000
  C   C1917     1.0  0.26091  0.41388  0.87276  1.0000
  H   H1549     1.0  0.34978  0.06250  0.88490  1.0000
  H   H1550     1.0  0.45217  0.28642  0.76482  1.0000
  S   S276      1.0  0.46746  0.11918  0.66859  1.0000
  C   C1918     1.0  0.43948  0.19765  0.97996  1.0000
  H   H1551     1.0  0.34952  0.02190  0.93559  1.0000
  H   H1552     1.0  0.36070  0.11005  0.97556  1.0000
  C   C1919     1.0  0.41128  0.08108  0.96253  1.0000
  H   H1553     1.0  0.42452  0.25130  0.97842  1.0000
  H   H1554     1.0  0.42681  0.37600  0.71610  1.0000
  H   H1555     1.0  0.31999  0.11966  0.93287  1.0000
  C   C1920     1.0  0.27800  0.41578  0.80364  1.0000
  C   C1921     1.0  0.29314  0.42560  0.79157  1.0000
  C   C1922     1.0  0.30573  0.43342  0.80048  1.0000
  C   C1923     1.0  0.30325  0.43142  0.82141  1.0000
  C   C1924     1.0  0.28804  0.42168  0.83370  1.0000
  C   C1925     1.0  0.27548  0.41375  0.82462  1.0000
  P   P64       1.0  0.28599  0.41787  0.86081  1.0000
  H   H1556     1.0  0.46086  0.46432  0.81356  1.0000
  C   C1926     1.0  0.30441  0.39658  0.86860  1.0000
  C   C1927     1.0  0.30014  0.38365  0.88687  1.0000
  C   C1928     1.0  0.31459  0.36750  0.89308  1.0000
  C   C1929     1.0  0.33363  0.36449  0.88143  1.0000
  C   C1930     1.0  0.33818  0.37756  0.86352  1.0000
  C   C1931     1.0  0.32366  0.39353  0.85710  1.0000
  C   C1932     1.0  0.32841  0.05875  0.91219  1.0000
  H   H1557     1.0  0.41300  0.47981  0.78310  1.0000
  H   H1558     1.0  0.46297  0.08970  0.77207  1.0000
  H   H1559     1.0  0.47485  0.00899  0.66144  1.0000
  H   H1560     1.0  0.25090  0.44413  0.87947  1.0000
  C   C1933     1.0  0.29124  0.43937  0.86898  1.0000
  C   C1934     1.0  0.28768  0.45869  0.85766  1.0000
  C   C1935     1.0  0.29844  0.47270  0.88263  1.0000
  C   C1936     1.0  0.31206  0.13270  0.97926  1.0000
  C   C1937     1.0  0.48501  0.18969  0.91628  1.0000
  C   C1938     1.0  0.29805  0.43699  0.88738  1.0000
  H   H1561     1.0  0.27202  0.14544  0.73464  1.0000
  H   H1562     1.0  0.29530  0.42699  0.77531  1.0000
  H   H1563     1.0  0.31764  0.44085  0.79117  1.0000
  H   H1564     1.0  0.31341  0.43728  0.82800  1.0000
  H   H1565     1.0  0.32020  0.04967  0.90666  1.0000
  H   H1566     1.0  0.28581  0.38620  0.89657  1.0000
  H   H1567     1.0  0.31117  0.35764  0.90720  1.0000
  H   H1568     1.0  0.34503  0.35233  0.88652  1.0000
  H   H1569     1.0  0.35314  0.37564  0.85481  1.0000
  H   H1570     1.0  0.32778  0.40367  0.84341  1.0000
  C   C1939     1.0  0.39161  0.15854  0.97964  1.0000
  C   C1940     1.0  0.41322  0.17696  0.90009  1.0000
  H   H1571     1.0  0.39557  0.38182  0.70174  1.0000
  H   H1572     1.0  0.30004  0.36191  0.97509  1.0000
  C   C1941     1.0  0.39749  0.09190  0.95031  1.0000
  H   H1573     1.0  0.44051  0.05842  0.66875  1.0000
  S   S277      1.0  0.25904  0.48217  0.67639  1.0000
  H   H1574     1.0  0.32577  0.31933  0.97257  1.0000
  C   C1942     1.0  0.33517  0.99700  0.93484  1.0000
  C   C1943     1.0  0.43535  0.33398  0.69434  1.0000
  H   H1575     1.0  0.48359  0.98663  0.88571  1.0000
  C   C1944     1.0  0.45299  0.29678  0.73307  1.0000
  H   H1576     1.0  0.35378  0.42015  0.66068  1.0000
  C   C1945     1.0  0.41657  0.13851  0.95840  1.0000
  C   C1946     1.0  0.42156  0.15603  0.94564  1.0000
  C   C1947     1.0  0.41186  0.17483  0.95046  1.0000
  P   P65       1.0  0.44132  0.15469  0.92414  1.0000
  C   C1948     1.0  0.45105  0.12866  0.92222  1.0000
  C   C1949     1.0  0.46945  0.11921  0.92805  1.0000
  Fe  Fe132     1.0  0.41039  0.03652  0.65314  1.0000
  C   C1950     1.0  0.46583  0.08839  0.91819  1.0000
  C   C1951     1.0  0.44733  0.09759  0.91268  1.0000
  C   C1952     1.0  0.43997  0.11766  0.91467  1.0000
  C   C1953     1.0  0.46046  0.16725  0.92828  1.0000
  C   C1954     1.0  0.46577  0.16397  0.94748  1.0000
  H   H1577     1.0  0.32729  0.07876  0.95369  1.0000
  C   C1955     1.0  0.32339  0.12148  0.94706  1.0000
  H   H1578     1.0  0.41239  0.16860  0.68369  1.0000
  C   C1956     1.0  0.47008  0.18036  0.91271  1.0000
  H   H1579     1.0  0.26388  0.40582  0.83362  1.0000
  H   H1580     1.0  0.47187  0.39884  0.88456  1.0000
  C   C1957     1.0  0.43299  0.28161  0.71693  1.0000
  H   H1581     1.0  0.42447  0.12380  0.95580  1.0000
  H   H1582     1.0  0.41599  0.18850  0.94120  1.0000
  H   H1583     1.0  0.40277  0.17900  0.91373  1.0000
  Fe  Fe133     1.0  0.47209  0.15131  0.65507  1.0000
  C   C1958     1.0  0.48268  0.22544  0.69873  1.0000
  C   C1959     1.0  0.27092  0.01666  0.77221  1.0000
  H   H1584     1.0  0.43904  0.08934  0.90623  1.0000
  H   H1585     1.0  0.42575  0.12470  0.91010  1.0000
  H   H1586     1.0  0.25643  0.01007  0.95671  1.0000
  H   H1587     1.0  0.45783  0.99123  0.75902  1.0000
  H   H1588     1.0  0.38922  0.35670  0.68336  1.0000
  Fe  Fe134     1.0  0.24145  0.99005  0.81607  1.0000
  H   H1589     1.0  0.46641  0.18327  0.89774  1.0000
  H   H1590     1.0  0.40689  0.47580  0.97550  1.0000
  H   H1591     1.0  0.36607  0.16373  0.88905  1.0000
  H   H1592     1.0  0.30950  0.05760  0.94118  1.0000
  S   S278      1.0  0.27715  0.09165  0.96015  1.0000
  H   H1593     1.0  0.47725  0.42195  0.68679  1.0000
  Fe  Fe135     1.0  0.28190  0.99235  0.82855  1.0000
  H   H1594     1.0  0.30671  0.47223  0.72322  1.0000
  C   C1960     1.0  0.40153  0.13978  0.97520  1.0000
  H   H1595     1.0  0.39011  0.99048  0.83389  1.0000
  H   H1596     1.0  0.35051  0.14234  0.91872  1.0000
  C   C1961     1.0  0.39684  0.17606  0.96734  1.0000
  C   C1962     1.0  0.40665  0.36850  0.69960  1.0000
  H   H1597     1.0  0.47926  0.06439  0.85613  1.0000
  C   C1963     1.0  0.44697  0.28489  0.75141  1.0000
  H   H1598     1.0  0.47629  0.03647  0.67944  1.0000
  C   C1964     1.0  0.46882  0.43297  0.82624  1.0000
  C   C1965     1.0  0.47284  0.45203  0.81648  1.0000
  P   P66       1.0  0.44336  0.42809  0.83472  1.0000
  C   C1966     1.0  0.42428  0.44825  0.82583  1.0000
  C   C1967     1.0  0.44127  0.40541  0.82625  1.0000
  C   C1968     1.0  0.43135  0.40644  0.81001  1.0000
  C   C1969     1.0  0.42946  0.38890  0.80381  1.0000
  C   C1970     1.0  0.43763  0.37015  0.81347  1.0000
  C   C1971     1.0  0.44741  0.36894  0.82970  1.0000
  C   C1972     1.0  0.44925  0.38645  0.83609  1.0000
  C   C1973     1.0  0.40606  0.45320  0.83858  1.0000
  C   C1974     1.0  0.39073  0.46774  0.83143  1.0000
  C   C1975     1.0  0.42668  0.45794  0.80572  1.0000
  C   C1976     1.0  0.43891  0.42464  0.86182  1.0000
  C   C1977     1.0  0.44650  0.43666  0.87181  1.0000
  H   H1599     1.0  0.40037  0.10615  0.94142  1.0000
  C   C1978     1.0  0.43016  0.42087  0.90390  1.0000
  C   C1979     1.0  0.42247  0.40899  0.89399  1.0000
  C   C1980     1.0  0.42666  0.41097  0.87305  1.0000
  H   H1600     1.0  0.39262  0.00726  0.76538  1.0000
  C   C1981     1.0  0.48043  0.38382  0.88627  1.0000
  C   C1982     1.0  0.44216  0.43474  0.89280  1.0000
  C   C1983     1.0  0.48381  0.02051  0.65433  1.0000
  C   C1984     1.0  0.48701  0.10443  0.97312  1.0000
  H   H1601     1.0  0.42474  0.42060  0.80212  1.0000
  H   H1602     1.0  0.42143  0.38994  0.79158  1.0000
  H   H1603     1.0  0.43625  0.35660  0.80839  1.0000
  C   C1985     1.0  0.42710  0.26965  0.73528  1.0000
  H   H1604     1.0  0.45659  0.38510  0.84890  1.0000
  H   H1605     1.0  0.40320  0.44537  0.85386  1.0000
  H   H1606     1.0  0.36529  0.47111  0.98270  1.0000
  C   C1986     1.0  0.27690  0.13016  0.74165  1.0000
  C   C1987     1.0  0.48487  0.03581  0.66451  1.0000
  C   C1988     1.0  0.48101  0.07789  0.86095  1.0000
  C   C1989     1.0  0.45267  0.29960  0.67107  1.0000
  H   H1607     1.0  0.41279  0.39854  0.90245  1.0000
  H   H1608     1.0  0.41983  0.40221  0.86566  1.0000
  C   C1990     1.0  0.25213  0.41502  0.94293  1.0000
  C   C1991     1.0  0.46408  0.44618  0.74958  1.0000
  C   C1992     1.0  0.34759  0.46676  0.67285  1.0000
  C   C1993     1.0  0.48411  0.33425  0.68164  1.0000
  H   H1609     1.0  0.38938  0.19055  0.97110  1.0000
  H   H1610     1.0  0.44788  0.44416  0.90045  1.0000
  C   C1994     1.0  0.40703  0.18550  0.88163  1.0000
  H   H1611     1.0  0.26451  0.05628  0.80430  1.0000
  H   H1612     1.0  0.46366  0.26950  0.68535  1.0000
  C   C1995     1.0  0.47278  0.09031  0.74022  1.0000
  C   C1996     1.0  0.38988  0.05591  0.97504  1.0000
  P   P67       1.0  0.46964  0.32622  0.89310  1.0000
  C   C1997     1.0  0.44363  0.33201  0.90464  1.0000
  H   H1613     1.0  0.31430  0.48553  0.97574  1.0000
  C   C1998     1.0  0.47081  0.36723  0.88867  1.0000
  H   H1614     1.0  0.27071  0.00174  0.78086  1.0000
  H   H1615     1.0  0.48789  0.12606  0.87850  1.0000
  H   H1616     1.0  0.34945  0.47359  0.68506  1.0000
  C   C1999     1.0  0.44824  0.31139  0.65287  1.0000
  C   C2000     1.0  0.42924  0.34268  0.89282  1.0000
  C   C2001     1.0  0.40908  0.34682  0.90146  1.0000
  C   C2002     1.0  0.40311  0.34071  0.92200  1.0000
  C   C2003     1.0  0.41731  0.33056  0.93400  1.0000
  C   C2004     1.0  0.43750  0.32620  0.92538  1.0000
  C   C2005     1.0  0.47069  0.32113  0.86807  1.0000
  H   H1617     1.0  0.48507  0.17015  0.96571  1.0000
  H   H1618     1.0  0.41408  0.32601  0.67919  1.0000
  C   C2006     1.0  0.47194  0.31373  0.82908  1.0000
  C   C2007     1.0  0.45645  0.30838  0.84441  1.0000
  C   C2008     1.0  0.45591  0.31185  0.86390  1.0000
  H   H1619     1.0  0.42477  0.08678  0.96279  1.0000
  H   H1620     1.0  0.38198  0.01094  0.86094  1.0000
  H   H1621     1.0  0.34378  0.99459  0.92034  1.0000
  H   H1622     1.0  0.45483  0.36980  0.88870  1.0000
  H   H1623     1.0  0.35883  0.43712  0.68735  1.0000
  H   H1624     1.0  0.35343  0.00733  0.80127  1.0000
  C   C2009     1.0  0.44875  0.46266  0.75176  1.0000
  C   C2010     1.0  0.39243  0.25585  0.98083  1.0000
  H   H1625     1.0  0.43351  0.34786  0.87690  1.0000
  H   H1626     1.0  0.39804  0.35488  0.89223  1.0000
  H   H1627     1.0  0.38746  0.34402  0.92868  1.0000
  H   H1628     1.0  0.41256  0.32621  0.95002  1.0000
  H   H1629     1.0  0.44817  0.31848  0.93501  1.0000
  H   H1630     1.0  0.37647  0.47088  0.84110  1.0000
  H   H1631     1.0  0.44314  0.30568  0.97320  1.0000
  C   C2011     1.0  0.45161  0.21111  0.98156  1.0000
  H   H1632     1.0  0.44489  0.30153  0.84110  1.0000
  H   H1633     1.0  0.44392  0.30735  0.87564  1.0000
  C   C2012     1.0  0.37988  0.08463  0.95014  1.0000
  C   C2013     1.0  0.34885  0.08316  0.92641  1.0000
  H   H1634     1.0  0.40708  0.19130  0.70875  1.0000
  C   C2014     1.0  0.34249  0.11376  0.95223  1.0000
  Fe  Fe136     1.0  0.47500  0.19359  0.66308  1.0000
  H   H1635     1.0  0.47245  0.24738  0.96060  1.0000
  C   C2015     1.0  0.40207  0.06627  0.70118  1.0000
  C   C2016     1.0  0.38692  0.07609  0.69020  1.0000
  C   C2017     1.0  0.37782  0.09573  0.69236  1.0000
  C   C2018     1.0  0.38384  0.10554  0.70556  1.0000
  C   C2019     1.0  0.39944  0.09594  0.71623  1.0000
  C   C2020     1.0  0.40829  0.07612  0.71419  1.0000
  P   P68       1.0  0.40591  0.10777  0.73466  1.0000
  C   C2021     1.0  0.38944  0.10049  0.75770  1.0000
  C   C2022     1.0  0.43189  0.09965  0.73719  1.0000
  C   C2023     1.0  0.44643  0.09806  0.71993  1.0000
  H   H1636     1.0  0.25966  0.05661  0.84073  1.0000
  H   H1637     1.0  0.45549  0.44774  0.86336  1.0000
  C   C2024     1.0  0.45839  0.09217  0.75747  1.0000
  C   C2025     1.0  0.43800  0.09698  0.75597  1.0000
  C   C2026     1.0  0.37189  0.11338  0.76423  1.0000
  C   C2027     1.0  0.35895  0.10704  0.78177  1.0000
  C   C2028     1.0  0.36323  0.08768  0.79259  1.0000
  C   C2029     1.0  0.38022  0.07454  0.78568  1.0000
  C   C2030     1.0  0.39327  0.08091  0.76834  1.0000
  C   C2031     1.0  0.40443  0.13448  0.72650  1.0000
  C   C2032     1.0  0.40856  0.14226  0.70592  1.0000
  H   H1638     1.0  0.46762  0.08318  0.97368  1.0000
  C   C2033     1.0  0.40608  0.17553  0.71373  1.0000
  C   C2034     1.0  0.40248  0.16782  0.73426  1.0000
  C   C2035     1.0  0.40181  0.14733  0.74065  1.0000
  H   H1639     1.0  0.40906  0.05104  0.69945  1.0000
  H   H1640     1.0  0.38240  0.06854  0.67984  1.0000
  H   H1641     1.0  0.36618  0.10333  0.68370  1.0000
  H   H1642     1.0  0.37635  0.12060  0.70739  1.0000
  H   H1643     1.0  0.41992  0.06827  0.72273  1.0000
  H   H1644     1.0  0.44202  0.10097  0.70525  1.0000
  C   C2036     1.0  0.24703  0.42943  0.88068  1.0000
  C   C2037     1.0  0.25967  0.37469  0.93847  1.0000
  H   H1645     1.0  0.42703  0.28045  0.70387  1.0000
  H   H1646     1.0  0.42713  0.09857  0.76948  1.0000
  H   H1647     1.0  0.36812  0.12823  0.75578  1.0000
  H   H1648     1.0  0.34563  0.11713  0.78702  1.0000
  H   H1649     1.0  0.35348  0.08277  0.80637  1.0000
  H   H1650     1.0  0.38344  0.05947  0.79393  1.0000
  H   H1651     1.0  0.40632  0.07051  0.76314  1.0000
  H   H1652     1.0  0.41203  0.13246  0.69470  1.0000
  C   C2038     1.0  0.46679  0.09335  0.72144  1.0000
  C   C2039     1.0  0.40908  0.16274  0.69959  1.0000
  H   H1653     1.0  0.40072  0.17766  0.74520  1.0000
  H   H1654     1.0  0.39988  0.14144  0.75659  1.0000
  H   H1655     1.0  0.45260  0.22410  0.97007  1.0000
  C   C2040     1.0  0.45897  0.27880  0.67192  1.0000
  C   C2041     1.0  0.46910  0.09645  0.97908  1.0000
  C   C2042     1.0  0.28240  0.02934  0.77658  1.0000
  C   C2043     1.0  0.28252  0.04879  0.76558  1.0000
  C   C2044     1.0  0.27105  0.05527  0.75001  1.0000
  P   P69       1.0  0.29756  0.06501  0.77133  1.0000
  C   C2045     1.0  0.32377  0.05760  0.76147  1.0000
  C   C2046     1.0  0.28947  0.09058  0.75984  1.0000
  C   C2047     1.0  0.29597  0.09692  0.73928  1.0000
  C   C2048     1.0  0.40313  0.35438  0.68920  1.0000
  H   H1656     1.0  0.47248  0.00767  0.81862  1.0000
  H   H1657     1.0  0.46196  0.07808  0.67917  1.0000
  C   C2049     1.0  0.27644  0.10422  0.77116  1.0000
  C   C2050     1.0  0.33153  0.03766  0.75879  1.0000
  C   C2051     1.0  0.35148  0.03249  0.74982  1.0000
  C   C2052     1.0  0.36380  0.04712  0.74355  1.0000
  C   C2053     1.0  0.35639  0.06682  0.74669  1.0000
  C   C2054     1.0  0.33655  0.07203  0.75580  1.0000
  C   C2055     1.0  0.29425  0.06423  0.79819  1.0000
  C   C2056     1.0  0.27631  0.05991  0.81055  1.0000
  C   C2057     1.0  0.27336  0.06036  0.83118  1.0000
  C   C2058     1.0  0.28809  0.06560  0.83954  1.0000
  C   C2059     1.0  0.30583  0.07027  0.82728  1.0000
  C   C2060     1.0  0.30902  0.06936  0.80673  1.0000
  H   H1658     1.0  0.30545  0.42546  0.97677  1.0000
  C   C2061     1.0  0.32721  0.01665  0.96186  1.0000
  C   C2062     1.0  0.47336  0.23652  0.71422  1.0000
  H   H1659     1.0  0.29108  0.02402  0.78866  1.0000
  H   H1660     1.0  0.41616  0.43904  0.97622  1.0000
  H   H1661     1.0  0.30575  0.08654  0.73019  1.0000
  H   H1662     1.0  0.44457  0.32758  0.65146  1.0000
  C   C2063     1.0  0.44526  0.16275  0.88248  1.0000
  S   S279      1.0  0.45083  0.32626  0.77454  1.0000
  H   H1663     1.0  0.27095  0.09972  0.78695  1.0000
  H   H1664     1.0  0.32232  0.02604  0.76343  1.0000
  H   H1665     1.0  0.35741  0.01715  0.74752  1.0000
  H   H1666     1.0  0.37911  0.04318  0.73625  1.0000
  H   H1667     1.0  0.36604  0.07805  0.74193  1.0000
  H   H1668     1.0  0.33117  0.08738  0.75818  1.0000
  C   C2064     1.0  0.48692  0.32250  0.83326  1.0000
  C   C2065     1.0  0.45218  0.08535  0.66842  1.0000
  C   C2066     1.0  0.43896  0.17111  0.86407  1.0000
  H   H1669     1.0  0.39716  0.14968  0.86770  1.0000
  H   H1670     1.0  0.32299  0.07266  0.79759  1.0000
  H   H1671     1.0  0.45569  0.28163  0.94908  1.0000
  H   H1672     1.0  0.45154  0.34523  0.71264  1.0000
  C   C2067     1.0  0.32230  0.06326  0.93160  1.0000
  C   C2068     1.0  0.28974  0.11664  0.73026  1.0000
  H   H1673     1.0  0.47512  0.26182  0.82359  1.0000
  C   C2069     1.0  0.47097  0.47946  0.76319  1.0000
  H   H1674     1.0  0.39282  0.25292  0.96585  1.0000
  H   H1675     1.0  0.32946  0.02905  0.96832  1.0000
  C   C2070     1.0  0.39333  0.47739  0.81149  1.0000
  C   C2071     1.0  0.48182  0.34766  0.89095  1.0000
  C   C2072     1.0  0.48759  0.30606  0.92616  1.0000
  H   H1676     1.0  0.47189  0.07306  0.91600  1.0000
  H   H1677     1.0  0.44887  0.16857  0.85013  1.0000
  C   C2073     1.0  0.47881  0.31520  0.68938  1.0000
  H   H1678     1.0  0.41506  0.18913  0.84933  1.0000
  H   H1679     1.0  0.46092  0.43333  0.74462  1.0000
  H   H1680     1.0  0.36223  0.06116  0.96355  1.0000
  C   C2074     1.0  0.25804  0.98822  0.92731  1.0000
  C   C2075     1.0  0.41735  0.33709  0.68669  1.0000
  H   H1681     1.0  0.47244  0.31098  0.81397  1.0000
  H   H1682     1.0  0.37735  0.47650  0.94441  1.0000
  C   C2076     1.0  0.47688  0.09919  0.92585  1.0000
  C   C2077     1.0  0.30824  0.13083  0.96057  1.0000
  H   H1683     1.0  0.48250  0.40310  0.83864  1.0000
  H   H1684     1.0  0.45759  0.00076  0.79190  1.0000
  H   H1685     1.0  0.24977  0.00249  0.92168  1.0000
  C   C2078     1.0  0.43416  0.27122  0.75250  1.0000
  C   C2079     1.0  0.45234  0.47952  0.75809  1.0000
  C   C2080     1.0  0.40744  0.06316  0.97497  1.0000
  C   C2081     1.0  0.31271  0.00497  0.97180  1.0000
  C   C2082     1.0  0.48334  0.44671  0.75309  1.0000
  C   C2083     1.0  0.30161  0.45359  0.89416  1.0000
  H   H1686     1.0  0.24913  0.43065  0.94470  1.0000
  H   H1687     1.0  0.42650  0.41953  0.92013  1.0000
  H   H1688     1.0  0.48415  0.37164  0.79914  1.0000
  C   C2084     1.0  0.46616  0.25731  0.97147  1.0000
  C   C2085     1.0  0.45001  0.29041  0.97830  1.0000
  C   C2086     1.0  0.25946  0.04258  0.74579  1.0000
  C   C2087     1.0  0.48069  0.17332  0.95098  1.0000
  H   H1689     1.0  0.47868  0.39948  0.77113  1.0000
  C   C2088     1.0  0.48293  0.30461  0.90756  1.0000
  H   H1690     1.0  0.43126  0.20059  0.96755  1.0000
  H   H1691     1.0  0.48601  0.28470  0.88586  1.0000
  H   H1692     1.0  0.24911  0.12590  0.92080  1.0000
  H   H1693     1.0  0.27911  0.39400  0.98168  1.0000
  H   H1694     1.0  0.29147  0.31067  0.97979  1.0000
  C   C2089     1.0  0.48645  0.32605  0.85267  1.0000
  C   C2090     1.0  0.39167  0.99652  0.86290  1.0000
  C   C2091     1.0  0.30943  0.98930  0.96332  1.0000
  H   H1695     1.0  0.48465  0.44040  0.71100  1.0000
  C   C2092     1.0  0.45941  0.26974  0.65533  1.0000
  C   C2093     1.0  0.48549  0.41392  0.69863  1.0000
  H   H1696     1.0  0.25015  0.01353  0.75389  1.0000
  H   H1697     1.0  0.35083  0.48354  0.92327  1.0000
  H   H1698     1.0  0.46399  0.25359  0.65633  1.0000
  H   H1699     1.0  0.48121  0.01699  0.75023  1.0000
  H   H1700     1.0  0.25042  0.04769  0.73397  1.0000
  Fe  Fe137     1.0  0.24250  0.00098  0.85693  1.0000
  C   C2094     1.0  0.48018  0.99305  0.82402  1.0000
  Fe  Fe138     1.0  0.24710  0.10267  0.97762  1.0000
  H   H1701     1.0  0.48704  0.24381  0.88410  1.0000
  C   C2095     1.0  0.48633  0.46300  0.76099  1.0000
  Fe  Fe139     1.0  0.48385  0.31438  0.76766  1.0000
  C   C2096     1.0  0.48428  0.25275  0.83427  1.0000
  H   H1702     1.0  0.39679  0.99932  0.89200  1.0000
  C   C2097     1.0  0.35019  0.43636  0.65916  1.0000
  C   C2098     1.0  0.25192  0.98663  0.98242  1.0000
  Fe  Fe140     1.0  0.24643  0.47358  0.65157  1.0000
  C   C2099     1.0  0.48954  0.42431  0.71253  1.0000
  H   H1703     1.0  0.48855  0.08670  0.74140  1.0000
  H   H1704     1.0  0.48866  0.38513  0.68948  1.0000
  H   H1705     1.0  0.30120  0.48552  0.88795  1.0000
  C   C2100     1.0  0.48923  0.12102  0.98087  1.0000
  C   C2101     1.0  0.27835  0.98637  0.92829  1.0000
  H   H1706     1.0  0.27238  0.49398  0.21312  1.0000
  S   S280      1.0  0.46269  0.55667  0.24438  1.0000
  H   H1707     1.0  0.48386  0.58595  0.00391  1.0000
  H   H1708     1.0  0.25107  0.86337  0.16031  1.0000
  C   C2102     1.0  0.26226  0.54118  0.28043  1.0000
  C   C2103     1.0  0.38599  0.93658  0.30954  1.0000
  Fe  Fe141     1.0  0.38113  0.50994  0.21460  1.0000
  C   C2104     1.0  0.41830  0.80587  0.09559  1.0000
  S   S281      1.0  0.39624  0.53731  0.20204  1.0000
  S   S282      1.0  0.47142  0.68171  0.30649  1.0000
  C   C2105     1.0  0.41618  0.48956  0.28385  1.0000
  C   C2106     1.0  0.25689  0.88692  0.05645  1.0000
  S   S283      1.0  0.34866  0.50891  0.21462  1.0000
  C   C2107     1.0  0.26567  0.53750  0.19746  1.0000
  C   C2108     1.0  0.47373  0.50734  0.21934  1.0000
  C   C2109     1.0  0.24233  0.51785  0.06834  1.0000
  H   H1709     1.0  0.26316  0.54395  0.99243  1.0000
  Fe  Fe142     1.0  0.48698  0.57413  0.22707  1.0000
  C   C2110     1.0  0.29897  0.72040  0.99557  1.0000
  S   S284      1.0  0.28213  0.93848  0.11257  1.0000
  S   S285      1.0  0.26732  0.90449  0.08434  1.0000
  Fe  Fe143     1.0  0.27191  0.93088  0.14557  1.0000
  S   S286      1.0  0.29295  0.92097  0.16845  1.0000
  Fe  Fe144     1.0  0.40836  0.89961  0.15846  1.0000
  S   S287      1.0  0.42348  0.86931  0.17221  1.0000
  S   S288      1.0  0.38659  0.90430  0.13663  1.0000
  Fe  Fe145     1.0  0.43336  0.92220  0.17489  1.0000
  S   S289      1.0  0.45055  0.89402  0.18976  1.0000
  S   S290      1.0  0.43980  0.95229  0.17733  1.0000
  Fe  Fe146     1.0  0.45194  0.88223  0.16129  1.0000
  S   S291      1.0  0.48239  0.86822  0.14665  1.0000
  Fe  Fe147     1.0  0.42083  0.88379  0.19958  1.0000
  S   S292      1.0  0.41085  0.86927  0.23173  1.0000
  S   S293      1.0  0.43710  0.91144  0.14559  1.0000
  S   S294      1.0  0.40329  0.91307  0.18659  1.0000
  C   C2111     1.0  0.48622  0.59242  0.28494  1.0000
  S   S295      1.0  0.31472  0.50783  0.02265  1.0000
  H   H1710     1.0  0.32796  0.95830  0.11247  1.0000
  Fe  Fe148     1.0  0.32727  0.51894  0.07107  1.0000
  S   S296      1.0  0.31881  0.54349  0.04565  1.0000
  C   C2112     1.0  0.37148  0.55325  0.99350  1.0000
  Fe  Fe149     1.0  0.29491  0.52574  0.04497  1.0000
  Fe  Fe150     1.0  0.33938  0.52335  0.02562  1.0000
  C   C2113     1.0  0.24097  0.51718  0.28033  1.0000
  H   H1711     1.0  0.41733  0.82346  0.25297  1.0000
  P   P70       1.0  0.26370  0.51647  0.14602  1.0000
  H   H1712     1.0  0.43232  0.95188  0.27182  1.0000
  C   C2114     1.0  0.26274  0.93906  0.00653  1.0000
  C   C2115     1.0  0.44958  0.48932  0.20255  1.0000
  C   C2116     1.0  0.29262  0.51825  0.16844  1.0000
  C   C2117     1.0  0.41888  0.58631  0.27968  1.0000
  C   C2118     1.0  0.46714  0.80990  0.02022  1.0000
  S   S297      1.0  0.43446  0.81834  0.00123  1.0000
  C   C2119     1.0  0.40073  0.58612  0.27344  1.0000
  C   C2120     1.0  0.27590  0.53357  0.26473  1.0000
  H   H1713     1.0  0.26712  0.94311  0.05569  1.0000
  H   H1714     1.0  0.33526  0.91655  0.99361  1.0000
  C   C2121     1.0  0.41425  0.91147  0.07518  1.0000
  Fe  Fe151     1.0  0.32338  0.48620  0.04947  1.0000
  C   C2122     1.0  0.27932  0.90386  0.99025  1.0000
  H   H1715     1.0  0.29540  0.54603  0.00182  1.0000
  C   C2123     1.0  0.45962  0.78383  0.27468  1.0000
  H   H1716     1.0  0.24925  0.87199  0.03492  1.0000
  H   H1717     1.0  0.47147  0.53095  0.19377  1.0000
  C   C2124     1.0  0.46010  0.81058  0.00230  1.0000
  C   C2125     1.0  0.28620  0.72087  0.01403  1.0000
  C   C2126     1.0  0.36474  0.56713  0.00670  1.0000
  H   H1718     1.0  0.38891  0.96374  0.17065  1.0000
  C   C2127     1.0  0.27325  0.95668  0.04893  1.0000
  C   C2128     1.0  0.29426  0.54712  0.98614  1.0000
  H   H1719     1.0  0.35336  0.56413  0.01964  1.0000
  C   C2129     1.0  0.37127  0.95520  0.22488  1.0000
  C   C2130     1.0  0.45096  0.60688  0.28620  1.0000
  S   S298      1.0  0.25062  0.95992  0.14693  1.0000
  C   C2131     1.0  0.48248  0.75001  0.99656  1.0000
  C   C2132     1.0  0.48580  0.86492  0.99195  1.0000
  C   C2133     1.0  0.48387  0.84843  0.13337  1.0000
  C   C2134     1.0  0.25873  0.53281  0.18141  1.0000
  C   C2135     1.0  0.46749  0.83877  0.13490  1.0000
  Fe  Fe152     1.0  0.25733  0.92339  0.10907  1.0000
  H   H1720     1.0  0.45342  0.84367  0.14408  1.0000
  C   C2136     1.0  0.42083  0.87650  0.25049  1.0000
  C   C2137     1.0  0.43952  0.88265  0.24612  1.0000
  C   C2138     1.0  0.44700  0.88899  0.26092  1.0000
  C   C2139     1.0  0.43575  0.88962  0.28015  1.0000
  C   C2140     1.0  0.40981  0.87642  0.27000  1.0000
  H   H1721     1.0  0.44836  0.88239  0.23138  1.0000
  H   H1722     1.0  0.46161  0.89344  0.25743  1.0000
  H   H1723     1.0  0.47313  0.84530  0.24594  1.0000
  H   H1724     1.0  0.45405  0.76780  0.00638  1.0000
  C   C2141     1.0  0.38754  0.58909  0.98639  1.0000
  C   C2142     1.0  0.47444  0.96639  0.17648  1.0000
  C   C2143     1.0  0.46588  0.95103  0.17266  1.0000
  C   C2144     1.0  0.47822  0.93462  0.16504  1.0000
  H   H1725     1.0  0.41076  0.86429  0.98965  1.0000
  C   C2145     1.0  0.38797  0.95335  0.27479  1.0000
  H   H1726     1.0  0.46359  0.66533  0.27409  1.0000
  C   C2146     1.0  0.31901  0.91662  0.15950  1.0000
  C   C2147     1.0  0.33256  0.91276  0.17313  1.0000
  C   C2148     1.0  0.35338  0.90911  0.16632  1.0000
  C   C2149     1.0  0.36071  0.90931  0.14582  1.0000
  C   C2150     1.0  0.34719  0.91335  0.13221  1.0000
  C   C2151     1.0  0.32645  0.91686  0.13903  1.0000
  H   H1727     1.0  0.32693  0.91244  0.18900  1.0000
  H   H1728     1.0  0.36371  0.90588  0.17693  1.0000
  H   H1729     1.0  0.35278  0.91336  0.11636  1.0000
  H   H1730     1.0  0.31627  0.91937  0.12843  1.0000
  H   H1731     1.0  0.39520  0.87198  0.27345  1.0000
  H   H1732     1.0  0.47139  0.72535  0.28543  1.0000
  H   H1733     1.0  0.33412  0.76460  0.30447  1.0000
  C   C2152     1.0  0.47048  0.61499  0.30846  1.0000
  H   H1734     1.0  0.28785  0.48833  0.00573  1.0000
  C   C2153     1.0  0.28772  0.90872  0.00515  1.0000
  S   S299      1.0  0.24371  0.86892  0.99458  1.0000
  C   C2154     1.0  0.36964  0.96575  0.28008  1.0000
  H   H1735     1.0  0.38008  0.56786  0.26977  1.0000
  H   H1736     1.0  0.38865  0.82213  0.09336  1.0000
  C   C2155     1.0  0.27220  0.52323  0.16669  1.0000
  H   H1737     1.0  0.28534  0.88999  0.98440  1.0000
  H   H1738     1.0  0.39655  0.89091  0.09427  1.0000
  H   H1739     1.0  0.35051  0.53277  0.13221  1.0000
  C   C2156     1.0  0.48942  0.80825  0.28673  1.0000
  C   C2157     1.0  0.27642  0.49136  0.14316  1.0000
  H   H1740     1.0  0.43115  0.53611  0.29628  1.0000
  H   H1741     1.0  0.39005  0.85805  0.11298  1.0000
  H   H1742     1.0  0.46171  0.82341  0.07470  1.0000
  H   H1743     1.0  0.46722  0.87481  0.03949  1.0000
  H   H1744     1.0  0.45491  0.94529  0.29851  1.0000
  C   C2158     1.0  0.45918  0.82047  0.24349  1.0000
  H   H1745     1.0  0.27693  0.59252  0.03190  1.0000
  H   H1746     1.0  0.26551  0.55305  0.28693  1.0000
  H   H1747     1.0  0.48292  0.70568  0.02600  1.0000
  C   C2159     1.0  0.41603  0.98375  0.12685  1.0000
  H   H1748     1.0  0.39581  0.91376  0.25137  1.0000
  C   C2160     1.0  0.48244  0.65235  0.00040  1.0000
  H   H1749     1.0  0.40924  0.92781  0.28580  1.0000
  H   H1750     1.0  0.42487  0.93328  0.21779  1.0000
  C   C2161     1.0  0.38495  0.65742  0.29186  1.0000
  H   H1751     1.0  0.44956  0.79321  0.09525  1.0000
  C   C2162     1.0  0.44464  0.55129  0.23211  1.0000
  C   C2163     1.0  0.43341  0.53617  0.24169  1.0000
  C   C2164     1.0  0.41874  0.53159  0.23254  1.0000
  C   C2165     1.0  0.41498  0.54229  0.21378  1.0000
  C   C2166     1.0  0.42624  0.55744  0.20417  1.0000
  C   C2167     1.0  0.44115  0.56183  0.21321  1.0000
  H   H1752     1.0  0.43620  0.52784  0.25618  1.0000
  H   H1753     1.0  0.41026  0.51989  0.24007  1.0000
  H   H1754     1.0  0.42346  0.56575  0.18963  1.0000
  H   H1755     1.0  0.44982  0.57342  0.20564  1.0000
  H   H1756     1.0  0.40841  0.88338  0.29963  1.0000
  C   C2168     1.0  0.25779  0.73484  0.99669  1.0000
  H   H1757     1.0  0.24617  0.52909  0.10891  1.0000
  C   C2169     1.0  0.29949  0.52292  0.18448  1.0000
  H   H1758     1.0  0.48004  0.67577  0.12483  1.0000
  C   C2170     1.0  0.42246  0.55012  0.29025  1.0000
  H   H1759     1.0  0.31530  0.51898  0.18567  1.0000
  H   H1760     1.0  0.45683  0.81485  0.12619  1.0000
  H   H1761     1.0  0.31492  0.71509  0.99512  1.0000
  C   C2171     1.0  0.46579  0.94710  0.30712  1.0000
  H   H1762     1.0  0.39217  0.48933  0.00702  1.0000
  H   H1763     1.0  0.44572  0.74382  0.30880  1.0000
  H   H1764     1.0  0.25612  0.72844  0.02909  1.0000
  C   C2172     1.0  0.46877  0.96632  0.30858  1.0000
  C   C2173     1.0  0.42907  0.81974  0.28075  1.0000
  H   H1765     1.0  0.47437  0.86171  0.30085  1.0000
  H   H1766     1.0  0.26061  0.58119  0.00819  1.0000
  C   C2174     1.0  0.46228  0.96418  0.11719  1.0000
  C   C2175     1.0  0.47434  0.77329  0.26157  1.0000
  H   H1767     1.0  0.32090  0.87659  0.09718  1.0000
  C   C2176     1.0  0.45303  0.81101  0.22995  1.0000
  H   H1768     1.0  0.32754  0.48769  0.11268  1.0000
  H   H1769     1.0  0.23969  0.97598  0.18791  1.0000
  H   H1770     1.0  0.43391  0.91020  0.02596  1.0000
  C   C2177     1.0  0.39688  0.95992  0.12108  1.0000
  C   C2178     1.0  0.38897  0.95663  0.14155  1.0000
  C   C2179     1.0  0.42563  0.90594  0.04080  1.0000
  C   C2180     1.0  0.46799  0.48899  0.22935  1.0000
  C   C2181     1.0  0.38485  0.94364  0.23719  1.0000
  C   C2182     1.0  0.38568  0.92280  0.24168  1.0000
  C   C2183     1.0  0.46741  0.93103  0.23647  1.0000
  H   H1771     1.0  0.44971  0.95631  0.11959  1.0000
  C   C2184     1.0  0.26077  0.59611  0.03281  1.0000
  C   C2185     1.0  0.37276  0.58499  0.00314  1.0000
  C   C2186     1.0  0.25455  0.93415  0.99137  1.0000
  C   C2187     1.0  0.39373  0.56802  0.27524  1.0000
  H   H1772     1.0  0.40118  0.49056  0.28075  1.0000
  H   H1773     1.0  0.39292  0.95151  0.11112  1.0000
  H   H1774     1.0  0.37894  0.94575  0.14731  1.0000
  Fe  Fe153     1.0  0.34900  0.49013  0.24542  1.0000
  C   C2188     1.0  0.42482  0.91704  0.05600  1.0000
  H   H1775     1.0  0.48234  0.51516  0.22579  1.0000
  S   S300      1.0  0.32261  0.50038  0.26888  1.0000
  H   H1776     1.0  0.37433  0.89736  0.23714  1.0000
  H   H1777     1.0  0.27911  0.49651  0.11083  1.0000
  H   H1778     1.0  0.28988  0.53929  0.25927  1.0000
  H   H1779     1.0  0.28582  0.92905  0.02541  1.0000
  H   H1780     1.0  0.46503  0.97868  0.18316  1.0000
  C   C2189     1.0  0.32145  0.97267  0.11713  1.0000
  H   H1781     1.0  0.47594  0.51657  0.26380  1.0000
  C   C2190     1.0  0.42394  0.82149  0.30123  1.0000
  H   H1782     1.0  0.41305  0.79254  0.10453  1.0000
  H   H1783     1.0  0.37829  0.67193  0.28453  1.0000
  H   H1784     1.0  0.41376  0.91982  0.08715  1.0000
  Fe  Fe154     1.0  0.24702  0.83830  0.98639  1.0000
  H   H1785     1.0  0.34900  0.95473  0.20696  1.0000
  C   C2191     1.0  0.45494  0.92885  0.22364  1.0000
  C   C2192     1.0  0.29311  0.49513  0.30168  1.0000
  C   C2193     1.0  0.46605  0.83951  0.28744  1.0000
  P   P71       1.0  0.42785  0.60989  0.27645  1.0000
  C   C2194     1.0  0.40836  0.62612  0.29014  1.0000
  C   C2195     1.0  0.43328  0.62042  0.25011  1.0000
  C   C2196     1.0  0.44086  0.63856  0.24452  1.0000
  C   C2197     1.0  0.44507  0.64702  0.22423  1.0000
  C   C2198     1.0  0.44203  0.63727  0.20935  1.0000
  C   C2199     1.0  0.43490  0.61900  0.21476  1.0000
  C   C2200     1.0  0.43070  0.61048  0.23504  1.0000
  H   H1786     1.0  0.43978  0.62764  0.30750  1.0000
  H   H1787     1.0  0.25440  0.55287  0.07790  1.0000
  H   H1788     1.0  0.36980  0.97138  0.22166  1.0000
  C   C2201     1.0  0.48160  0.95294  0.11637  1.0000
  C   C2202     1.0  0.27946  0.92618  0.01333  1.0000
  H   H1789     1.0  0.46762  0.58715  0.26557  1.0000
  C   C2203     1.0  0.47128  0.82017  0.28237  1.0000
  H   H1790     1.0  0.44369  0.64606  0.25588  1.0000
  H   H1791     1.0  0.45119  0.66086  0.22000  1.0000
  H   H1792     1.0  0.44585  0.64350  0.19359  1.0000
  H   H1793     1.0  0.43316  0.61110  0.20322  1.0000
  H   H1794     1.0  0.42599  0.59594  0.23870  1.0000
  C   C2204     1.0  0.46816  0.59474  0.27777  1.0000
  C   C2205     1.0  0.45236  0.61731  0.30138  1.0000
  H   H1795     1.0  0.35505  0.51013  0.16447  1.0000
  C   C2206     1.0  0.48089  0.66992  0.98623  1.0000
  C   C2207     1.0  0.46752  0.51648  0.20104  1.0000
  H   H1796     1.0  0.37385  0.83836  0.30378  1.0000
  H   H1797     1.0  0.36133  0.86376  0.13996  1.0000
  C   C2208     1.0  0.41130  0.84006  0.07786  1.0000
  H   H1798     1.0  0.29148  0.53622  0.21136  1.0000
  C   C2209     1.0  0.40622  0.98454  0.21524  1.0000
  C   C2210     1.0  0.34911  0.50513  0.15322  1.0000
  S   S301      1.0  0.26437  0.54039  0.03721  1.0000
  C   C2211     1.0  0.42825  0.64680  0.02683  1.0000
  C   C2212     1.0  0.43372  0.62812  0.02052  1.0000
  C   C2213     1.0  0.44864  0.61385  0.02870  1.0000
  C   C2214     1.0  0.45825  0.61825  0.04304  1.0000
  C   C2215     1.0  0.45286  0.63702  0.04952  1.0000
  C   C2216     1.0  0.43764  0.65119  0.04134  1.0000
  P   P72       1.0  0.46449  0.64297  0.06865  1.0000
  C   C2217     1.0  0.47809  0.62074  0.08206  1.0000
  C   C2218     1.0  0.48127  0.66094  0.05779  1.0000
  C   C2219     1.0  0.45511  0.50768  0.19285  1.0000
  C   C2220     1.0  0.47848  0.75227  0.26537  1.0000
  S   S302      1.0  0.24850  0.91359  0.14245  1.0000
  H   H1799     1.0  0.29228  0.71590  0.02790  1.0000
  C   C2221     1.0  0.47519  0.67813  0.04417  1.0000
  C   C2222     1.0  0.47277  0.61510  0.10296  1.0000
  C   C2223     1.0  0.46807  0.74164  0.28234  1.0000
  C   C2224     1.0  0.28706  0.96247  0.05810  1.0000
  C   C2225     1.0  0.43202  0.84014  0.07236  1.0000
  C   C2226     1.0  0.36031  0.92503  0.22114  1.0000
  C   C2227     1.0  0.44468  0.65429  0.08638  1.0000
  C   C2228     1.0  0.42636  0.64709  0.09182  1.0000
  C   C2229     1.0  0.41113  0.65552  0.10589  1.0000
  C   C2230     1.0  0.41414  0.67105  0.11474  1.0000
  C   C2231     1.0  0.43242  0.67813  0.10958  1.0000
  C   C2232     1.0  0.44768  0.66974  0.09550  1.0000
  H   H1800     1.0  0.41659  0.65781  0.02052  1.0000
  H   H1801     1.0  0.42636  0.62467  0.00933  1.0000
  H   H1802     1.0  0.45276  0.59933  0.02386  1.0000
  H   H1803     1.0  0.46965  0.60677  0.04900  1.0000
  H   H1804     1.0  0.43271  0.66556  0.04637  1.0000
  C   C2233     1.0  0.40180  0.61979  0.31068  1.0000
  C   C2234     1.0  0.37342  0.91353  0.23375  1.0000
  C   C2235     1.0  0.48736  0.60245  0.30034  1.0000
  Fe  Fe155     1.0  0.25891  0.96610  0.11345  1.0000
  H   H1805     1.0  0.46085  0.68055  0.03927  1.0000
  H   H1806     1.0  0.46013  0.62347  0.11148  1.0000
  C   C2236     1.0  0.29482  0.98011  0.05000  1.0000
  C   C2237     1.0  0.33891  0.51162  0.12019  1.0000
  C   C2238     1.0  0.41892  0.49189  0.30279  1.0000
  H   H1807     1.0  0.45670  0.81369  0.03341  1.0000
  H   H1808     1.0  0.42389  0.63488  0.08529  1.0000
  H   H1809     1.0  0.39702  0.64991  0.11000  1.0000
  H   H1810     1.0  0.40234  0.67754  0.12567  1.0000
  H   H1811     1.0  0.43480  0.69007  0.11654  1.0000
  H   H1812     1.0  0.46181  0.67522  0.09188  1.0000
  C   C2239     1.0  0.47362  0.80546  0.98539  1.0000
  C   C2240     1.0  0.24065  0.98159  0.00149  1.0000
  H   H1813     1.0  0.34567  0.97341  0.30408  1.0000
  H   H1814     1.0  0.48380  0.64040  0.25312  1.0000
  C   C2241     1.0  0.41390  0.82427  0.26885  1.0000
  C   C2242     1.0  0.43828  0.49008  0.30692  1.0000
  C   C2243     1.0  0.46855  0.83740  0.23597  1.0000
  C   C2244     1.0  0.24485  0.53292  0.28829  1.0000
  C   C2245     1.0  0.24120  0.94506  0.20142  1.0000
  C   C2246     1.0  0.46570  0.83510  0.20196  1.0000
  C   C2247     1.0  0.24367  0.87926  0.04794  1.0000
  S   S303      1.0  0.44532  0.89920  0.29757  1.0000
  H   H1815     1.0  0.25628  0.61147  0.05813  1.0000
  C   C2248     1.0  0.27216  0.51771  0.25685  1.0000
  C   C2249     1.0  0.39959  0.64492  0.28072  1.0000
  H   H1816     1.0  0.40948  0.97236  0.20660  1.0000
  C   C2250     1.0  0.25462  0.50946  0.26453  1.0000
  C   C2251     1.0  0.41038  0.97343  0.11372  1.0000
  C   C2252     1.0  0.43419  0.93475  0.22820  1.0000
  H   H1817     1.0  0.47178  0.92271  0.16200  1.0000
  H   H1818     1.0  0.43447  0.74946  0.99180  1.0000
  H   H1819     1.0  0.48348  0.92648  0.23283  1.0000
  C   C2253     1.0  0.26744  0.96831  0.03119  1.0000
  H   H1820     1.0  0.43250  0.92986  0.05300  1.0000
  C   C2254     1.0  0.40461  0.55003  0.28361  1.0000
  H   H1821     1.0  0.27258  0.88549  0.04985  1.0000
  H   H1822     1.0  0.36283  0.97673  0.26872  1.0000
  C   C2255     1.0  0.47324  0.87391  0.00762  1.0000
  C   C2256     1.0  0.42957  0.56818  0.28838  1.0000
  H   H1823     1.0  0.25617  0.51200  0.07413  1.0000
  C   C2257     1.0  0.45063  0.74521  0.99024  1.0000
  C   C2258     1.0  0.27002  0.53373  0.12308  1.0000
  C   C2259     1.0  0.28631  0.54393  0.12039  1.0000
  C   C2260     1.0  0.29087  0.55731  0.10264  1.0000
  C   C2261     1.0  0.27938  0.56052  0.08738  1.0000
  C   C2262     1.0  0.26318  0.55046  0.08987  1.0000
  C   C2263     1.0  0.38915  0.83281  0.29749  1.0000
  H   H1824     1.0  0.24135  0.94350  0.98626  1.0000
  C   C2264     1.0  0.24913  0.60668  0.04763  1.0000
  H   H1825     1.0  0.41683  0.97541  0.09792  1.0000
  C   C2265     1.0  0.25857  0.53702  0.10755  1.0000
  S   S304      1.0  0.30168  0.50282  0.07189  1.0000
  C   C2266     1.0  0.24233  0.53156  0.05038  1.0000
  H   H1826     1.0  0.46810  0.84087  0.18595  1.0000
  C   C2267     1.0  0.40454  0.82269  0.08931  1.0000
  H   H1827     1.0  0.29589  0.54139  0.13163  1.0000
  H   H1828     1.0  0.30385  0.56466  0.10048  1.0000
  H   H1829     1.0  0.28329  0.57051  0.07345  1.0000
  C   C2268     1.0  0.44571  0.82329  0.07869  1.0000
  C   C2269     1.0  0.47864  0.84679  0.29689  1.0000
  C   C2270     1.0  0.39579  0.93838  0.28959  1.0000
  C   C2271     1.0  0.33929  0.87026  0.12031  1.0000
  H   H1830     1.0  0.44928  0.51540  0.17934  1.0000
  H   H1831     1.0  0.46882  0.94027  0.26411  1.0000
  C   C2272     1.0  0.40788  0.98043  0.14737  1.0000
  H   H1832     1.0  0.35112  0.91773  0.21470  1.0000
  H   H1833     1.0  0.29022  0.51132  0.29978  1.0000
  H   H1834     1.0  0.44551  0.79812  0.23539  1.0000
  H   H1835     1.0  0.30333  0.51079  0.15734  1.0000
  P   P73       1.0  0.39339  0.86145  0.06930  1.0000
  C   C2273     1.0  0.38597  0.85797  0.04655  1.0000
  C   C2274     1.0  0.37201  0.86434  0.08923  1.0000
  C   C2275     1.0  0.35232  0.86940  0.08504  1.0000
  C   C2276     1.0  0.33605  0.87240  0.10053  1.0000
  C   C2277     1.0  0.39403  0.83071  0.27722  1.0000
  C   C2278     1.0  0.35877  0.86494  0.12467  1.0000
  C   C2279     1.0  0.37504  0.86185  0.10926  1.0000
  C   C2280     1.0  0.37516  0.87416  0.03508  1.0000
  C   C2281     1.0  0.36905  0.87151  0.01768  1.0000
  C   C2282     1.0  0.37385  0.85274  0.01147  1.0000
  C   C2283     1.0  0.38495  0.83671  0.02257  1.0000
  C   C2284     1.0  0.39104  0.83926  0.04000  1.0000
  C   C2285     1.0  0.40511  0.88362  0.06403  1.0000
  C   C2286     1.0  0.45910  0.93883  0.25409  1.0000
  C   C2287     1.0  0.45353  0.75204  0.29549  1.0000
  C   C2288     1.0  0.43837  0.94511  0.25852  1.0000
  H   H1836     1.0  0.47140  0.64259  0.00283  1.0000
  C   C2289     1.0  0.41592  0.88923  0.04480  1.0000
  C   C2290     1.0  0.26268  0.91648  0.98347  1.0000
  H   H1837     1.0  0.45220  0.84896  0.28411  1.0000
  S   S305      1.0  0.33589  0.52822  0.09755  1.0000
  C   C2291     1.0  0.46167  0.75551  0.99850  1.0000
  C   C2292     1.0  0.34650  0.51793  0.13496  1.0000
  H   H1838     1.0  0.34932  0.87114  0.06992  1.0000
  C   C2293     1.0  0.47867  0.65869  0.27654  1.0000
  H   H1839     1.0  0.44677  0.85652  0.99100  1.0000
  C   C2294     1.0  0.42573  0.94309  0.24561  1.0000
  H   H1840     1.0  0.38259  0.83481  0.26769  1.0000
  H   H1841     1.0  0.37127  0.88875  0.03978  1.0000
  H   H1842     1.0  0.36051  0.88393  0.00903  1.0000
  S   S306      1.0  0.38063  0.49359  0.24613  1.0000
  H   H1843     1.0  0.38907  0.82224  0.01754  1.0000
  H   H1844     1.0  0.39980  0.82657  0.04811  1.0000
  C   C2295     1.0  0.47187  0.84459  0.21529  1.0000
  S   S307      1.0  0.48498  0.60773  0.22186  1.0000
  C   C2296     1.0  0.30709  0.97338  0.13451  1.0000
  S   S308      1.0  0.36144  0.53088  0.99729  1.0000
  H   H1845     1.0  0.41710  0.88051  0.03299  1.0000
  H   H1846     1.0  0.24510  0.86635  0.12532  1.0000
  H   H1847     1.0  0.45130  0.81117  0.19891  1.0000
  C   C2297     1.0  0.46946  0.82245  0.12478  1.0000
  H   H1848     1.0  0.43771  0.85313  0.06326  1.0000
  S   S309      1.0  0.34963  0.50011  0.05098  1.0000
  H   H1849     1.0  0.39944  0.53597  0.28448  1.0000
  H   H1850     1.0  0.28333  0.51161  0.24522  1.0000
  H   H1851     1.0  0.46142  0.92281  0.20999  1.0000
  C   C2298     1.0  0.40441  0.89488  0.07919  1.0000
  C   C2299     1.0  0.43886  0.80619  0.09032  1.0000
  C   C2300     1.0  0.48768  0.80428  0.02116  1.0000
  C   C2301     1.0  0.25156  0.58980  0.01935  1.0000
  H   H1852     1.0  0.36916  0.85058  0.99798  1.0000
  H   H1853     1.0  0.36745  0.59570  0.01338  1.0000
  C   C2302     1.0  0.35923  0.94586  0.21671  1.0000
  H   H1854     1.0  0.44356  0.56773  0.29336  1.0000
  P   P74       1.0  0.39986  0.95526  0.24877  1.0000
  C   C2303     1.0  0.47713  0.86819  0.02735  1.0000
  H   H1855     1.0  0.39224  0.59992  0.26671  1.0000
  C   C2304     1.0  0.24997  0.89612  0.07356  1.0000
  H   H1856     1.0  0.30020  0.89854  0.01090  1.0000
  C   C2305     1.0  0.45626  0.81833  0.20929  1.0000
  C   C2306     1.0  0.48768  0.69255  0.03663  1.0000
  H   H1857     1.0  0.47898  0.85773  0.20957  1.0000
  P   P75       1.0  0.45478  0.81098  0.27022  1.0000
  C   C2307     1.0  0.40079  0.98073  0.23624  1.0000
  P   P76       1.0  0.25028  0.96018  0.01890  1.0000
  H   H1858     1.0  0.40601  0.49481  0.31431  1.0000
  C   C2308     1.0  0.41721  0.88303  0.28481  1.0000
  C   C2309     1.0  0.48653  0.66406  0.29175  1.0000
  C   C2310     1.0  0.26568  0.72803  0.01463  1.0000
  H   H1859     1.0  0.29148  0.95344  0.07172  1.0000
  H   H1860     1.0  0.40388  0.64998  0.26482  1.0000
  C   C2311     1.0  0.28605  0.53260  0.19896  1.0000
  C   C2312     1.0  0.48773  0.81586  0.11297  1.0000
  C   C2313     1.0  0.39446  0.96687  0.15468  1.0000
  H   H1861     1.0  0.32673  0.87305  0.13224  1.0000
  H   H1862     1.0  0.40550  0.69100  0.30474  1.0000
  C   C2314     1.0  0.44938  0.77302  0.29177  1.0000
  H   H1863     1.0  0.48769  0.69611  0.09085  1.0000
  H   H1864     1.0  0.25529  0.54494  0.20878  1.0000
  H   H1865     1.0  0.48418  0.98467  0.21208  1.0000
  H   H1866     1.0  0.43847  0.78072  0.30250  1.0000
  C   C2315     1.0  0.48420  0.59873  0.11337  1.0000
  C   C2316     1.0  0.48453  0.98475  0.26148  1.0000
  H   H1867     1.0  0.48368  0.93670  0.11814  1.0000
  C   C2317     1.0  0.35980  0.96382  0.30003  1.0000
  H   H1868     1.0  0.48279  0.78129  0.24854  1.0000
  P   P77       1.0  0.24932  0.48948  0.25396  1.0000
  H   H1869     1.0  0.30247  0.95964  0.14320  1.0000
  H   H1870     1.0  0.48041  0.59488  0.12957  1.0000
  C   C2318     1.0  0.45490  0.48608  0.29208  1.0000
  H   H1871     1.0  0.25663  0.94089  0.19441  1.0000
  C   C2319     1.0  0.45942  0.98517  0.11565  1.0000
  H   H1872     1.0  0.46042  0.88527  0.00464  1.0000
  C   C2320     1.0  0.47846  0.98554  0.22781  1.0000
  H   H1873     1.0  0.24293  0.53666  0.18063  1.0000
  C   C2321     1.0  0.33371  0.49248  0.12386  1.0000
  C   C2322     1.0  0.40413  0.82827  0.30947  1.0000
  C   C2323     1.0  0.36804  0.94931  0.31478  1.0000
  H   H1874     1.0  0.43530  0.81786  0.31078  1.0000
  C   C2324     1.0  0.37885  0.65119  0.31240  1.0000
  H   H1875     1.0  0.47352  0.91520  0.31661  1.0000
  H   H1876     1.0  0.30481  0.98496  0.05772  1.0000
  C   C2325     1.0  0.42100  0.97506  0.31986  1.0000
  H   H1877     1.0  0.27102  0.50360  0.62948  1.0000
  C   C2326     1.0  0.45357  0.75622  0.46370  1.0000
  Fe  Fe156     1.0  0.46716  0.72455  0.59852  1.0000
  S   S310      1.0  0.44743  0.73711  0.57466  1.0000
  S   S311      1.0  0.45665  0.72922  0.63042  1.0000
  Fe  Fe157     1.0  0.32532  0.70774  0.51229  1.0000
  S   S312      1.0  0.32574  0.73848  0.49329  1.0000
  S   S313      1.0  0.30021  0.68876  0.51677  1.0000
  Fe  Fe158     1.0  0.36078  0.71175  0.53186  1.0000
  S   S314      1.0  0.36368  0.74229  0.51416  1.0000
  S   S315      1.0  0.38027  0.69595  0.55532  1.0000
  Fe  Fe159     1.0  0.33021  0.74896  0.52084  1.0000
  S   S316      1.0  0.31294  0.77861  0.52950  1.0000
  Fe  Fe160     1.0  0.35933  0.72948  0.48808  1.0000
  S   S317      1.0  0.37848  0.74139  0.45919  1.0000
  S   S318      1.0  0.32732  0.71914  0.54041  1.0000
  S   S319      1.0  0.35893  0.69800  0.50519  1.0000
  C   C2327     1.0  0.33886  0.96115  0.56272  1.0000
  C   C2328     1.0  0.33340  0.75417  0.31854  1.0000
  H   H1878     1.0  0.40373  0.50467  0.61999  1.0000
  H   H1879     1.0  0.27542  0.80994  0.57269  1.0000
  S   S320      1.0  0.25558  0.50492  0.57841  1.0000
  Fe  Fe161     1.0  0.45692  0.69790  0.37623  1.0000
  S   S321      1.0  0.43253  0.68559  0.39948  1.0000
  S   S322      1.0  0.45194  0.71449  0.34576  1.0000
  Fe  Fe162     1.0  0.44306  0.90031  0.36953  1.0000
  S   S323      1.0  0.41536  0.88994  0.38811  1.0000
  C   C2329     1.0  0.44935  0.97661  0.41917  1.0000
  S   S324      1.0  0.40324  0.88429  0.34580  1.0000
  C   C2330     1.0  0.41049  0.93272  0.48271  1.0000
  Fe  Fe163     1.0  0.39962  0.90928  0.36373  1.0000
  S   S325      1.0  0.36986  0.92955  0.37058  1.0000
  Fe  Fe164     1.0  0.42161  0.86590  0.36876  1.0000
  S   S326      1.0  0.41849  0.83391  0.38341  1.0000
  S   S327      1.0  0.42695  0.92140  0.34641  1.0000
  S   S328      1.0  0.45074  0.87476  0.35215  1.0000
  Fe  Fe165     1.0  0.33857  0.86341  0.57380  1.0000
  S   S329      1.0  0.32107  0.87134  0.60324  1.0000
  S   S330      1.0  0.35515  0.83260  0.56799  1.0000
  Fe  Fe166     1.0  0.33186  0.90670  0.55337  1.0000
  S   S331      1.0  0.31305  0.91824  0.58058  1.0000
  S   S332      1.0  0.34341  0.92443  0.52408  1.0000
  Fe  Fe167     1.0  0.33668  0.89849  0.59726  1.0000
  S   S333      1.0  0.35325  0.90694  0.61961  1.0000
  Fe  Fe168     1.0  0.29904  0.89055  0.58402  1.0000
  S   S334      1.0  0.26547  0.89137  0.59338  1.0000
  S   S335      1.0  0.35617  0.88844  0.56958  1.0000
  S   S336      1.0  0.31588  0.88107  0.55508  1.0000
  C   C2331     1.0  0.33119  0.94921  0.51986  1.0000
  H   H1880     1.0  0.25059  0.64913  0.50959  1.0000
  C   C2332     1.0  0.39395  0.92959  0.49782  1.0000
  H   H1881     1.0  0.35672  0.95908  0.49987  1.0000
  H   H1882     1.0  0.30354  0.94388  0.53931  1.0000
  P   P78       1.0  0.37060  0.72873  0.35963  1.0000
  C   C2333     1.0  0.25909  0.88133  0.55820  1.0000
  H   H1883     1.0  0.27447  0.88282  0.55214  1.0000
  C   C2334     1.0  0.36966  0.94947  0.38339  1.0000
  C   C2335     1.0  0.35142  0.96145  0.38984  1.0000
  C   C2336     1.0  0.38748  0.95350  0.38722  1.0000
  H   H1884     1.0  0.33757  0.95848  0.38685  1.0000
  H   H1885     1.0  0.40161  0.94447  0.38220  1.0000
  C   C2337     1.0  0.38093  0.79785  0.64076  1.0000
  H   H1886     1.0  0.44692  0.78867  0.46106  1.0000
  H   H1887     1.0  0.43834  0.94323  0.37338  1.0000
  C   C2338     1.0  0.35724  0.93078  0.62343  1.0000
  C   C2339     1.0  0.34502  0.94886  0.61717  1.0000
  H   H1888     1.0  0.28454  0.81293  0.50412  1.0000
  H   H1889     1.0  0.32207  0.85360  0.43743  1.0000
  C   C2340     1.0  0.26025  0.81295  0.56948  1.0000
  H   H1890     1.0  0.33276  0.94870  0.60958  1.0000
  H   H1891     1.0  0.38171  0.92850  0.52933  1.0000
  C   C2341     1.0  0.45749  0.78431  0.35052  1.0000
  C   C2342     1.0  0.45758  0.80457  0.34220  1.0000
  C   C2343     1.0  0.44569  0.81981  0.35221  1.0000
  C   C2344     1.0  0.43372  0.81490  0.37078  1.0000
  C   C2345     1.0  0.43369  0.79458  0.37923  1.0000
  C   C2346     1.0  0.44558  0.77930  0.36913  1.0000
  H   H1892     1.0  0.46222  0.76624  0.40517  1.0000
  H   H1893     1.0  0.44568  0.83535  0.34540  1.0000
  H   H1894     1.0  0.42426  0.79059  0.39344  1.0000
  H   H1895     1.0  0.44521  0.76368  0.37553  1.0000
  C   C2347     1.0  0.39408  0.72544  0.44332  1.0000
  C   C2348     1.0  0.39306  0.70499  0.44632  1.0000
  C   C2349     1.0  0.40500  0.69288  0.43278  1.0000
  C   C2350     1.0  0.41820  0.70111  0.41639  1.0000
  C   C2351     1.0  0.41948  0.72150  0.41358  1.0000
  C   C2352     1.0  0.40735  0.73366  0.42697  1.0000
  H   H1896     1.0  0.38273  0.69860  0.45877  1.0000
  H   H1897     1.0  0.40391  0.67713  0.43491  1.0000
  H   H1898     1.0  0.42954  0.72796  0.40091  1.0000
  H   H1899     1.0  0.40810  0.74951  0.42450  1.0000
  C   C2353     1.0  0.32512  0.79395  0.53930  1.0000
  C   C2354     1.0  0.34488  0.78783  0.54270  1.0000
  C   C2355     1.0  0.35405  0.80002  0.55107  1.0000
  C   C2356     1.0  0.34347  0.81833  0.55636  1.0000
  C   C2357     1.0  0.32371  0.82455  0.55283  1.0000
  C   C2358     1.0  0.31463  0.81242  0.54430  1.0000
  H   H1900     1.0  0.35286  0.77334  0.53957  1.0000
  H   H1901     1.0  0.36916  0.79487  0.55410  1.0000
  H   H1902     1.0  0.31525  0.83848  0.55705  1.0000
  H   H1903     1.0  0.29933  0.81727  0.54181  1.0000
  C   C2359     1.0  0.42821  0.72569  0.57046  1.0000
  C   C2360     1.0  0.42591  0.70603  0.57946  1.0000
  C   C2361     1.0  0.41088  0.69724  0.57501  1.0000
  C   C2362     1.0  0.39813  0.70797  0.56150  1.0000
  C   C2363     1.0  0.40018  0.72779  0.55290  1.0000
  C   C2364     1.0  0.41515  0.73658  0.55737  1.0000
  H   H1904     1.0  0.43591  0.69753  0.58957  1.0000
  H   H1905     1.0  0.40936  0.68192  0.58174  1.0000
  H   H1906     1.0  0.39037  0.73629  0.54269  1.0000
  H   H1907     1.0  0.41670  0.75187  0.55052  1.0000
  C   C2365     1.0  0.27187  0.65288  0.48228  1.0000
  C   C2366     1.0  0.28895  0.66154  0.47287  1.0000
  C   C2367     1.0  0.29781  0.67259  0.48303  1.0000
  C   C2368     1.0  0.28970  0.67516  0.50287  1.0000
  C   C2369     1.0  0.27269  0.66640  0.51232  1.0000
  C   C2370     1.0  0.26382  0.65540  0.50214  1.0000
  H   H1908     1.0  0.29534  0.65975  0.45752  1.0000
  H   H1909     1.0  0.31090  0.67910  0.47551  1.0000
  H   H1910     1.0  0.26625  0.66821  0.52765  1.0000
  C   C2371     1.0  0.28396  0.94905  0.49019  1.0000
  H   H1911     1.0  0.40873  0.79740  0.34734  1.0000
  H   H1912     1.0  0.29166  0.84403  0.51239  1.0000
  H   H1913     1.0  0.42404  0.76674  0.62820  1.0000
  H   H1914     1.0  0.25456  0.51871  0.43148  1.0000
  C   C2372     1.0  0.45218  0.91714  0.61552  1.0000
  C   C2373     1.0  0.24151  0.52771  0.42587  1.0000
  C   C2374     1.0  0.41637  0.68159  0.35212  1.0000
  H   H1915     1.0  0.34859  0.79085  0.60638  1.0000
  H   H1916     1.0  0.33170  0.51117  0.57056  1.0000
  H   H1917     1.0  0.28038  0.54547  0.54635  1.0000
  C   C2375     1.0  0.40332  0.74911  0.34889  1.0000
  C   C2376     1.0  0.47042  0.85040  0.58314  1.0000
  S   S337      1.0  0.48331  0.69307  0.60677  1.0000
  H   H1918     1.0  0.25281  0.94149  0.54022  1.0000
  H   H1919     1.0  0.31750  0.87674  0.40579  1.0000
  C   C2377     1.0  0.29586  0.54417  0.54806  1.0000
  C   C2378     1.0  0.40163  0.69600  0.36060  1.0000
  S   S338      1.0  0.26122  0.63938  0.46840  1.0000
  H   H1920     1.0  0.27375  0.57378  0.56725  1.0000
  H   H1921     1.0  0.24316  0.98187  0.52993  1.0000
  C   C2379     1.0  0.45925  0.66506  0.43862  1.0000
  C   C2380     1.0  0.46848  0.93333  0.37938  1.0000
  C   C2381     1.0  0.36373  0.96789  0.63164  1.0000
  C   C2382     1.0  0.34830  0.96723  0.62118  1.0000
  C   C2383     1.0  0.27157  0.76183  0.49908  1.0000
  H   H1922     1.0  0.38543  0.93893  0.57194  1.0000
  C   C2384     1.0  0.29072  0.59062  0.46530  1.0000
  C   C2385     1.0  0.28756  0.57190  0.46287  1.0000
  C   C2386     1.0  0.28692  0.55625  0.47922  1.0000
  C   C2387     1.0  0.28956  0.55925  0.49802  1.0000
  C   C2388     1.0  0.29293  0.57800  0.50060  1.0000
  C   C2389     1.0  0.29320  0.59373  0.48408  1.0000
  P   P79       1.0  0.29461  0.58264  0.52522  1.0000
  H   H1923     1.0  0.38223  0.91761  0.63892  1.0000
  C   C2390     1.0  0.30659  0.55998  0.53950  1.0000
  C   C2391     1.0  0.39291  0.74119  0.63553  1.0000
  H   H1924     1.0  0.33858  0.98101  0.61638  1.0000
  C   C2392     1.0  0.39050  0.53327  0.62897  1.0000
  C   C2393     1.0  0.33559  0.54038  0.55346  1.0000
  C   C2394     1.0  0.32656  0.55793  0.54231  1.0000
  C   C2395     1.0  0.35565  0.51621  0.64376  1.0000
  H   H1925     1.0  0.28091  0.73135  0.51304  1.0000
  H   H1926     1.0  0.25194  0.84199  0.52105  1.0000
  H   H1927     1.0  0.37932  0.71648  0.31951  1.0000
  C   C2396     1.0  0.47633  0.92996  0.31739  1.0000
  C   C2397     1.0  0.30884  0.60276  0.52222  1.0000
  C   C2398     1.0  0.32616  0.60363  0.50758  1.0000
  C   C2399     1.0  0.33652  0.61979  0.50449  1.0000
  C   C2400     1.0  0.32978  0.63508  0.51609  1.0000
  C   C2401     1.0  0.31284  0.63409  0.53096  1.0000
  C   C2402     1.0  0.30236  0.61805  0.53402  1.0000
  H   H1928     1.0  0.29027  0.60306  0.45288  1.0000
  H   H1929     1.0  0.28465  0.56978  0.44855  1.0000
  H   H1930     1.0  0.28343  0.54211  0.47743  1.0000
  H   H1931     1.0  0.28831  0.54709  0.51052  1.0000
  H   H1932     1.0  0.29458  0.60869  0.48575  1.0000
  C   C2403     1.0  0.41774  0.67979  0.33200  1.0000
  C   C2404     1.0  0.25419  0.92121  0.64814  1.0000
  C   C2405     1.0  0.44473  0.83897  0.64454  1.0000
  H   H1933     1.0  0.35099  0.53891  0.55558  1.0000
  H   H1934     1.0  0.33523  0.56983  0.53600  1.0000
  H   H1935     1.0  0.34300  0.89820  0.38907  1.0000
  H   H1936     1.0  0.30621  0.79727  0.47633  1.0000
  H   H1937     1.0  0.28643  0.87910  0.63686  1.0000
  C   C2406     1.0  0.25619  0.60491  0.52712  1.0000
  C   C2407     1.0  0.34280  0.98022  0.55345  1.0000
  H   H1938     1.0  0.33138  0.59205  0.49826  1.0000
  H   H1939     1.0  0.34955  0.62071  0.49283  1.0000
  H   H1940     1.0  0.33740  0.64794  0.51338  1.0000
  H   H1941     1.0  0.30744  0.64620  0.53964  1.0000
  H   H1942     1.0  0.28899  0.61796  0.54528  1.0000
  C   C2408     1.0  0.24789  0.76672  0.53631  1.0000
  C   C2409     1.0  0.30169  0.49614  0.46429  1.0000
  C   C2410     1.0  0.26956  0.59075  0.53778  1.0000
  C   C2411     1.0  0.47189  0.81935  0.60694  1.0000
  C   C2412     1.0  0.25967  0.78041  0.50168  1.0000
  H   H1943     1.0  0.38550  0.64899  0.63043  1.0000
  C   C2413     1.0  0.38801  0.70868  0.34907  1.0000
  C   C2414     1.0  0.24415  0.59061  0.56782  1.0000
  C   C2415     1.0  0.41659  0.96860  0.43454  1.0000
  C   C2416     1.0  0.40133  0.78449  0.34933  1.0000
  C   C2417     1.0  0.31141  0.95485  0.52898  1.0000
  H   H1944     1.0  0.47856  0.86982  0.61731  1.0000
  H   H1945     1.0  0.39496  0.96616  0.34006  1.0000
  C   C2418     1.0  0.37606  0.94982  0.63778  1.0000
  C   C2419     1.0  0.41259  0.76599  0.34565  1.0000
  C   C2420     1.0  0.24818  0.84179  0.50656  1.0000
  H   H1946     1.0  0.32967  0.53829  0.61882  1.0000
  C   C2421     1.0  0.29691  0.81992  0.49529  1.0000
  C   C2422     1.0  0.37369  0.95042  0.56643  1.0000
  H   H1947     1.0  0.29640  0.51462  0.56578  1.0000
  H   H1948     1.0  0.42717  0.67226  0.36103  1.0000
  C   C2423     1.0  0.40101  0.80667  0.43647  1.0000
  C   C2424     1.0  0.45219  0.94777  0.37425  1.0000
  H   H1949     1.0  0.44218  0.67187  0.46687  1.0000
  H   H1950     1.0  0.41180  0.80716  0.42268  1.0000
  P   P80       1.0  0.35396  0.84506  0.46244  1.0000
  C   C2425     1.0  0.32477  0.52474  0.56185  1.0000
  C   C2426     1.0  0.26635  0.94098  0.49829  1.0000
  C   C2427     1.0  0.38746  0.82398  0.44043  1.0000
  H   H1951     1.0  0.44084  0.97933  0.36699  1.0000
  Fe  Fe169     1.0  0.47449  0.69866  0.63885  1.0000
  C   C2428     1.0  0.38721  0.63235  0.32178  1.0000
  C   C2429     1.0  0.26781  0.92034  0.50602  1.0000
  C   C2430     1.0  0.40837  0.72762  0.62649  1.0000
  C   C2431     1.0  0.31796  0.84541  0.48966  1.0000
  C   C2432     1.0  0.30107  0.83731  0.50006  1.0000
  H   H1952     1.0  0.32120  0.85853  0.49405  1.0000
  H   H1953     1.0  0.46579  0.73131  0.42357  1.0000
  H   H1954     1.0  0.37628  0.96305  0.46769  1.0000
  C   C2433     1.0  0.47304  0.67544  0.46389  1.0000
  C   C2434     1.0  0.23989  0.52594  0.56755  1.0000
  H   H1955     1.0  0.40060  0.97356  0.43770  1.0000
  C   C2435     1.0  0.36149  0.88917  0.49115  1.0000
  H   H1956     1.0  0.39594  0.79951  0.63317  1.0000
  C   C2436     1.0  0.33082  0.83614  0.47435  1.0000
  H   H1957     1.0  0.40494  0.89262  0.48233  1.0000
  C   C2437     1.0  0.33142  0.98290  0.50123  1.0000
  H   H1958     1.0  0.44664  0.66144  0.43364  1.0000
  H   H1959     1.0  0.37197  0.80059  0.35875  1.0000
  H   H1960     1.0  0.36985  0.88605  0.52033  1.0000
  H   H1961     1.0  0.36729  0.84499  0.60256  1.0000
  H   H1962     1.0  0.45428  0.93231  0.61569  1.0000
  S   S339      1.0  0.46451  0.97889  0.64076  1.0000
  C   C2438     1.0  0.47150  0.97431  0.37186  1.0000
  S   S340      1.0  0.24167  0.58766  0.48953  1.0000
  H   H1963     1.0  0.32960  0.95202  0.44062  1.0000
  H   H1964     1.0  0.39287  0.97246  0.55520  1.0000
  C   C2439     1.0  0.38706  0.96934  0.39749  1.0000
  H   H1965     1.0  0.25659  0.94504  0.61219  1.0000
  C   C2440     1.0  0.40044  0.97665  0.32710  1.0000
  C   C2441     1.0  0.26094  0.90191  0.64322  1.0000
  H   H1966     1.0  0.35522  0.77089  0.36387  1.0000
  H   H1967     1.0  0.42861  0.76461  0.34055  1.0000
  C   C2442     1.0  0.30161  0.97463  0.52412  1.0000
  H   H1968     1.0  0.26946  0.49176  0.32730  1.0000
  C   C2443     1.0  0.35047  0.86171  0.43905  1.0000
  C   C2444     1.0  0.34503  0.88796  0.40297  1.0000
  C   C2445     1.0  0.36282  0.72047  0.38625  1.0000
  C   C2446     1.0  0.35852  0.70091  0.39306  1.0000
  C   C2447     1.0  0.35208  0.69444  0.41350  1.0000
  C   C2448     1.0  0.34986  0.70742  0.42731  1.0000
  C   C2449     1.0  0.35423  0.72682  0.42071  1.0000
  C   C2450     1.0  0.36087  0.73329  0.40033  1.0000
  C   C2451     1.0  0.29523  0.90500  0.64370  1.0000
  C   C2452     1.0  0.48594  0.84120  0.56982  1.0000
  Fe  Fe170     1.0  0.47821  0.69284  0.33331  1.0000
  C   C2453     1.0  0.39837  0.64388  0.63808  1.0000
  H   H1969     1.0  0.43107  0.96364  0.32786  1.0000
  H   H1970     1.0  0.33057  0.71661  0.36870  1.0000
  C   C2454     1.0  0.24448  0.53315  0.54694  1.0000
  H   H1971     1.0  0.40130  0.69766  0.37601  1.0000
  H   H1972     1.0  0.46676  0.81052  0.62115  1.0000
  H   H1973     1.0  0.36925  0.86143  0.63093  1.0000
  H   H1974     1.0  0.36017  0.69063  0.38256  1.0000
  H   H1975     1.0  0.34891  0.67931  0.41869  1.0000
  H   H1976     1.0  0.34506  0.70239  0.44319  1.0000
  H   H1977     1.0  0.35290  0.73674  0.43152  1.0000
  H   H1978     1.0  0.36466  0.74818  0.39587  1.0000
  H   H1979     1.0  0.40372  0.70542  0.48451  1.0000
  H   H1980     1.0  0.37343  0.55991  0.63978  1.0000
  C   C2455     1.0  0.42834  0.93803  0.50793  1.0000
  H   H1981     1.0  0.40098  0.97253  0.39998  1.0000
  P   P81       1.0  0.38411  0.76512  0.62096  1.0000
  H   H1982     1.0  0.44168  0.94127  0.51185  1.0000
  H   H1983     1.0  0.35120  0.93158  0.57659  1.0000
  C   C2456     1.0  0.35555  0.74007  0.58751  1.0000
  C   C2457     1.0  0.43965  0.78082  0.60053  1.0000
  C   C2458     1.0  0.43879  0.78926  0.58043  1.0000
  C   C2459     1.0  0.42126  0.79052  0.57260  1.0000
  C   C2460     1.0  0.40459  0.78331  0.58483  1.0000
  H   H1984     1.0  0.35778  0.72621  0.58151  1.0000
  H   H1985     1.0  0.38221  0.73163  0.60066  1.0000
  H   H1986     1.0  0.45332  0.77950  0.60657  1.0000
  H   H1987     1.0  0.45184  0.79445  0.57088  1.0000
  H   H1988     1.0  0.42068  0.79675  0.55697  1.0000
  H   H1989     1.0  0.39118  0.78436  0.57851  1.0000
  H   H1990     1.0  0.45421  0.75121  0.53165  1.0000
  C   C2461     1.0  0.36659  0.84725  0.49788  1.0000
  C   C2462     1.0  0.24703  0.87628  0.54627  1.0000
  H   H1991     1.0  0.24045  0.50800  0.40528  1.0000
  H   H1992     1.0  0.33558  0.81186  0.45719  1.0000
  H   H1993     1.0  0.37313  0.89625  0.40400  1.0000
  H   H1994     1.0  0.28766  0.89241  0.51286  1.0000
  H   H1995     1.0  0.25714  0.52539  0.53786  1.0000
  C   C2463     1.0  0.43154  0.69802  0.52174  1.0000
  C   C2464     1.0  0.41834  0.69443  0.51038  1.0000
  C   C2465     1.0  0.41436  0.70790  0.49305  1.0000
  C   C2466     1.0  0.42359  0.72492  0.48703  1.0000
  C   C2467     1.0  0.43703  0.72859  0.49831  1.0000
  C   C2468     1.0  0.44054  0.71521  0.51598  1.0000
  P   P82       1.0  0.44806  0.75125  0.49088  1.0000
  C   C2469     1.0  0.47048  0.74888  0.50164  1.0000
  C   C2470     1.0  0.45462  0.77957  0.43209  1.0000
  H   H1996     1.0  0.44042  0.49155  0.32171  1.0000
  H   H1997     1.0  0.36178  0.80431  0.48537  1.0000
  H   H1998     1.0  0.32386  0.78462  0.58798  1.0000
  H   H1999     1.0  0.39219  0.92513  0.32093  1.0000
  C   C2471     1.0  0.45678  0.67081  0.45742  1.0000
  C   C2472     1.0  0.43069  0.77179  0.50046  1.0000
  C   C2473     1.0  0.43761  0.78906  0.50245  1.0000
  C   C2474     1.0  0.42434  0.80460  0.51078  1.0000
  C   C2475     1.0  0.40411  0.80304  0.51706  1.0000
  C   C2476     1.0  0.39714  0.78607  0.51479  1.0000
  C   C2477     1.0  0.41036  0.77040  0.50678  1.0000
  H   H2000     1.0  0.43404  0.68795  0.53559  1.0000
  H   H2001     1.0  0.41066  0.68160  0.51542  1.0000
  H   H2002     1.0  0.44960  0.71823  0.52577  1.0000
  C   C2478     1.0  0.34128  0.96332  0.50637  1.0000
  H   H2003     1.0  0.31860  0.90708  0.49916  1.0000
  H   H2004     1.0  0.38499  0.77387  0.47749  1.0000
  H   H2005     1.0  0.31400  0.50343  0.45577  1.0000
  C   C2479     1.0  0.33338  0.86278  0.43040  1.0000
  H   H2006     1.0  0.41004  0.77498  0.44637  1.0000
  H   H2007     1.0  0.45330  0.79037  0.49781  1.0000
  H   H2008     1.0  0.42978  0.81775  0.51255  1.0000
  H   H2009     1.0  0.39382  0.81485  0.52385  1.0000
  H   H2010     1.0  0.38148  0.78489  0.51926  1.0000
  H   H2011     1.0  0.40457  0.75725  0.50567  1.0000
  C   C2480     1.0  0.46202  0.74379  0.43183  1.0000
  C   C2481     1.0  0.30266  0.53697  0.60859  1.0000
  H   H2012     1.0  0.25065  0.89318  0.64046  1.0000
  H   H2013     1.0  0.30179  0.72570  0.35068  1.0000
  H   H2014     1.0  0.41238  0.73496  0.34611  1.0000
  H   H2015     1.0  0.41541  0.85767  0.47632  1.0000
  H   H2016     1.0  0.41221  0.93587  0.53827  1.0000
  H   H2017     1.0  0.40821  0.60522  0.31814  1.0000
  C   C2482     1.0  0.36063  0.85810  0.47988  1.0000
  H   H2018     1.0  0.32377  0.95798  0.56497  1.0000
  C   C2483     1.0  0.42776  0.93682  0.48799  1.0000
  H   H2019     1.0  0.48441  0.74818  0.54676  1.0000
  H   H2020     1.0  0.38812  0.83747  0.42937  1.0000
  C   C2484     1.0  0.25641  0.80808  0.55196  1.0000
  C   C2485     1.0  0.35593  0.53609  0.64563  1.0000
  C   C2486     1.0  0.34902  0.73564  0.34700  1.0000
  C   C2487     1.0  0.48621  0.93942  0.38113  1.0000
  H   H2021     1.0  0.41982  0.73540  0.47381  1.0000
  C   C2488     1.0  0.46577  0.88181  0.61642  1.0000
  C   C2489     1.0  0.35768  0.93183  0.43621  1.0000
  C   C2490     1.0  0.34469  0.94775  0.44407  1.0000
  C   C2491     1.0  0.35149  0.95887  0.45546  1.0000
  C   C2492     1.0  0.37118  0.95391  0.45928  1.0000
  C   C2493     1.0  0.38425  0.93766  0.45186  1.0000
  C   C2494     1.0  0.37743  0.92686  0.43994  1.0000
  P   P83       1.0  0.40977  0.93133  0.45683  1.0000
  C   C2495     1.0  0.41905  0.90569  0.45295  1.0000
  C   C2496     1.0  0.42515  0.94868  0.44101  1.0000
  C   C2497     1.0  0.44604  0.94291  0.43644  1.0000
  C   C2498     1.0  0.45806  0.95684  0.42558  1.0000
  C   C2499     1.0  0.36213  0.88681  0.41138  1.0000
  C   C2500     1.0  0.37277  0.80534  0.47172  1.0000
  C   C2501     1.0  0.42862  0.98242  0.42347  1.0000
  C   C2502     1.0  0.41387  0.88974  0.46807  1.0000
  C   C2503     1.0  0.41977  0.86987  0.46471  1.0000
  C   C2504     1.0  0.43111  0.86577  0.44632  1.0000
  C   C2505     1.0  0.43636  0.88155  0.43123  1.0000
  C   C2506     1.0  0.43001  0.90145  0.43433  1.0000
  H   H2022     1.0  0.35263  0.92391  0.42655  1.0000
  C   C2507     1.0  0.48588  0.74803  0.53079  1.0000
  C   C2508     1.0  0.40415  0.69223  0.32043  1.0000
  Fe  Fe171     1.0  0.47432  0.73268  0.34890  1.0000
  H   H2023     1.0  0.38734  0.91486  0.43316  1.0000
  H   H2024     1.0  0.45313  0.92774  0.44142  1.0000
  C   C2509     1.0  0.45985  0.76348  0.42146  1.0000
  C   C2510     1.0  0.47785  0.66436  0.42604  1.0000
  C   C2511     1.0  0.35043  0.77634  0.60179  1.0000
  C   C2512     1.0  0.33162  0.72713  0.35476  1.0000
  H   H2025     1.0  0.43563  0.85041  0.44362  1.0000
  H   H2026     1.0  0.44504  0.87841  0.41688  1.0000
  H   H2027     1.0  0.43341  0.91342  0.42199  1.0000
  H   H2028     1.0  0.38050  0.92626  0.49429  1.0000
  H   H2029     1.0  0.31112  0.89890  0.64162  1.0000
  C   C2513     1.0  0.36496  0.87367  0.42925  1.0000
  C   C2514     1.0  0.27955  0.48808  0.49564  1.0000
  C   C2515     1.0  0.37773  0.96946  0.55715  1.0000
  C   C2516     1.0  0.31521  0.73225  0.34455  1.0000
  S   S341      1.0  0.48161  0.67491  0.36386  1.0000
  H   H2030     1.0  0.38796  0.94995  0.64589  1.0000
  H   H2031     1.0  0.41357  0.66832  0.62219  1.0000
  H   H2032     1.0  0.35892  0.90544  0.48877  1.0000
  C   C2517     1.0  0.26357  0.58404  0.55838  1.0000
  C   C2518     1.0  0.37302  0.82343  0.45802  1.0000
  H   H2033     1.0  0.37386  0.84897  0.52655  1.0000
  C   C2519     1.0  0.37297  0.50497  0.63433  1.0000
  H   H2034     1.0  0.25103  0.86950  0.45957  1.0000
  C   C2520     1.0  0.35778  0.87920  0.47680  1.0000
  H   H2035     1.0  0.35206  0.88815  0.46373  1.0000
  C   C2521     1.0  0.37328  0.54459  0.63819  1.0000
  H   H2036     1.0  0.36045  0.94776  0.33027  1.0000
  C   C2522     1.0  0.30403  0.91635  0.49839  1.0000
  C   C2523     1.0  0.28389  0.51110  0.62712  1.0000
  C   C2524     1.0  0.45363  0.96823  0.37067  1.0000
  H   H2037     1.0  0.27507  0.53198  0.60146  1.0000
  H   H2038     1.0  0.46131  0.72475  0.46052  1.0000
  S   S342      1.0  0.47167  0.76590  0.33657  1.0000
  C   C2525     1.0  0.46852  0.90150  0.61577  1.0000
  S   S343      1.0  0.46691  0.90765  0.38374  1.0000
  C   C2526     1.0  0.24759  0.85753  0.47186  1.0000
  H   H2039     1.0  0.42040  0.92530  0.61543  1.0000
  C   C2527     1.0  0.32599  0.81921  0.46903  1.0000
  H   H2040     1.0  0.42966  0.66908  0.32527  1.0000
  H   H2041     1.0  0.26062  0.61081  0.51140  1.0000
  C   C2528     1.0  0.41176  0.93501  0.52280  1.0000
  C   C2529     1.0  0.33069  0.87590  0.41243  1.0000
  H   H2042     1.0  0.44482  0.59182  0.64374  1.0000
  C   C2530     1.0  0.38605  0.78800  0.46744  1.0000
  C   C2531     1.0  0.46879  0.74958  0.52219  1.0000
  H   H2043     1.0  0.37840  0.87296  0.43545  1.0000
  C   C2532     1.0  0.45932  0.74015  0.45283  1.0000
  C   C2533     1.0  0.45140  0.77600  0.45315  1.0000
  H   H2044     1.0  0.36779  0.83107  0.50114  1.0000
  C   C2534     1.0  0.43089  0.64819  0.64306  1.0000
  C   C2535     1.0  0.30491  0.52665  0.55915  1.0000
  C   C2536     1.0  0.27161  0.74573  0.51503  1.0000
  C   C2537     1.0  0.39459  0.93080  0.51775  1.0000
  C   C2538     1.0  0.40543  0.77460  0.60495  1.0000
  C   C2539     1.0  0.36668  0.76122  0.60613  1.0000
  C   C2540     1.0  0.35097  0.97713  0.40044  1.0000
  H   H2045     1.0  0.34165  0.97176  0.46080  1.0000
  H   H2046     1.0  0.32836  0.75244  0.57538  1.0000
  C   C2541     1.0  0.42306  0.77345  0.61272  1.0000
  H   H2047     1.0  0.41532  0.73156  0.61102  1.0000
  H   H2048     1.0  0.46393  0.86596  0.57882  1.0000
  H   H2049     1.0  0.25445  0.91380  0.51247  1.0000
  H   H2050     1.0  0.44086  0.93912  0.47682  1.0000
  C   C2542     1.0  0.28660  0.90813  0.50619  1.0000
  C   C2543     1.0  0.36759  0.87825  0.50892  1.0000
  C   C2544     1.0  0.36940  0.74324  0.59843  1.0000
  C   C2545     1.0  0.33893  0.75480  0.58411  1.0000
  H   H2051     1.0  0.25331  0.87384  0.53111  1.0000
  H   H2052     1.0  0.44320  0.65665  0.63954  1.0000
  C   C2546     1.0  0.31699  0.53056  0.62138  1.0000
  C   C2547     1.0  0.36224  0.98459  0.55083  1.0000
  C   C2548     1.0  0.30923  0.81101  0.47965  1.0000
  C   C2549     1.0  0.46351  0.83963  0.60198  1.0000
  H   H2053     1.0  0.47062  0.67999  0.47845  1.0000
  P   P84       1.0  0.44334  0.85165  0.61903  1.0000
  H   H2054     1.0  0.36756  0.66092  0.32103  1.0000
  C   C2550     1.0  0.44658  0.87753  0.61684  1.0000
  H   H2055     1.0  0.46673  0.80853  0.32783  1.0000
  H   H2056     1.0  0.28619  0.97901  0.53083  1.0000
  C   C2551     1.0  0.43311  0.91315  0.61549  1.0000
  C   C2552     1.0  0.43030  0.89347  0.61599  1.0000
  C   C2553     1.0  0.41930  0.84949  0.61361  1.0000
  C   C2554     1.0  0.41805  0.84020  0.59754  1.0000
  C   C2555     1.0  0.39932  0.83846  0.59371  1.0000
  C   C2556     1.0  0.38178  0.84608  0.60575  1.0000
  C   C2557     1.0  0.38291  0.85519  0.62182  1.0000
  C   C2558     1.0  0.40158  0.85651  0.62601  1.0000
  C   C2559     1.0  0.40014  0.78862  0.44983  1.0000
  C   C2560     1.0  0.28614  0.52719  0.61142  1.0000
  C   C2561     1.0  0.31487  0.51425  0.63712  1.0000
  H   H2057     1.0  0.26014  0.73571  0.54602  1.0000
  C   C2562     1.0  0.37001  0.85732  0.51234  1.0000
  C   C2563     1.0  0.33636  0.77291  0.59128  1.0000
  C   C2564     1.0  0.35429  0.94625  0.56912  1.0000
  H   H2058     1.0  0.41537  0.89095  0.61590  1.0000
  C   C2565     1.0  0.41420  0.65479  0.63338  1.0000
  C   C2566     1.0  0.31608  0.74578  0.32646  1.0000
  H   H2059     1.0  0.43141  0.83423  0.58796  1.0000
  H   H2060     1.0  0.39827  0.83136  0.58131  1.0000
  C   C2567     1.0  0.37146  0.78268  0.63769  1.0000
  H   H2061     1.0  0.26880  0.80131  0.54174  1.0000
  C   C2568     1.0  0.37276  0.93144  0.63378  1.0000
  C   C2569     1.0  0.41522  0.70897  0.63739  1.0000
  C   C2570     1.0  0.35181  0.78135  0.64769  1.0000
  H   H2062     1.0  0.30295  0.50568  0.49197  1.0000
  C   C2571     1.0  0.24146  0.95161  0.60985  1.0000
  H   H2063     1.0  0.40048  0.83029  0.32508  1.0000
  Fe  Fe172     1.0  0.43205  0.89490  0.33048  1.0000
  H   H2064     1.0  0.45279  0.79483  0.42394  1.0000
  C   C2572     1.0  0.29816  0.50465  0.63989  1.0000
  H   H2065     1.0  0.25997  0.86888  0.49293  1.0000
  H   H2066     1.0  0.30436  0.54948  0.59641  1.0000
  H   H2067     1.0  0.31623  0.94316  0.48453  1.0000
  H   H2068     1.0  0.42747  0.69878  0.63041  1.0000
  C   C2573     1.0  0.39033  0.51349  0.62703  1.0000
  H   H2069     1.0  0.38706  0.97733  0.51613  1.0000
  H   H2070     1.0  0.43111  0.81418  0.64153  1.0000
  C   C2574     1.0  0.38262  0.75058  0.35567  1.0000
  H   H2071     1.0  0.48818  0.64845  0.64971  1.0000
  C   C2575     1.0  0.38932  0.70666  0.32889  1.0000
  S   S344      1.0  0.47715  0.71791  0.38065  1.0000
  H   H2072     1.0  0.28529  0.48762  0.38213  1.0000
  H   H2073     1.0  0.47411  0.95227  0.42182  1.0000
  C   C2576     1.0  0.30269  0.93672  0.49018  1.0000
  C   C2577     1.0  0.25983  0.74819  0.53364  1.0000
  H   H2074     1.0  0.38239  0.62744  0.33767  1.0000
  C   C2578     1.0  0.24766  0.78298  0.52033  1.0000
  H   H2075     1.0  0.40401  0.53980  0.62341  1.0000
  H   H2076     1.0  0.40217  0.86338  0.63872  1.0000
  H   H2077     1.0  0.28340  0.96493  0.48436  1.0000
  C   C2579     1.0  0.37126  0.76937  0.35882  1.0000
  H   H2078     1.0  0.47788  0.57078  0.63644  1.0000
  H   H2079     1.0  0.26018  0.79266  0.48919  1.0000
  C   C2580     1.0  0.28136  0.89384  0.64108  1.0000
  C   C2581     1.0  0.25112  0.88455  0.57787  1.0000
  C   C2582     1.0  0.24538  0.98272  0.49792  1.0000
  C   C2583     1.0  0.38065  0.78622  0.35583  1.0000
  S   S345      1.0  0.24291  0.55207  0.45243  1.0000
  H   H2080     1.0  0.24713  0.92714  0.47305  1.0000
  C   C2584     1.0  0.25271  0.85715  0.49061  1.0000
  H   H2081     1.0  0.28096  0.75987  0.48477  1.0000
  S   S346      1.0  0.48101  0.77024  0.64087  1.0000
  H   H2082     1.0  0.47952  0.66053  0.41118  1.0000
  H   H2083     1.0  0.27207  0.49142  0.41743  1.0000
  H   H2084     1.0  0.25138  0.96578  0.57964  1.0000
  H   H2085     1.0  0.24766  0.82620  0.59605  1.0000
  C   C2585     1.0  0.34984  0.74909  0.32870  1.0000
  H   H2086     1.0  0.36321  0.75560  0.32224  1.0000
  C   C2586     1.0  0.36881  0.98100  0.40449  1.0000
  H   H2087     1.0  0.47166  0.62348  0.31976  1.0000
  P   P85       1.0  0.24207  0.95697  0.50006  1.0000
  H   H2088     1.0  0.48540  0.98268  0.32163  1.0000
  C   C2587     1.0  0.29547  0.49741  0.48468  1.0000
  H   H2089     1.0  0.37321  0.48959  0.63276  1.0000
  H   H2090     1.0  0.48931  0.70796  0.48699  1.0000
  C   C2588     1.0  0.48735  0.81017  0.59358  1.0000
  C   C2589     1.0  0.48285  0.96812  0.32005  1.0000
  H   H2091     1.0  0.48284  0.70445  0.52415  1.0000
  H   H2092     1.0  0.48326  0.90454  0.61612  1.0000
  C   C2590     1.0  0.24460  0.82191  0.58276  1.0000
  C   C2591     1.0  0.48779  0.95991  0.37721  1.0000
  Fe  Fe173     1.0  0.48483  0.74146  0.62824  1.0000
  H   H2093     1.0  0.48022  0.89352  0.42911  1.0000
  C   C2592     1.0  0.46906  0.95265  0.64754  1.0000
  C   C2593     1.0  0.48816  0.94211  0.64166  1.0000
  H   H2094     1.0  0.34419  0.76980  0.64555  1.0000
  H   H2095     1.0  0.27465  0.48908  0.51145  1.0000
  H   H2096     1.0  0.40031  0.97806  0.48021  1.0000
  Fe  Fe174     1.0  0.24262  0.48702  0.60763  1.0000
  C   C2594     1.0  0.28864  0.92420  0.64867  1.0000
  H   H2097     1.0  0.30335  0.74971  0.31857  1.0000
  P   P86       1.0  0.40249  0.53586  0.85327  1.0000
  H   H2098     1.0  0.47109  0.83062  0.83981  1.0000
  C   C2595     1.0  0.41175  0.50790  0.90989  1.0000
  C   C2596     1.0  0.43910  0.97921  0.80868  1.0000
  Fe  Fe175     1.0  0.44628  0.55778  0.76663  1.0000
  S   S347      1.0  0.46518  0.55083  0.79079  1.0000
  S   S348      1.0  0.41611  0.54802  0.77745  1.0000
  Fe  Fe176     1.0  0.47324  0.58132  0.77942  1.0000
  S   S349      1.0  0.47359  0.60442  0.79857  1.0000
  C   C2597     1.0  0.48931  0.67791  0.79741  1.0000
  C   C2598     1.0  0.46114  0.94476  0.70452  1.0000
  S   S350      1.0  0.45231  0.58944  0.75681  1.0000
  S   S351      1.0  0.47067  0.54504  0.74364  1.0000
  H   H2099     1.0  0.35769  0.95602  0.91521  1.0000
  C   C2599     1.0  0.48562  0.69330  0.72191  1.0000
  H   H2100     1.0  0.44389  0.89253  0.73570  1.0000
  C   C2600     1.0  0.32370  0.51276  0.67817  1.0000
  C   C2601     1.0  0.46484  0.87207  0.71924  1.0000
  H   H2101     1.0  0.44436  0.97476  0.70353  1.0000
  H   H2102     1.0  0.35429  0.97021  0.79704  1.0000
  C   C2602     1.0  0.32546  0.94054  0.94732  1.0000
  S   S352      1.0  0.27089  0.96892  0.81663  1.0000
  Fe  Fe177     1.0  0.25883  0.95863  0.84905  1.0000
  S   S353      1.0  0.26304  0.92561  0.86205  1.0000
  H   H2103     1.0  0.43940  0.98332  0.82299  1.0000
  C   C2603     1.0  0.32064  0.98511  0.94479  1.0000
  C   C2604     1.0  0.44996  0.98346  0.77259  1.0000
  Fe  Fe178     1.0  0.38704  0.82816  0.95294  1.0000
  C   C2605     1.0  0.47777  0.91099  0.65995  1.0000
  S   S354      1.0  0.35823  0.85069  0.95537  1.0000
  Fe  Fe179     1.0  0.42818  0.81868  0.92785  1.0000
  S   S355      1.0  0.43927  0.79378  0.95167  1.0000
  S   S356      1.0  0.44780  0.82563  0.89763  1.0000
  Fe  Fe180     1.0  0.40908  0.78481  0.95516  1.0000
  S   S357      1.0  0.40625  0.75209  0.96495  1.0000
  C   C2606     1.0  0.38932  0.55028  0.68050  1.0000
  S   S358      1.0  0.39890  0.80806  0.92961  1.0000
  S   S359      1.0  0.41557  0.84055  0.94919  1.0000
  Fe  Fe181     1.0  0.45968  0.62587  0.93339  1.0000
  S   S360      1.0  0.43461  0.64552  0.94980  1.0000
  C   C2607     1.0  0.37095  0.81133  0.65368  1.0000
  Fe  Fe182     1.0  0.43264  0.61335  0.90995  1.0000
  S   S361      1.0  0.40515  0.63242  0.92402  1.0000
  S   S362      1.0  0.43056  0.59183  0.88970  1.0000
  Fe  Fe183     1.0  0.42458  0.65602  0.91982  1.0000
  S   S363      1.0  0.41493  0.68867  0.90690  1.0000
  Fe  Fe184     1.0  0.41720  0.62039  0.95288  1.0000
  C   C2608     1.0  0.44370  0.52306  0.84591  1.0000
  S   S364      1.0  0.45108  0.63799  0.90298  1.0000
  S   S365      1.0  0.44339  0.59963  0.93925  1.0000
  C   C2609     1.0  0.40896  0.73500  0.94825  1.0000
  C   C2610     1.0  0.40927  0.74128  0.92757  1.0000
  C   C2611     1.0  0.41083  0.72700  0.91498  1.0000
  C   C2612     1.0  0.41241  0.70643  0.92297  1.0000
  C   C2613     1.0  0.41210  0.70028  0.94362  1.0000
  C   C2614     1.0  0.41033  0.71450  0.95619  1.0000
  H   H2104     1.0  0.40810  0.75709  0.92136  1.0000
  H   H2105     1.0  0.41100  0.73185  0.89901  1.0000
  H   H2106     1.0  0.41283  0.68461  0.95001  1.0000
  H   H2107     1.0  0.40990  0.70958  0.97219  1.0000
  C   C2615     1.0  0.40621  0.59059  0.72302  1.0000
  S   S366      1.0  0.48368  0.88532  0.66905  1.0000
  C   C2616     1.0  0.26820  0.93230  0.65090  1.0000
  H   H2108     1.0  0.47749  0.95524  0.86400  1.0000
  H   H2109     1.0  0.31523  0.58398  0.85249  1.0000
  C   C2617     1.0  0.45944  0.64751  0.69602  1.0000
  H   H2110     1.0  0.25242  0.80606  0.95426  1.0000
  C   C2618     1.0  0.46162  0.51444  0.83512  1.0000
  C   C2619     1.0  0.45998  0.66541  0.74852  1.0000
  C   C2620     1.0  0.40673  0.61403  0.74482  1.0000
  C   C2621     1.0  0.30622  0.58653  0.88385  1.0000
  C   C2622     1.0  0.24111  0.79641  0.95806  1.0000
  H   H2111     1.0  0.38675  0.61820  0.65580  1.0000
  H   H2112     1.0  0.37258  0.74583  0.66324  1.0000
  C   C2623     1.0  0.27071  0.73414  0.97819  1.0000
  H   H2113     1.0  0.48384  0.80690  0.65309  1.0000
  C   C2624     1.0  0.31740  0.85418  0.96614  1.0000
  C   C2625     1.0  0.34181  0.79499  0.66043  1.0000
  H   H2114     1.0  0.41580  0.52087  0.93464  1.0000
  C   C2626     1.0  0.45405  0.94212  0.65879  1.0000
  C   C2627     1.0  0.33561  0.84094  0.96322  1.0000
  C   C2628     1.0  0.39147  0.71714  0.66669  1.0000
  C   C2629     1.0  0.44300  0.50539  0.81288  1.0000
  H   H2115     1.0  0.43917  0.94992  0.66286  1.0000
  C   C2630     1.0  0.41713  0.62247  0.70886  1.0000
  C   C2631     1.0  0.40801  0.53552  0.76140  1.0000
  C   C2632     1.0  0.39243  0.52445  0.76909  1.0000
  C   C2633     1.0  0.38500  0.51509  0.75642  1.0000
  C   C2634     1.0  0.39278  0.51723  0.73587  1.0000
  C   C2635     1.0  0.40850  0.52818  0.72819  1.0000
  C   C2636     1.0  0.41634  0.53704  0.74102  1.0000
  H   H2116     1.0  0.38605  0.52317  0.78485  1.0000
  H   H2117     1.0  0.37287  0.50665  0.76244  1.0000
  H   H2118     1.0  0.41476  0.52964  0.71237  1.0000
  H   H2119     1.0  0.42846  0.54544  0.73506  1.0000
  C   C2637     1.0  0.46214  0.60056  0.82407  1.0000
  C   C2638     1.0  0.45479  0.58280  0.83289  1.0000
  C   C2639     1.0  0.44520  0.58032  0.85301  1.0000
  C   C2640     1.0  0.44305  0.59546  0.86458  1.0000
  C   C2641     1.0  0.45074  0.61310  0.85592  1.0000
  C   C2642     1.0  0.46022  0.61564  0.83571  1.0000
  H   H2120     1.0  0.45639  0.57099  0.82422  1.0000
  H   H2121     1.0  0.43946  0.56660  0.85961  1.0000
  H   H2122     1.0  0.44912  0.62490  0.86468  1.0000
  C   C2643     1.0  0.23985  0.93665  0.89659  1.0000
  H   H2123     1.0  0.29947  0.93291  0.65046  1.0000
  C   C2644     1.0  0.46745  0.65519  0.67622  1.0000
  H   H2124     1.0  0.43963  0.96443  0.75697  1.0000
  H   H2125     1.0  0.43894  0.85990  0.79166  1.0000
  H   H2126     1.0  0.34666  0.49633  0.87147  1.0000
  C   C2645     1.0  0.46608  0.62760  0.70467  1.0000
  C   C2646     1.0  0.45068  0.85945  0.80019  1.0000
  C   C2647     1.0  0.40380  0.56267  0.67741  1.0000
  H   H2127     1.0  0.34359  0.82059  0.67325  1.0000
  H   H2128     1.0  0.46006  0.62194  0.72002  1.0000
  H   H2129     1.0  0.34381  0.55664  0.85832  1.0000
  C   C2648     1.0  0.33697  0.51206  0.69152  1.0000
  S   S367      1.0  0.39689  0.61188  0.98219  1.0000
  C   C2649     1.0  0.45764  0.86017  0.90489  1.0000
  C   C2650     1.0  0.36194  0.52617  0.94666  1.0000
  C   C2651     1.0  0.34721  0.53049  0.93432  1.0000
  C   C2652     1.0  0.34302  0.51497  0.92609  1.0000
  P   P87       1.0  0.33149  0.55479  0.93207  1.0000
  C   C2653     1.0  0.32598  0.56336  0.90690  1.0000
  C   C2654     1.0  0.30959  0.55163  0.95093  1.0000
  C   C2655     1.0  0.34709  0.96998  0.86773  1.0000
  H   H2130     1.0  0.24458  0.88211  0.92615  1.0000
  S   S368      1.0  0.38272  0.50646  0.71977  1.0000
  C   C2656     1.0  0.42103  0.65807  0.76536  1.0000
  H   H2131     1.0  0.44365  0.56940  0.70715  1.0000
  C   C2657     1.0  0.33836  0.55551  0.89047  1.0000
  C   C2658     1.0  0.39912  0.62642  0.65255  1.0000
  H   H2132     1.0  0.39768  0.58505  0.75521  1.0000
  H   H2133     1.0  0.34154  0.89207  0.93950  1.0000
  C   C2659     1.0  0.31016  0.57923  0.90340  1.0000
  C   C2660     1.0  0.34436  0.57351  0.93651  1.0000
  C   C2661     1.0  0.36368  0.57526  0.92586  1.0000
  C   C2662     1.0  0.37392  0.58958  0.92922  1.0000
  C   C2663     1.0  0.36491  0.60220  0.94325  1.0000
  C   C2664     1.0  0.34558  0.60083  0.95360  1.0000
  C   C2665     1.0  0.33517  0.58678  0.95004  1.0000
  C   C2666     1.0  0.42411  0.67739  0.75598  1.0000
  H   H2134     1.0  0.44489  0.62577  0.66472  1.0000
  C   C2667     1.0  0.25867  0.95328  0.94160  1.0000
  C   C2668     1.0  0.37276  0.50679  0.95026  1.0000
  H   H2135     1.0  0.33093  0.51772  0.91746  1.0000
  C   C2669     1.0  0.31822  0.57823  0.86765  1.0000
  H   H2136     1.0  0.33548  0.94618  0.82123  1.0000
  H   H2137     1.0  0.28016  0.53047  0.70719  1.0000
  C   C2670     1.0  0.42504  0.51372  0.82379  1.0000
  H   H2138     1.0  0.47520  0.50010  0.80958  1.0000
  H   H2139     1.0  0.35133  0.54406  0.89263  1.0000
  C   C2671     1.0  0.46899  0.84262  0.82717  1.0000
  S   S369      1.0  0.27166  0.98046  0.86107  1.0000
  H   H2140     1.0  0.30103  0.58611  0.91577  1.0000
  H   H2141     1.0  0.37087  0.56547  0.91509  1.0000
  H   H2142     1.0  0.38897  0.59076  0.92121  1.0000
  H   H2143     1.0  0.37301  0.61283  0.94648  1.0000
  C   C2672     1.0  0.43756  0.82067  0.65136  1.0000
  H   H2144     1.0  0.32008  0.58634  0.95800  1.0000
  C   C2673     1.0  0.43957  0.96842  0.77145  1.0000
  C   C2674     1.0  0.46355  0.87376  0.79449  1.0000
  H   H2145     1.0  0.44818  0.93803  0.70466  1.0000
  C   C2675     1.0  0.38427  0.59684  0.84414  1.0000
  C   C2676     1.0  0.41244  0.97130  0.88307  1.0000
  H   H2146     1.0  0.46566  0.67784  0.78145  1.0000
  C   C2677     1.0  0.46157  0.71708  0.91751  1.0000
  H   H2147     1.0  0.48297  0.94592  0.79705  1.0000
  C   C2678     1.0  0.47436  0.69651  0.70630  1.0000
  H   H2148     1.0  0.38510  0.71311  0.68233  1.0000
  H   H2149     1.0  0.46224  0.84407  0.95271  1.0000
  H   H2150     1.0  0.43454  0.79571  0.67555  1.0000
  H   H2151     1.0  0.29812  0.98047  0.97123  1.0000
  C   C2679     1.0  0.25211  0.90107  0.89760  1.0000
  C   C2680     1.0  0.47746  0.91044  0.77109  1.0000
  H   H2152     1.0  0.34274  0.54499  0.65291  1.0000
  H   H2153     1.0  0.36464  0.53759  0.95409  1.0000
  C   C2681     1.0  0.48764  0.87372  0.88739  1.0000
  H   H2154     1.0  0.29619  0.49208  0.65195  1.0000
  C   C2682     1.0  0.43625  0.90710  0.77191  1.0000
  C   C2683     1.0  0.43294  0.92274  0.75577  1.0000
  C   C2684     1.0  0.41378  0.93395  0.75475  1.0000
  C   C2685     1.0  0.39786  0.93005  0.77021  1.0000
  C   C2686     1.0  0.40118  0.91512  0.78679  1.0000
  C   C2687     1.0  0.42029  0.90367  0.78767  1.0000
  C   C2688     1.0  0.45840  0.92131  0.66506  1.0000
  C   C2689     1.0  0.30930  0.52438  0.71605  1.0000
  H   H2155     1.0  0.38114  0.48807  0.80575  1.0000
  C   C2690     1.0  0.44352  0.68113  0.74784  1.0000
  C   C2691     1.0  0.37814  0.58952  0.68864  1.0000
  H   H2156     1.0  0.40332  0.57615  0.72142  1.0000
  C   C2692     1.0  0.41320  0.60405  0.70610  1.0000
  H   H2157     1.0  0.47752  0.91195  0.84986  1.0000
  C   C2693     1.0  0.45335  0.84678  0.65759  1.0000
  H   H2158     1.0  0.38360  0.50358  0.96038  1.0000
  H   H2159     1.0  0.39183  0.54654  0.96664  1.0000
  H   H2160     1.0  0.47617  0.66699  0.91712  1.0000
  C   C2694     1.0  0.48134  0.70191  0.94387  1.0000
  H   H2161     1.0  0.44524  0.92619  0.74390  1.0000
  H   H2162     1.0  0.41133  0.94594  0.74215  1.0000
  H   H2163     1.0  0.38309  0.93897  0.76952  1.0000
  H   H2164     1.0  0.38895  0.91264  0.79905  1.0000
  H   H2165     1.0  0.42254  0.89242  0.80075  1.0000
  H   H2166     1.0  0.30373  0.52849  0.73080  1.0000
  H   H2167     1.0  0.42100  0.91129  0.93927  1.0000
  C   C2695     1.0  0.40745  0.54720  0.88889  1.0000
  C   C2696     1.0  0.36367  0.57714  0.69148  1.0000
  H   H2168     1.0  0.44685  0.91329  0.67410  1.0000
  C   C2697     1.0  0.42808  0.96453  0.80755  1.0000
  C   C2698     1.0  0.42888  0.95884  0.78892  1.0000
  P   P88       1.0  0.41467  0.95147  0.82994  1.0000
  C   C2699     1.0  0.43124  0.92823  0.83638  1.0000
  C   C2700     1.0  0.40925  0.96633  0.84986  1.0000
  C   C2701     1.0  0.41702  0.95947  0.86789  1.0000
  H   H2169     1.0  0.41735  0.64151  0.73010  1.0000
  C   C2702     1.0  0.48641  0.60399  0.97435  1.0000
  H   H2170     1.0  0.30118  0.72679  0.96336  1.0000
  H   H2171     1.0  0.45997  0.92256  0.79707  1.0000
  C   C2703     1.0  0.42582  0.90946  0.83706  1.0000
  C   C2704     1.0  0.43876  0.89178  0.84285  1.0000
  C   C2705     1.0  0.45724  0.89273  0.84763  1.0000
  C   C2706     1.0  0.46308  0.91129  0.84624  1.0000
  C   C2707     1.0  0.45026  0.92897  0.84037  1.0000
  C   C2708     1.0  0.39024  0.94860  0.82611  1.0000
  C   C2709     1.0  0.38106  0.96122  0.81058  1.0000
  C   C2710     1.0  0.36151  0.96008  0.80872  1.0000
  C   C2711     1.0  0.35085  0.94656  0.82243  1.0000
  C   C2712     1.0  0.35968  0.93424  0.83815  1.0000
  C   C2713     1.0  0.37917  0.93546  0.84017  1.0000
  H   H2172     1.0  0.40453  0.61768  0.75979  1.0000
  H   H2173     1.0  0.44401  0.86121  0.91579  1.0000
  C   C2714     1.0  0.35444  0.50660  0.85998  1.0000
  H   H2174     1.0  0.40686  0.56246  0.88098  1.0000
  H   H2175     1.0  0.42110  0.94709  0.78799  1.0000
  H   H2176     1.0  0.42683  0.94522  0.87033  1.0000
  C   C2715     1.0  0.41341  0.88868  0.96467  1.0000
  C   C2716     1.0  0.29912  0.84685  0.97183  1.0000
  H   H2177     1.0  0.34456  0.88735  0.97539  1.0000
  C   C2717     1.0  0.45319  0.84416  0.81670  1.0000
  H   H2178     1.0  0.41181  0.90829  0.83306  1.0000
  H   H2179     1.0  0.43455  0.87726  0.84368  1.0000
  H   H2180     1.0  0.31735  0.87014  0.96390  1.0000
  H   H2181     1.0  0.47373  0.49246  0.76825  1.0000
  H   H2182     1.0  0.45503  0.94328  0.83932  1.0000
  H   H2183     1.0  0.38862  0.97248  0.80027  1.0000
  C   C2718     1.0  0.45070  0.56966  0.69162  1.0000
  H   H2184     1.0  0.29006  0.55076  0.93011  1.0000
  H   H2185     1.0  0.35111  0.92430  0.84915  1.0000
  H   H2186     1.0  0.38538  0.92657  0.85302  1.0000
  C   C2719     1.0  0.43733  0.64243  0.76639  1.0000
  C   C2720     1.0  0.38091  0.52695  0.84903  1.0000
  C   C2721     1.0  0.45505  0.83630  0.67694  1.0000
  C   C2722     1.0  0.32721  0.93776  0.96774  1.0000
  C   C2723     1.0  0.29606  0.52552  0.70275  1.0000
  C   C2724     1.0  0.32974  0.51771  0.71040  1.0000
  Fe  Fe185     1.0  0.42407  0.81477  0.97323  1.0000
  H   H2187     1.0  0.32900  0.92553  0.92170  1.0000
  C   C2725     1.0  0.32783  0.96643  0.90794  1.0000
  C   C2726     1.0  0.47971  0.87178  0.80482  1.0000
  H   H2188     1.0  0.41922  0.96638  0.89651  1.0000
  H   H2189     1.0  0.37371  0.60443  0.69258  1.0000
  H   H2190     1.0  0.32316  0.95015  0.97602  1.0000
  C   C2727     1.0  0.46349  0.69836  0.91172  1.0000
  C   C2728     1.0  0.47057  0.71891  0.93342  1.0000
  C   C2729     1.0  0.40206  0.87093  0.88680  1.0000
  C   C2730     1.0  0.40333  0.88942  0.89146  1.0000
  C   C2731     1.0  0.38612  0.90398  0.89382  1.0000
  C   C2732     1.0  0.36760  0.89999  0.89164  1.0000
  C   C2733     1.0  0.36613  0.88130  0.88725  1.0000
  C   C2734     1.0  0.38361  0.86694  0.88450  1.0000
  P   P89       1.0  0.34236  0.87624  0.88378  1.0000
  C   C2735     1.0  0.34139  0.84967  0.89073  1.0000
  C   C2736     1.0  0.32181  0.88960  0.89936  1.0000
  C   C2737     1.0  0.31201  0.87941  0.91719  1.0000
  C   C2738     1.0  0.29469  0.88914  0.92788  1.0000
  C   C2739     1.0  0.28708  0.90908  0.92099  1.0000
  C   C2740     1.0  0.29697  0.91957  0.90362  1.0000
  C   C2741     1.0  0.31439  0.90995  0.89291  1.0000
  C   C2742     1.0  0.33100  0.84037  0.88053  1.0000
  C   C2743     1.0  0.32956  0.82000  0.88653  1.0000
  C   C2744     1.0  0.33830  0.80884  0.90282  1.0000
  C   C2745     1.0  0.34849  0.81802  0.91313  1.0000
  C   C2746     1.0  0.35004  0.83834  0.90714  1.0000
  C   C2747     1.0  0.33953  0.88406  0.85766  1.0000
  C   C2748     1.0  0.35633  0.88227  0.84242  1.0000
  C   C2749     1.0  0.35414  0.88840  0.82221  1.0000
  C   C2750     1.0  0.33521  0.89647  0.81708  1.0000
  C   C2751     1.0  0.31838  0.89799  0.83213  1.0000
  C   C2752     1.0  0.32045  0.89152  0.85230  1.0000
  H   H2191     1.0  0.41538  0.85953  0.88524  1.0000
  H   H2192     1.0  0.41768  0.89234  0.89333  1.0000
  H   H2193     1.0  0.38713  0.91829  0.89748  1.0000
  H   H2194     1.0  0.35450  0.91146  0.89349  1.0000
  H   H2195     1.0  0.38304  0.85250  0.88082  1.0000
  H   H2196     1.0  0.31725  0.86378  0.92268  1.0000
  H   H2197     1.0  0.28669  0.88098  0.94114  1.0000
  H   H2198     1.0  0.27310  0.91611  0.92877  1.0000
  H   H2199     1.0  0.29063  0.93491  0.89802  1.0000
  H   H2200     1.0  0.32150  0.91816  0.87915  1.0000
  H   H2201     1.0  0.32377  0.84881  0.86814  1.0000
  H   H2202     1.0  0.32146  0.81290  0.87870  1.0000
  H   H2203     1.0  0.33704  0.79311  0.90763  1.0000
  H   H2204     1.0  0.35500  0.80944  0.92597  1.0000
  H   H2205     1.0  0.35769  0.84524  0.91558  1.0000
  H   H2206     1.0  0.37109  0.87600  0.84611  1.0000
  H   H2207     1.0  0.36708  0.88673  0.81049  1.0000
  H   H2208     1.0  0.33351  0.90132  0.80143  1.0000
  H   H2209     1.0  0.30361  0.90407  0.82824  1.0000
  H   H2210     1.0  0.30704  0.89235  0.86360  1.0000
  C   C2753     1.0  0.33414  0.91866  0.97782  1.0000
  H   H2211     1.0  0.37418  0.50989  0.87897  1.0000
  C   C2754     1.0  0.41249  0.56887  0.82460  1.0000
  C   C2755     1.0  0.43942  0.81016  0.67068  1.0000
  C   C2756     1.0  0.24825  0.97171  0.93375  1.0000
  C   C2757     1.0  0.30319  0.51970  0.68391  1.0000
  C   C2758     1.0  0.42524  0.52280  0.84034  1.0000
  C   C2759     1.0  0.41302  0.52374  0.91927  1.0000
  H   H2212     1.0  0.45613  0.69689  0.89966  1.0000
  H   H2213     1.0  0.45145  0.72178  0.97355  1.0000
  C   C2760     1.0  0.39718  0.60336  0.82674  1.0000
  C   C2761     1.0  0.45788  0.88224  0.73561  1.0000
  C   C2762     1.0  0.39444  0.57510  0.97330  1.0000
  Fe  Fe186     1.0  0.47869  0.57623  0.73587  1.0000
  C   C2763     1.0  0.45463  0.87998  0.96634  1.0000
  H   H2214     1.0  0.33693  0.50555  0.83756  1.0000
  C   C2764     1.0  0.32625  0.97436  0.87216  1.0000
  P   P90       1.0  0.33324  0.50535  0.65379  1.0000
  C   C2765     1.0  0.27464  0.54739  0.96056  1.0000
  C   C2766     1.0  0.47325  0.98278  0.84298  1.0000
  H   H2215     1.0  0.37837  0.82294  0.65602  1.0000
  P   P91       1.0  0.31591  0.96488  0.93402  1.0000
  C   C2767     1.0  0.47814  0.84164  0.94698  1.0000
  H   H2216     1.0  0.46818  0.67380  0.97831  1.0000
  H   H2217     1.0  0.47323  0.60012  0.97076  1.0000
  H   H2218     1.0  0.40607  0.65526  0.77209  1.0000
  C   C2768     1.0  0.33431  0.56277  0.87095  1.0000
  H   H2219     1.0  0.38261  0.54258  0.81824  1.0000
  C   C2769     1.0  0.39835  0.58238  0.68163  1.0000
  C   C2770     1.0  0.40835  0.51170  0.88999  1.0000
  C   C2771     1.0  0.40291  0.59562  0.74225  1.0000
  C   C2772     1.0  0.46302  0.84418  0.89408  1.0000
  H   H2220     1.0  0.39756  0.89162  0.96377  1.0000
  H   H2221     1.0  0.41928  0.55645  0.67258  1.0000
  H   H2222     1.0  0.26516  0.97653  0.97716  1.0000
  H   H2223     1.0  0.46819  0.80551  0.97171  1.0000
  H   H2224     1.0  0.28699  0.93665  0.94826  1.0000
  C   C2773     1.0  0.33936  0.90223  0.96762  1.0000
  H   H2225     1.0  0.44810  0.65701  0.70478  1.0000
  H   H2226     1.0  0.39371  0.53477  0.67817  1.0000
  C   C2774     1.0  0.33763  0.90488  0.94734  1.0000
  H   H2227     1.0  0.41279  0.55558  0.91569  1.0000
  C   C2775     1.0  0.48044  0.61504  0.69339  1.0000
  C   C2776     1.0  0.44127  0.86895  0.98005  1.0000
  C   C2777     1.0  0.38552  0.57634  0.85186  1.0000
  C   C2778     1.0  0.40688  0.70376  0.65751  1.0000
  C   C2779     1.0  0.29136  0.55011  0.94564  1.0000
  H   H2228     1.0  0.26339  0.94738  0.65432  1.0000
  H   H2229     1.0  0.46898  0.73359  0.93754  1.0000
  H   H2230     1.0  0.46542  0.68560  0.70534  1.0000
  H   H2231     1.0  0.26496  0.73937  0.96417  1.0000
  C   C2780     1.0  0.33060  0.92389  0.93728  1.0000
  H   H2232     1.0  0.34944  0.80991  0.96425  1.0000
  H   H2233     1.0  0.44069  0.49260  0.75907  1.0000
  C   C2781     1.0  0.42663  0.89967  0.95085  1.0000
  H   H2234     1.0  0.47586  0.51531  0.83902  1.0000
  C   C2782     1.0  0.37032  0.51417  0.86409  1.0000
  P   P92       1.0  0.48124  0.87275  0.96640  1.0000
  P   P93       1.0  0.41729  0.59729  0.68129  1.0000
  S   S370      1.0  0.45794  0.68001  0.66573  1.0000
  C   C2783     1.0  0.36905  0.49157  0.94145  1.0000
  H   H2235     1.0  0.32524  0.54963  0.97590  1.0000
  H   H2236     1.0  0.45283  0.73013  0.90983  1.0000
  C   C2784     1.0  0.41108  0.54333  0.90869  1.0000
  H   H2237     1.0  0.46903  0.63370  0.75937  1.0000
  C   C2785     1.0  0.42076  0.87337  0.97931  1.0000
  H   H2238     1.0  0.44318  0.83319  0.82114  1.0000
  C   C2786     1.0  0.28918  0.96766  0.93534  1.0000
  C   C2787     1.0  0.37474  0.53268  0.83012  1.0000
  H   H2239     1.0  0.44437  0.53048  0.85820  1.0000
  C   C2788     1.0  0.35887  0.52507  0.82608  1.0000
  C   C2789     1.0  0.41108  0.58935  0.81682  1.0000
  H   H2240     1.0  0.43516  0.62753  0.77417  1.0000
  C   C2790     1.0  0.48201  0.64274  0.66501  1.0000
  H   H2241     1.0  0.42351  0.55840  0.81667  1.0000
  H   H2242     1.0  0.44995  0.80966  0.69830  1.0000
  H   H2243     1.0  0.35830  0.54754  0.69058  1.0000
  H   H2244     1.0  0.29398  0.59879  0.88125  1.0000
  P   P94       1.0  0.46118  0.89260  0.77229  1.0000
  H   H2245     1.0  0.26059  0.54621  0.95647  1.0000
  H   H2246     1.0  0.26056  0.88876  0.89026  1.0000
  C   C2791     1.0  0.41579  0.61977  0.66246  1.0000
  H   H2247     1.0  0.41361  0.49266  0.91799  1.0000
  S   S371      1.0  0.40909  0.97941  0.67286  1.0000
  H   H2248     1.0  0.46594  0.62941  0.82904  1.0000
  C   C2792     1.0  0.44818  0.81796  0.68346  1.0000
  C   C2793     1.0  0.46992  0.87491  0.90151  1.0000
  C   C2794     1.0  0.48242  0.85623  0.82102  1.0000
  H   H2249     1.0  0.39662  0.61926  0.82107  1.0000
  C   C2795     1.0  0.46919  0.55734  0.68725  1.0000
  C   C2796     1.0  0.25075  0.92080  0.88703  1.0000
  H   H2250     1.0  0.44277  0.49941  0.79951  1.0000
  P   P95       1.0  0.48526  0.67071  0.74060  1.0000
  H   H2251     1.0  0.25083  0.94059  0.94670  1.0000
  H   H2252     1.0  0.31756  0.97945  0.86003  1.0000
  H   H2253     1.0  0.35445  0.97226  0.85221  1.0000
  C   C2797     1.0  0.34886  0.51187  0.84093  1.0000
  H   H2254     1.0  0.37361  0.60774  0.85192  1.0000
  C   C2798     1.0  0.31108  0.54943  0.97135  1.0000
  C   C2799     1.0  0.40555  0.53146  0.87946  1.0000
  C   C2800     1.0  0.48284  0.85850  0.71848  1.0000
  H   H2255     1.0  0.34819  0.58256  0.69733  1.0000
  C   C2801     1.0  0.27911  0.95118  0.94241  1.0000
  H   H2256     1.0  0.42124  0.59432  0.80340  1.0000
  C   C2802     1.0  0.48068  0.84307  0.87986  1.0000
  H   H2257     1.0  0.35460  0.52912  0.81127  1.0000
  C   C2803     1.0  0.31660  0.97262  0.89214  1.0000
  C   C2804     1.0  0.35137  0.80997  0.66343  1.0000
  C   C2805     1.0  0.44178  0.58235  0.67604  1.0000
  H   H2258     1.0  0.37564  0.57157  0.86552  1.0000
  H   H2259     1.0  0.40588  0.57812  0.96040  1.0000
  C   C2806     1.0  0.29122  0.72699  0.97766  1.0000
  H   H2260     1.0  0.45724  0.90370  0.94054  1.0000
  C   C2807     1.0  0.40012  0.56224  0.84253  1.0000
  C   C2808     1.0  0.35829  0.96285  0.88329  1.0000
  H   H2261     1.0  0.35292  0.50696  0.68749  1.0000
  C   C2809     1.0  0.34875  0.96112  0.90331  1.0000
  H   H2262     1.0  0.25572  0.91219  0.97251  1.0000
  C   C2810     1.0  0.48170  0.67660  0.78039  1.0000
  H   H2263     1.0  0.47726  0.56913  0.92658  1.0000
  C   C2811     1.0  0.35413  0.49561  0.92943  1.0000
  H   H2264     1.0  0.37440  0.95904  0.87983  1.0000
  C   C2812     1.0  0.29894  0.82622  0.97469  1.0000
  H   H2265     1.0  0.30046  0.97631  0.89492  1.0000
  H   H2266     1.0  0.46716  0.87906  0.85224  1.0000
  H   H2267     1.0  0.32659  0.79399  0.66793  1.0000
  C   C2813     1.0  0.38640  0.55726  0.97683  1.0000
  H   H2268     1.0  0.45651  0.87498  0.70686  1.0000
  C   C2814     1.0  0.46904  0.87902  0.75133  1.0000
  C   C2815     1.0  0.48691  0.86505  0.75061  1.0000
  C   C2816     1.0  0.46126  0.50573  0.81856  1.0000
  H   H2269     1.0  0.48495  0.83069  0.87152  1.0000
  C   C2817     1.0  0.48006  0.93282  0.70430  1.0000
  H   H2270     1.0  0.41127  0.51369  0.81863  1.0000
  H   H2271     1.0  0.34002  0.51672  0.72076  1.0000
  H   H2272     1.0  0.41153  0.68960  0.75543  1.0000
  H   H2273     1.0  0.48708  0.74099  0.68057  1.0000
  C   C2818     1.0  0.33547  0.82028  0.96627  1.0000
  H   H2274     1.0  0.44567  0.69637  0.74143  1.0000
  C   C2819     1.0  0.39637  0.98487  0.84759  1.0000
  H   H2275     1.0  0.46561  0.88733  0.90976  1.0000
  C   C2820     1.0  0.45154  0.58241  0.65606  1.0000
  C   C2821     1.0  0.47587  0.97431  0.70260  1.0000
  H   H2276     1.0  0.33882  0.61055  0.96459  1.0000
  C   C2822     1.0  0.41392  0.62741  0.72814  1.0000
  C   C2823     1.0  0.45668  0.64603  0.75793  1.0000
  C   C2824     1.0  0.45902  0.96547  0.70376  1.0000
  C   C2825     1.0  0.36930  0.55746  0.68760  1.0000
  C   C2826     1.0  0.48656  0.72780  0.69220  1.0000
  H   H2277     1.0  0.46208  0.84232  0.68669  1.0000
  H   H2278     1.0  0.31715  0.79697  0.97419  1.0000
  H   H2279     1.0  0.48179  0.91683  0.70419  1.0000
  C   C2827     1.0  0.44719  0.89533  0.95163  1.0000
  H   H2280     1.0  0.28889  0.49006  0.85545  1.0000
  C   C2828     1.0  0.48828  0.62266  0.67350  1.0000
  C   C2829     1.0  0.47903  0.55784  0.66742  1.0000
  H   H2281     1.0  0.47631  0.54799  0.69934  1.0000
  C   C2830     1.0  0.24340  0.77918  0.97259  1.0000
  H   H2282     1.0  0.28516  0.85711  0.97396  1.0000
  H   H2283     1.0  0.42279  0.63308  0.69630  1.0000
  C   C2831     1.0  0.47019  0.57033  0.65181  1.0000
  S   S372      1.0  0.39461  0.80414  0.97857  1.0000
  C   C2832     1.0  0.24306  0.89727  0.91789  1.0000
  H   H2284     1.0  0.46628  0.71587  0.67941  1.0000
  H   H2285     1.0  0.41263  0.68949  0.66604  1.0000
  C   C2833     1.0  0.47483  0.71368  0.69154  1.0000
  C   C2834     1.0  0.47470  0.68150  0.92162  1.0000
  C   C2835     1.0  0.48611  0.93635  0.78565  1.0000
  C   C2836     1.0  0.48568  0.82707  0.93462  1.0000
  H   H2286     1.0  0.29250  0.52032  0.67413  1.0000
  H   H2287     1.0  0.24495  0.70792  0.97880  1.0000
  H   H2288     1.0  0.40819  0.49916  0.88270  1.0000
  C   C2837     1.0  0.48388  0.68329  0.93742  1.0000
  C   C2838     1.0  0.31718  0.81297  0.97192  1.0000
  C   C2839     1.0  0.27606  0.54605  0.98080  1.0000
  C   C2840     1.0  0.38445  0.73577  0.65576  1.0000
  H   H2289     1.0  0.47559  0.81864  0.93091  1.0000
  C   C2841     1.0  0.48296  0.96344  0.84949  1.0000
  C   C2842     1.0  0.46038  0.72960  0.97974  1.0000
  H   H2290     1.0  0.47465  0.57948  0.89047  1.0000
  C   C2843     1.0  0.47313  0.92317  0.78557  1.0000
  C   C2844     1.0  0.48137  0.72444  0.97711  1.0000
  H   H2291     1.0  0.27861  0.49092  0.70574  1.0000
  H   H2292     1.0  0.47917  0.68010  0.81129  1.0000
  S   S373      1.0  0.27620  0.81662  0.98156  1.0000
  C   C2845     1.0  0.43176  0.63069  0.65741  1.0000
  H   H2293     1.0  0.45903  0.86081  0.65304  1.0000
  C   C2846     1.0  0.48894  0.57807  0.89539  1.0000
  H   H2294     1.0  0.25650  0.77595  0.97992  1.0000
  H   H2295     1.0  0.48847  0.85103  0.70551  1.0000
  S   S374      1.0  0.48911  0.58987  0.70354  1.0000
  C   C2847     1.0  0.64356  0.98798  0.14540  1.0000
  C   C2848     1.0  0.65616  0.44167  0.99636  1.0000
  S   S375      1.0  0.54073  0.37495  0.20712  1.0000
  Fe  Fe187     1.0  0.65036  0.42864  0.20245  1.0000
  S   S376      1.0  0.65971  0.40140  0.22469  1.0000
  S   S377      1.0  0.65962  0.43060  0.16851  1.0000
  Fe  Fe188     1.0  0.62738  0.45200  0.23546  1.0000
  S   S378      1.0  0.63461  0.42617  0.25989  1.0000
  Fe  Fe189     1.0  0.66596  0.42310  0.24269  1.0000
  S   S379      1.0  0.69317  0.41542  0.25921  1.0000
  Fe  Fe190     1.0  0.62764  0.40724  0.23992  1.0000
  S   S380      1.0  0.60875  0.38296  0.25357  1.0000
  S   S381      1.0  0.65915  0.45004  0.21908  1.0000
  S   S382      1.0  0.61793  0.43338  0.21677  1.0000
  H   H2296     1.0  0.57420  0.39579  0.19509  1.0000
  Fe  Fe191     1.0  0.71506  0.08922  0.99725  1.0000
  S   S383      1.0  0.70983  0.07582  0.03007  1.0000
  H   H2297     1.0  0.53968  0.27956  0.16665  1.0000
  H   H2298     1.0  0.72686  0.41290  0.22204  1.0000
  C   C2849     1.0  0.51432  0.26704  0.09201  1.0000
  C   C2850     1.0  0.50731  0.12348  0.10124  1.0000
  C   C2851     1.0  0.57151  0.38139  0.14637  1.0000
  H   H2299     1.0  0.65217  0.00085  0.24513  1.0000
  S   S384      1.0  0.55712  0.03257  0.12389  1.0000
  H   H2300     1.0  0.57839  0.39460  0.14030  1.0000
  Fe  Fe192     1.0  0.54583  0.01969  0.15604  1.0000
  S   S385      1.0  0.54151  0.03832  0.18063  1.0000
  Fe  Fe193     1.0  0.53203  0.02030  0.11649  1.0000
  H   H2301     1.0  0.58456  0.34631  0.19493  1.0000
  P   P96       1.0  0.59145  0.32142  0.16318  1.0000
  H   H2302     1.0  0.72132  0.48482  0.03010  1.0000
  H   H2303     1.0  0.73722  0.42165  0.18520  1.0000
  H   H2304     1.0  0.70248  0.99958  0.02803  1.0000
  C   C2852     1.0  0.72352  0.40420  0.21194  1.0000
  C   C2853     1.0  0.63240  0.11116  0.00338  1.0000
  H   H2305     1.0  0.60874  0.41269  0.00352  1.0000
  S   S386      1.0  0.55170  0.99442  0.26970  1.0000
  C   C2854     1.0  0.62608  0.31273  0.18073  1.0000
  C   C2855     1.0  0.68493  0.00696  0.05573  1.0000
  Fe  Fe194     1.0  0.64363  0.38205  0.08020  1.0000
  S   S387      1.0  0.65887  0.35339  0.06888  1.0000
  S   S388      1.0  0.63089  0.38081  0.11359  1.0000
  Fe  Fe195     1.0  0.65006  0.40630  0.03799  1.0000
  S   S389      1.0  0.66611  0.37957  0.02369  1.0000
  S   S390      1.0  0.64362  0.43792  0.02131  1.0000
  Fe  Fe196     1.0  0.64175  0.36364  0.04287  1.0000
  S   S391      1.0  0.62406  0.34236  0.03454  1.0000
  Fe  Fe197     1.0  0.68169  0.37183  0.05084  1.0000
  S   S392      1.0  0.71495  0.35977  0.04885  1.0000
  S   S393      1.0  0.62464  0.39098  0.05571  1.0000
  S   S394      1.0  0.66742  0.39987  0.06350  1.0000
  C   C2856     1.0  0.73656  0.45740  0.99428  1.0000
  Fe  Fe198     1.0  0.57553  0.00182  0.12265  1.0000
  H   H2306     1.0  0.60618  0.29737  0.22773  1.0000
  C   C2857     1.0  0.62564  0.01379  0.23213  1.0000
  C   C2858     1.0  0.61165  0.33994  0.20752  1.0000
  C   C2859     1.0  0.62016  0.33892  0.01064  1.0000
  H   H2307     1.0  0.52283  0.06619  0.11749  1.0000
  S   S395      1.0  0.49489  0.35431  0.20227  1.0000
  H   H2308     1.0  0.57151  0.44304  0.00522  1.0000
  C   C2860     1.0  0.60532  0.32782  0.00979  1.0000
  C   C2861     1.0  0.63755  0.47709  0.05413  1.0000
  C   C2862     1.0  0.71602  0.45910  0.99374  1.0000
  H   H2309     1.0  0.59642  0.32175  0.02359  1.0000
  C   C2863     1.0  0.72924  0.37056  0.06126  1.0000
  C   C2864     1.0  0.61425  0.40649  0.98977  1.0000
  C   C2865     1.0  0.72011  0.38434  0.07408  1.0000
  H   H2310     1.0  0.72454  0.40414  0.09280  1.0000
  H   H2311     1.0  0.70402  0.38793  0.07730  1.0000
  H   H2312     1.0  0.60075  0.39940  0.21302  1.0000
  H   H2313     1.0  0.57609  0.36065  0.26499  1.0000
  H   H2314     1.0  0.67882  0.41539  0.00008  1.0000
  H   H2315     1.0  0.64027  0.33095  0.21741  1.0000
  C   C2866     1.0  0.54362  0.02590  0.20538  1.0000
  C   C2867     1.0  0.54714  0.00494  0.21026  1.0000
  C   C2868     1.0  0.54924  0.99563  0.23008  1.0000
  C   C2869     1.0  0.54763  0.00713  0.24526  1.0000
  C   C2870     1.0  0.54406  0.02815  0.24023  1.0000
  C   C2871     1.0  0.54200  0.03742  0.22046  1.0000
  C   C2872     1.0  0.60654  0.29422  0.25936  1.0000
  C   C2873     1.0  0.71567  0.47211  0.03995  1.0000
  H   H2316     1.0  0.54364  0.03752  0.25114  1.0000
  H   H2317     1.0  0.53949  0.05363  0.21674  1.0000
  H   H2318     1.0  0.53142  0.08772  0.05017  1.0000
  H   H2319     1.0  0.72830  0.41450  0.01468  1.0000
  C   C2874     1.0  0.49014  0.30663  0.13789  1.0000
  C   C2875     1.0  0.72024  0.06881  0.23715  1.0000
  S   S396      1.0  0.53357  0.31971  0.21027  1.0000
  H   H2320     1.0  0.52205  0.25986  0.01742  1.0000
  C   C2876     1.0  0.72131  0.05088  0.03697  1.0000
  C   C2877     1.0  0.72047  0.04279  0.05741  1.0000
  C   C2878     1.0  0.49472  0.38011  0.13738  1.0000
  C   C2879     1.0  0.65799  0.02512  0.98720  1.0000
  C   C2880     1.0  0.55245  0.42351  0.23987  1.0000
  H   H2321     1.0  0.67396  0.42589  0.31373  1.0000
  H   H2322     1.0  0.71303  0.05199  0.06865  1.0000
  C   C2881     1.0  0.49616  0.25722  0.30595  1.0000
  H   H2323     1.0  0.72799  0.31304  0.06364  1.0000
  C   C2882     1.0  0.54848  0.09312  0.99427  1.0000
  H   H2324     1.0  0.50960  0.24861  0.98635  1.0000
  H   H2325     1.0  0.71730  0.02344  0.22657  1.0000
  C   C2883     1.0  0.50917  0.24151  0.31557  1.0000
  C   C2884     1.0  0.70440  0.43101  0.27005  1.0000
  C   C2885     1.0  0.72081  0.42230  0.28002  1.0000
  C   C2886     1.0  0.72976  0.43387  0.28949  1.0000
  C   C2887     1.0  0.50143  0.31303  0.30758  1.0000
  C   C2888     1.0  0.70681  0.46328  0.27802  1.0000
  C   C2889     1.0  0.69746  0.45162  0.26910  1.0000
  C   C2890     1.0  0.55790  0.10226  0.00538  1.0000
  C   C2891     1.0  0.51822  0.28650  0.99505  1.0000
  H   H2326     1.0  0.68496  0.45861  0.26141  1.0000
  C   C2892     1.0  0.65234  0.41573  0.15376  1.0000
  C   C2893     1.0  0.65774  0.41971  0.13273  1.0000
  C   C2894     1.0  0.65160  0.40887  0.12034  1.0000
  C   C2895     1.0  0.63984  0.39398  0.12882  1.0000
  C   C2896     1.0  0.63457  0.38986  0.14988  1.0000
  C   C2897     1.0  0.64093  0.40055  0.16231  1.0000
  H   H2327     1.0  0.66674  0.43126  0.12598  1.0000
  H   H2328     1.0  0.65576  0.41225  0.10420  1.0000
  H   H2329     1.0  0.62547  0.37841  0.15665  1.0000
  H   H2330     1.0  0.63665  0.39733  0.17848  1.0000
  H   H2331     1.0  0.54977  0.40936  0.24921  1.0000
  H   H2332     1.0  0.69300  0.48048  0.11725  1.0000
  C   C2898     1.0  0.49587  0.28076  0.02693  1.0000
  H   H2333     1.0  0.53838  0.26496  0.13118  1.0000
  C   C2899     1.0  0.57046  0.33213  0.31164  1.0000
  C   C2900     1.0  0.56667  0.31366  0.26211  1.0000
  C   C2901     1.0  0.56007  0.37611  0.21989  1.0000
  C   C2902     1.0  0.56076  0.36607  0.23954  1.0000
  C   C2903     1.0  0.57576  0.36827  0.24974  1.0000
  C   C2904     1.0  0.59011  0.38052  0.24037  1.0000
  C   C2905     1.0  0.58958  0.39027  0.22055  1.0000
  C   C2906     1.0  0.57460  0.38806  0.21035  1.0000
  H   H2334     1.0  0.54951  0.35696  0.24700  1.0000
  C   C2907     1.0  0.49769  0.21580  0.03409  1.0000
  H   H2335     1.0  0.53232  0.09420  0.99721  1.0000
  H   H2336     1.0  0.50394  0.30810  0.12767  1.0000
  H   H2337     1.0  0.67509  0.28695  0.03029  1.0000
  C   C2908     1.0  0.73097  0.23343  0.07778  1.0000
  C   C2909     1.0  0.57877  0.10147  0.00119  1.0000
  C   C2910     1.0  0.50863  0.11048  0.08746  1.0000
  P   P97       1.0  0.59059  0.11494  0.01423  1.0000
  C   C2911     1.0  0.57825  0.11338  0.04021  1.0000
  C   C2912     1.0  0.61621  0.10248  0.01508  1.0000
  C   C2913     1.0  0.62020  0.08414  0.02804  1.0000
  C   C2914     1.0  0.63994  0.07521  0.02995  1.0000
  C   C2915     1.0  0.65586  0.08447  0.01893  1.0000
  H   H2338     1.0  0.50206  0.36264  0.28987  1.0000
  H   H2339     1.0  0.70153  0.47925  0.27685  1.0000
  C   C2916     1.0  0.57736  0.12882  0.05115  1.0000
  C   C2917     1.0  0.56928  0.12666  0.07165  1.0000
  C   C2918     1.0  0.56201  0.10911  0.08139  1.0000
  C   C2919     1.0  0.56279  0.09369  0.07066  1.0000
  C   C2920     1.0  0.57083  0.09580  0.05019  1.0000
  C   C2921     1.0  0.52244  0.42272  0.18312  1.0000
  C   C2922     1.0  0.63695  0.47512  0.13516  1.0000
  H   H2340     1.0  0.56128  0.47908  0.99276  1.0000
  C   C2923     1.0  0.70663  0.44102  0.15306  1.0000
  H   H2341     1.0  0.50544  0.41452  0.22879  1.0000
  C   C2924     1.0  0.70076  0.43952  0.06533  1.0000
  C   C2925     1.0  0.59445  0.01641  0.25559  1.0000
  H   H2342     1.0  0.51261  0.20866  0.05997  1.0000
  H   H2343     1.0  0.53130  0.28135  0.98471  1.0000
  H   H2344     1.0  0.52700  0.29071  0.31308  1.0000
  H   H2345     1.0  0.51164  0.21467  0.02365  1.0000
  H   H2346     1.0  0.60816  0.07674  0.03689  1.0000
  H   H2347     1.0  0.64295  0.06126  0.04019  1.0000
  H   H2348     1.0  0.67114  0.07770  0.02062  1.0000
  H   H2349     1.0  0.70492  0.11761  0.03495  1.0000
  P   P98       1.0  0.57441  0.40686  0.98756  1.0000
  H   H2350     1.0  0.58303  0.14246  0.04408  1.0000
  H   H2351     1.0  0.56884  0.13853  0.08006  1.0000
  H   H2352     1.0  0.55596  0.10731  0.09732  1.0000
  H   H2353     1.0  0.55745  0.07991  0.07832  1.0000
  H   H2354     1.0  0.57164  0.08345  0.04231  1.0000
  H   H2355     1.0  0.57019  0.26711  0.21748  1.0000
  H   H2356     1.0  0.67754  0.46151  0.07804  1.0000
  C   C2926     1.0  0.57772  0.30999  0.24347  1.0000
  C   C2927     1.0  0.60485  0.01943  0.23592  1.0000
  C   C2928     1.0  0.53511  0.48158  0.17920  1.0000
  C   C2929     1.0  0.72283  0.45449  0.28849  1.0000
  H   H2357     1.0  0.60602  0.35022  0.21813  1.0000
  C   C2930     1.0  0.65908  0.04494  0.98864  1.0000
  C   C2931     1.0  0.63815  0.31520  0.19389  1.0000
  C   C2932     1.0  0.56126  0.44577  0.16575  1.0000
  H   H2358     1.0  0.63860  0.01721  0.02893  1.0000
  S   S397      1.0  0.50910  0.31586  0.16548  1.0000
  C   C2933     1.0  0.62562  0.00212  0.26775  1.0000
  S   S398      1.0  0.56627  0.98993  0.15533  1.0000
  C   C2934     1.0  0.59671  0.43555  0.15406  1.0000
  H   H2359     1.0  0.59664  0.02595  0.22360  1.0000
  H   H2360     1.0  0.59976  0.36200  0.14620  1.0000
  H   H2361     1.0  0.50051  0.05897  0.01860  1.0000
  H   H2362     1.0  0.62698  0.33791  0.14075  1.0000
  C   C2935     1.0  0.69846  0.47538  0.05435  1.0000
  C   C2936     1.0  0.73092  0.03893  0.02249  1.0000
  S   S399      1.0  0.73424  0.47024  0.29894  1.0000
  H   H2363     1.0  0.53951  0.22590  0.31413  1.0000
  H   H2364     1.0  0.69573  0.05502  0.23432  1.0000
  C   C2937     1.0  0.64409  0.45833  0.30908  1.0000
  C   C2938     1.0  0.53783  0.16478  0.02034  1.0000
  C   C2939     1.0  0.60151  0.17269  0.99465  1.0000
  C   C2940     1.0  0.50772  0.33991  0.08155  1.0000
  C   C2941     1.0  0.71789  0.43623  0.05085  1.0000
  H   H2365     1.0  0.72640  0.40639  0.28077  1.0000
  S   S400      1.0  0.55140  0.99053  0.11268  1.0000
  C   C2942     1.0  0.72629  0.38637  0.13869  1.0000
  H   H2366     1.0  0.52791  0.15479  0.99672  1.0000
  C   C2943     1.0  0.64436  0.48405  0.27945  1.0000
  C   C2944     1.0  0.71181  0.05325  0.23361  1.0000
  C   C2945     1.0  0.59346  0.35594  0.30649  1.0000
  S   S401      1.0  0.50588  0.33946  0.24822  1.0000
  C   C2946     1.0  0.62628  0.99201  0.13635  1.0000
  C   C2947     1.0  0.56804  0.45309  0.23317  1.0000
  C   C2948     1.0  0.51833  0.09535  0.12611  1.0000
  H   H2367     1.0  0.54642  0.17531  0.01012  1.0000
  C   C2949     1.0  0.57736  0.30121  0.17436  1.0000
  C   C2950     1.0  0.59258  0.43338  0.13562  1.0000
  H   H2368     1.0  0.50174  0.13936  0.09747  1.0000
  C   C2951     1.0  0.52632  0.14884  0.05425  1.0000
  H   H2369     1.0  0.55978  0.30600  0.15043  1.0000
  C   C2952     1.0  0.66400  0.48461  0.30484  1.0000
  H   H2370     1.0  0.63394  0.99538  0.27989  1.0000
  C   C2953     1.0  0.63649  0.32410  0.11454  1.0000
  H   H2371     1.0  0.70825  0.26857  0.03713  1.0000
  H   H2372     1.0  0.69798  0.15449  0.03381  1.0000
  C   C2954     1.0  0.68749  0.00444  0.03565  1.0000
  H   H2373     1.0  0.51121  0.12606  0.13095  1.0000
  H   H2374     1.0  0.51745  0.46236  0.25329  1.0000
  H   H2375     1.0  0.60476  0.42847  0.12410  1.0000
  C   C2955     1.0  0.63097  0.32891  0.20720  1.0000
  C   C2956     1.0  0.73272  0.98781  0.17692  1.0000
  C   C2957     1.0  0.57524  0.34531  0.15802  1.0000
  C   C2958     1.0  0.51296  0.27433  0.01355  1.0000
  H   H2376     1.0  0.73159  0.04512  0.00671  1.0000
  C   C2959     1.0  0.52182  0.25948  0.10993  1.0000
  C   C2960     1.0  0.56584  0.27083  0.31441  1.0000
  Fe  Fe199     1.0  0.50565  0.32257  0.19714  1.0000
  C   C2961     1.0  0.52829  0.29751  0.08867  1.0000
  C   C2962     1.0  0.53616  0.28960  0.10651  1.0000
  P   P99       1.0  0.53080  0.32269  0.07579  1.0000
  C   C2963     1.0  0.55093  0.33058  0.08402  1.0000
  C   C2964     1.0  0.53633  0.32191  0.04914  1.0000
  C   C2965     1.0  0.52633  0.33662  0.03559  1.0000
  C   C2966     1.0  0.52985  0.33518  0.01516  1.0000
  C   C2967     1.0  0.54351  0.31924  0.00808  1.0000
  C   C2968     1.0  0.55357  0.30460  0.02142  1.0000
  C   C2969     1.0  0.54994  0.30585  0.04190  1.0000
  C   C2970     1.0  0.54705  0.33898  0.10172  1.0000
  C   C2971     1.0  0.56240  0.34530  0.10817  1.0000
  C   C2972     1.0  0.58190  0.34261  0.09751  1.0000
  C   C2973     1.0  0.58604  0.33353  0.08037  1.0000
  C   C2974     1.0  0.57062  0.32781  0.07343  1.0000
  H   H2377     1.0  0.71070  0.08264  0.24059  1.0000
  C   C2975     1.0  0.51786  0.07171  0.03419  1.0000
  H   H2378     1.0  0.49078  0.38917  0.08600  1.0000
  H   H2379     1.0  0.57730  0.46196  0.23749  1.0000
  H   H2380     1.0  0.65310  0.30654  0.19374  1.0000
  C   C2976     1.0  0.60187  0.32452  0.99120  1.0000
  H   H2381     1.0  0.51553  0.34897  0.04074  1.0000
  H   H2382     1.0  0.52169  0.34615  0.00480  1.0000
  H   H2383     1.0  0.54597  0.31801  0.99229  1.0000
  H   H2384     1.0  0.56395  0.29211  0.01588  1.0000
  H   H2385     1.0  0.55756  0.29414  0.05210  1.0000
  H   H2386     1.0  0.71973  0.23051  0.09093  1.0000
  H   H2387     1.0  0.59386  0.34739  0.10259  1.0000
  H   H2388     1.0  0.60125  0.33117  0.07230  1.0000
  H   H2389     1.0  0.57425  0.32122  0.05987  1.0000
  H   H2390     1.0  0.54426  0.29817  0.11272  1.0000
  H   H2391     1.0  0.52205  0.36619  0.07607  1.0000
  C   C2977     1.0  0.55070  0.38303  0.15140  1.0000
  C   C2978     1.0  0.54210  0.36588  0.15970  1.0000
  C   C2979     1.0  0.55428  0.34713  0.16303  1.0000
  H   H2392     1.0  0.54130  0.39761  0.14933  1.0000
  H   H2393     1.0  0.52603  0.36707  0.16432  1.0000
  H   H2394     1.0  0.54712  0.33431  0.16976  1.0000
  C   C2980     1.0  0.70892  0.02036  0.98440  1.0000
  H   H2395     1.0  0.61478  0.28900  0.10230  1.0000
  S   S402      1.0  0.51928  0.00992  0.14860  1.0000
  H   H2396     1.0  0.58495  0.44313  0.18323  1.0000
  H   H2397     1.0  0.68580  0.46868  0.15410  1.0000
  Fe  Fe200     1.0  0.52170  0.35049  0.21744  1.0000
  C   C2981     1.0  0.60785  0.31661  0.13999  1.0000
  C   C2982     1.0  0.53663  0.25050  0.28926  1.0000
  P   P100      1.0  0.50040  0.12033  0.06342  1.0000
  C   C2983     1.0  0.58987  0.14053  0.00092  1.0000
  H   H2398     1.0  0.66944  0.32406  0.02114  1.0000
  C   C2984     1.0  0.58119  0.44163  0.16910  1.0000
  H   H2399     1.0  0.53737  0.41388  0.18169  1.0000
  S   S403      1.0  0.51413  0.03478  0.09133  1.0000
  S   S404      1.0  0.73575  0.98980  0.11501  1.0000
  H   H2400     1.0  0.70878  0.38429  0.23596  1.0000
  H   H2401     1.0  0.56960  0.43575  0.11781  1.0000
  C   C2985     1.0  0.51596  0.13708  0.04677  1.0000
  C   C2986     1.0  0.63605  0.00525  0.24807  1.0000
  C   C2987     1.0  0.56692  0.44758  0.99058  1.0000
  C   C2988     1.0  0.54921  0.44740  0.20904  1.0000
  H   H2402     1.0  0.61189  0.99756  0.14466  1.0000
  H   H2403     1.0  0.64234  0.99039  0.16070  1.0000
  C   C2989     1.0  0.55405  0.27133  0.19282  1.0000
  C   C2990     1.0  0.70837  0.37713  0.20700  1.0000
  H   H2404     1.0  0.51136  0.29158  0.06762  1.0000
  C   C2991     1.0  0.49832  0.21219  0.05474  1.0000
  C   C2992     1.0  0.59553  0.29788  0.27801  1.0000
  C   C2993     1.0  0.68404  0.31603  0.02413  1.0000
  C   C2994     1.0  0.63311  0.31047  0.10351  1.0000
  H   H2405     1.0  0.50567  0.25838  0.08648  1.0000
  H   H2406     1.0  0.73429  0.42593  0.11027  1.0000
  C   C2995     1.0  0.67261  0.42777  0.98959  1.0000
  C   C2996     1.0  0.50652  0.30524  0.99005  1.0000
  P   P101      1.0  0.56166  0.31233  0.30374  1.0000
  H   H2407     1.0  0.69744  0.34276  0.01836  1.0000
  C   C2997     1.0  0.52185  0.30653  0.30828  1.0000
  C   C2998     1.0  0.72532  0.45247  0.03790  1.0000
  H   H2408     1.0  0.53771  0.41933  0.21691  1.0000
  C   C2999     1.0  0.63158  0.34659  0.99263  1.0000
  C   C3000     1.0  0.51966  0.44317  0.18455  1.0000
  H   H2409     1.0  0.50813  0.99078  0.11152  1.0000
  C   C3001     1.0  0.56888  0.40046  0.01457  1.0000
  C   C3002     1.0  0.58162  0.38517  0.02488  1.0000
  C   C3003     1.0  0.57731  0.38003  0.04575  1.0000
  C   C3004     1.0  0.55997  0.38968  0.05650  1.0000
  C   C3005     1.0  0.54685  0.40451  0.04629  1.0000
  C   C3006     1.0  0.55123  0.40984  0.02536  1.0000
  C   C3007     1.0  0.69678  0.45960  0.14454  1.0000
  H   H2410     1.0  0.59117  0.29263  0.20120  1.0000
  C   C3008     1.0  0.50597  0.41324  0.18446  1.0000
  H   H2411     1.0  0.59285  0.29391  0.13430  1.0000
  H   H2412     1.0  0.70054  0.03464  0.98762  1.0000
  C   C3009     1.0  0.49428  0.33325  0.30109  1.0000
  H   H2413     1.0  0.73055  0.32477  0.02519  1.0000
  C   C3010     1.0  0.67083  0.00805  0.02577  1.0000
  C   C3011     1.0  0.69987  0.00311  0.98844  1.0000
  C   C3012     1.0  0.71272  0.14616  0.03576  1.0000
  C   C3013     1.0  0.49599  0.42126  0.24106  1.0000
  H   H2414     1.0  0.59498  0.37718  0.01688  1.0000
  H   H2415     1.0  0.58764  0.36862  0.05351  1.0000
  H   H2416     1.0  0.55681  0.38563  0.07272  1.0000
  H   H2417     1.0  0.53337  0.41197  0.05460  1.0000
  H   H2418     1.0  0.54089  0.42124  0.01761  1.0000
  C   C3014     1.0  0.56056  0.45931  0.21507  1.0000
  C   C3015     1.0  0.58028  0.28985  0.19324  1.0000
  C   C3016     1.0  0.51415  0.47748  0.25665  1.0000
  C   C3017     1.0  0.73183  0.39345  0.08300  1.0000
  H   H2419     1.0  0.64877  0.33247  0.10911  1.0000
  C   C3018     1.0  0.60683  0.32423  0.18057  1.0000
  C   C3019     1.0  0.58371  0.36268  0.14971  1.0000
  C   C3020     1.0  0.56854  0.27514  0.20249  1.0000
  C   C3021     1.0  0.57278  0.43742  0.13214  1.0000
  C   C3022     1.0  0.72786  0.15614  0.03754  1.0000
  H   H2420     1.0  0.66400  0.01542  0.08154  1.0000
  C   C3023     1.0  0.56282  0.29713  0.16470  1.0000
  C   C3024     1.0  0.51626  0.13979  0.02591  1.0000
  C   C3025     1.0  0.51782  0.08682  0.04513  1.0000
  C   C3026     1.0  0.59956  0.33764  0.19432  1.0000
  C   C3027     1.0  0.51757  0.28593  0.08136  1.0000
  H   H2421     1.0  0.53818  0.35139  0.29087  1.0000
  H   H2422     1.0  0.55230  0.24764  0.28270  1.0000
  C   C3028     1.0  0.55715  0.44354  0.14716  1.0000
  H   H2423     1.0  0.51890  0.24502  0.11836  1.0000
  H   H2424     1.0  0.73318  0.00573  0.26181  1.0000
  C   C3029     1.0  0.68721  0.29512  0.02943  1.0000
  C   C3030     1.0  0.69977  0.32657  0.02254  1.0000
  C   C3031     1.0  0.69093  0.45907  0.06696  1.0000
  C   C3032     1.0  0.55134  0.28216  0.17385  1.0000
  C   C3033     1.0  0.70600  0.28478  0.03348  1.0000
  H   H2425     1.0  0.72519  0.42103  0.04971  1.0000
  H   H2426     1.0  0.66899  0.04799  0.99763  1.0000
  H   H2427     1.0  0.71113  0.34738  0.11303  1.0000
  C   C3034     1.0  0.54540  0.42937  0.22153  1.0000
  H   H2428     1.0  0.63182  0.30194  0.17060  1.0000
  P   P102      1.0  0.59163  0.00219  0.29738  1.0000
  C   C3035     1.0  0.56449  0.00387  0.29959  1.0000
  C   C3036     1.0  0.60462  0.00738  0.27170  1.0000
  H   H2429     1.0  0.70988  0.37336  0.17665  1.0000
  C   C3037     1.0  0.60169  0.05457  0.31030  1.0000
  C   C3038     1.0  0.71531  0.35799  0.12052  1.0000
  C   C3039     1.0  0.51237  0.11597  0.12036  1.0000
  C   C3040     1.0  0.49038  0.37349  0.08621  1.0000
  C   C3041     1.0  0.63766  0.46675  0.29074  1.0000
  C   C3042     1.0  0.65207  0.10239  0.00564  1.0000
  C   C3043     1.0  0.52085  0.00421  0.29667  1.0000
  C   C3044     1.0  0.53021  0.02305  0.28872  1.0000
  C   C3045     1.0  0.55190  0.02285  0.29022  1.0000
  H   H2430     1.0  0.63362  0.01596  0.21682  1.0000
  C   C3046     1.0  0.49256  0.44211  0.24034  1.0000
  H   H2431     1.0  0.64314  0.35500  0.99299  1.0000
  C   C3047     1.0  0.52740  0.15331  0.01279  1.0000
  H   H2432     1.0  0.72940  0.01848  0.16196  1.0000
  C   C3048     1.0  0.59932  0.03978  0.30004  1.0000
  H   H2433     1.0  0.64271  0.30837  0.08931  1.0000
  C   C3049     1.0  0.59764  0.30027  0.24211  1.0000
  H   H2434     1.0  0.65143  0.46584  0.13656  1.0000
  H   H2435     1.0  0.59907  0.04360  0.28404  1.0000
  H   H2436     1.0  0.54516  0.17164  0.04694  1.0000
  H   H2437     1.0  0.56418  0.27083  0.29907  1.0000
  H   H2438     1.0  0.69503  0.42685  0.07520  1.0000
  C   C3050     1.0  0.61736  0.29962  0.11082  1.0000
  H   H2439     1.0  0.64487  0.40618  0.99176  1.0000
  H   H2440     1.0  0.54886  0.11027  0.01694  1.0000
  H   H2441     1.0  0.52616  0.14741  0.07017  1.0000
  H   H2442     1.0  0.73854  0.09858  0.03833  1.0000
  H   H2443     1.0  0.50568  0.00414  0.29485  1.0000
  H   H2444     1.0  0.52145  0.03648  0.28172  1.0000
  H   H2445     1.0  0.55849  0.03622  0.28410  1.0000
  C   C3051     1.0  0.51900  0.08226  0.11280  1.0000
  H   H2446     1.0  0.50798  0.13138  0.01964  1.0000
  H   H2447     1.0  0.72490  0.17227  0.03693  1.0000
  Fe  Fe201     1.0  0.51577  0.30843  0.24001  1.0000
  H   H2448     1.0  0.72024  0.26522  0.07276  1.0000
  C   C3052     1.0  0.50010  0.45415  0.18683  1.0000
  H   H2449     1.0  0.53134  0.06091  0.03115  1.0000
  H   H2450     1.0  0.60958  0.14844  0.01797  1.0000
  H   H2451     1.0  0.63978  0.46096  0.05462  1.0000
  C   C3053     1.0  0.70067  0.37297  0.12819  1.0000
  H   H2452     1.0  0.60257  0.29303  0.29130  1.0000
  S   S405      1.0  0.60843  0.47901  0.24768  1.0000
  C   C3054     1.0  0.70613  0.38709  0.13725  1.0000
  H   H2453     1.0  0.68509  0.37377  0.12696  1.0000
  H   H2454     1.0  0.62749  0.45988  0.28513  1.0000
  H   H2455     1.0  0.53219  0.34052  0.11066  1.0000
  H   H2456     1.0  0.69465  0.39851  0.14332  1.0000
  C   C3055     1.0  0.71666  0.12541  0.03628  1.0000
  H   H2457     1.0  0.54188  0.44677  0.14422  1.0000
  H   H2458     1.0  0.59650  0.33369  0.28803  1.0000
  H   H2459     1.0  0.60336  0.06949  0.30221  1.0000
  C   C3056     1.0  0.50020  0.10039  0.04987  1.0000
  H   H2460     1.0  0.54455  0.26034  0.20028  1.0000
  H   H2461     1.0  0.51388  0.07900  0.08424  1.0000
  C   C3057     1.0  0.57556  0.30779  0.27948  1.0000
  H   H2462     1.0  0.62388  0.46442  0.16555  1.0000
  C   C3058     1.0  0.50808  0.36040  0.08074  1.0000
  P   P103      1.0  0.67369  0.00420  0.00006  1.0000
  H   H2463     1.0  0.63626  0.46913  0.98796  1.0000
  H   H2464     1.0  0.49820  0.34909  0.13407  1.0000
  H   H2465     1.0  0.57028  0.43020  0.25934  1.0000
  C   C3059     1.0  0.50338  0.26966  0.28820  1.0000
  C   C3060     1.0  0.56400  0.43523  0.24557  1.0000
  H   H2466     1.0  0.61203  0.43268  0.15671  1.0000
  C   C3061     1.0  0.72409  0.03541  0.22914  1.0000
  C   C3062     1.0  0.72913  0.02281  0.06341  1.0000
  C   C3063     1.0  0.71383  0.38216  0.18620  1.0000
  H   H2467     1.0  0.51046  0.38096  0.13235  1.0000
  H   H2468     1.0  0.50826  0.39726  0.18419  1.0000
  H   H2469     1.0  0.72821  0.01671  0.07919  1.0000
  H   H2470     1.0  0.65075  0.48284  0.02290  1.0000
  C   C3064     1.0  0.52802  0.34059  0.29584  1.0000
  C   C3065     1.0  0.66587  0.01338  0.06599  1.0000
  H   H2471     1.0  0.55112  0.32073  0.26287  1.0000
  C   C3066     1.0  0.64921  0.01692  0.05631  1.0000
  C   C3067     1.0  0.65167  0.01441  0.03623  1.0000
  C   C3068     1.0  0.56127  0.46803  0.98351  1.0000
  C   C3069     1.0  0.53528  0.32030  0.30256  1.0000
  C   C3070     1.0  0.60083  0.15347  0.00591  1.0000
  H   H2472     1.0  0.57853  0.02102  0.25791  1.0000
  C   C3071     1.0  0.71324  0.38810  0.21985  1.0000
  S   S406      1.0  0.70950  0.12284  0.98882  1.0000
  H   H2473     1.0  0.57069  0.31450  0.23017  1.0000
  C   C3072     1.0  0.53283  0.27070  0.11711  1.0000
  C   C3073     1.0  0.53715  0.16266  0.04107  1.0000
  H   H2474     1.0  0.52195  0.08940  0.14104  1.0000
  H   H2475     1.0  0.70284  0.43609  0.16907  1.0000
  H   H2476     1.0  0.69775  0.00391  0.06342  1.0000
  H   H2477     1.0  0.70540  0.45594  0.00733  1.0000
  H   H2478     1.0  0.49324  0.28176  0.28101  1.0000
  C   C3074     1.0  0.58770  0.33971  0.30099  1.0000
  H   H2479     1.0  0.54843  0.99589  0.19876  1.0000
  H   H2480     1.0  0.63007  0.12477  0.99256  1.0000
  C   C3075     1.0  0.60482  0.30259  0.12902  1.0000
  H   H2481     1.0  0.63438  0.02145  0.06453  1.0000
  H   H2482     1.0  0.66441  0.10957  0.99704  1.0000
  C   C3076     1.0  0.71855  0.31630  0.02653  1.0000
  C   C3077     1.0  0.72427  0.39827  0.17809  1.0000
  S   S407      1.0  0.53374  0.28200  0.25793  1.0000
  C   C3078     1.0  0.72167  0.29538  0.03255  1.0000
  C   C3079     1.0  0.62394  0.32721  0.13260  1.0000
  P   P104      1.0  0.54112  0.45451  0.18476  1.0000
  C   C3080     1.0  0.52371  0.26643  0.27985  1.0000
  C   C3081     1.0  0.51404  0.08972  0.09367  1.0000
  H   H2483     1.0  0.55921  0.35218  0.12151  1.0000
  H   H2484     1.0  0.62194  0.28662  0.25832  1.0000
  H   H2485     1.0  0.61043  0.18238  0.99825  1.0000
  H   H2486     1.0  0.59036  0.31607  0.99082  1.0000
  H   H2487     1.0  0.54841  0.48409  0.14761  1.0000
  C   C3082     1.0  0.72044  0.42877  0.14084  1.0000
  C   C3083     1.0  0.50215  0.21949  0.98638  1.0000
  H   H2488     1.0  0.49740  0.46991  0.18811  1.0000
  H   H2489     1.0  0.56417  0.47309  0.20559  1.0000
  C   C3084     1.0  0.70065  0.46610  0.12379  1.0000
  C   C3085     1.0  0.73124  0.25304  0.06741  1.0000
  C   C3086     1.0  0.52945  0.23818  0.30709  1.0000
  C   C3087     1.0  0.73850  0.01072  0.04900  1.0000
  H   H2490     1.0  0.60584  0.48476  0.20516  1.0000
  H   H2491     1.0  0.54498  0.47799  0.25835  1.0000
  C   C3088     1.0  0.50051  0.07057  0.02716  1.0000
  H   H2492     1.0  0.69867  0.39508  0.31246  1.0000
  C   C3089     1.0  0.73542  0.35717  0.12190  1.0000
  C   C3090     1.0  0.71426  0.45393  0.11151  1.0000
  C   C3091     1.0  0.57964  0.14722  0.98440  1.0000
  C   C3092     1.0  0.62138  0.47428  0.15155  1.0000
  C   C3093     1.0  0.58992  0.09229  0.98510  1.0000
  C   C3094     1.0  0.72916  0.40920  0.19114  1.0000
  H   H2493     1.0  0.49985  0.45149  0.22762  1.0000
  C   C3095     1.0  0.73463  0.00798  0.17454  1.0000
  C   C3096     1.0  0.62775  0.98925  0.11648  1.0000
  C   C3097     1.0  0.72392  0.43527  0.11998  1.0000
  H   H2494     1.0  0.60647  0.36205  0.29780  1.0000
  H   H2495     1.0  0.70009  0.36488  0.21320  1.0000
  C   C3098     1.0  0.59668  0.02052  0.31049  1.0000
  C   C3099     1.0  0.50757  0.34704  0.29526  1.0000
  H   H2496     1.0  0.62268  0.47567  0.08470  1.0000
  H   H2497     1.0  0.71740  0.45886  0.09542  1.0000
  P   P105      1.0  0.73263  0.40428  0.15134  1.0000
  S   S408      1.0  0.60657  0.99504  0.10429  1.0000
  C   C3100     1.0  0.73580  0.11465  0.03822  1.0000
  H   H2498     1.0  0.50003  0.18894  0.98442  1.0000
  C   C3101     1.0  0.73945  0.01884  0.02851  1.0000
  H   H2499     1.0  0.52099  0.48493  0.20973  1.0000
  C   C3102     1.0  0.62797  0.48550  0.07118  1.0000
  C   C3103     1.0  0.65732  0.46721  0.31632  1.0000
  H   H2500     1.0  0.73878  0.06806  0.10031  1.0000
  Fe  Fe202     1.0  0.53635  0.01032  0.31645  1.0000
  H   H2501     1.0  0.49120  0.30226  0.31184  1.0000
  H   H2502     1.0  0.59059  0.48544  0.16264  1.0000
  Fe  Fe203     1.0  0.65193  0.20630  0.50145  1.0000
  S   S409      1.0  0.62238  0.21356  0.48997  1.0000
  S   S410      1.0  0.67612  0.22552  0.48729  1.0000
  Fe  Fe204     1.0  0.64155  0.16679  0.52699  1.0000
  S   S411      1.0  0.61161  0.17117  0.51750  1.0000
  S   S412      1.0  0.65210  0.13930  0.54866  1.0000
  Fe  Fe205     1.0  0.62771  0.18110  0.48650  1.0000
  S   S413      1.0  0.62384  0.16682  0.46083  1.0000
  Fe  Fe206     1.0  0.60882  0.20292  0.52201  1.0000
  S   S414      1.0  0.57888  0.21830  0.53688  1.0000
  S   S415      1.0  0.65807  0.17436  0.49577  1.0000
  S   S416      1.0  0.63796  0.19809  0.53376  1.0000
  Fe  Fe207     1.0  0.51852  0.20398  0.35856  1.0000
  S   S417      1.0  0.51230  0.17224  0.36947  1.0000
  Fe  Fe208     1.0  0.54948  0.19912  0.38595  1.0000
  S   S418      1.0  0.54610  0.16738  0.39862  1.0000
  S   S419      1.0  0.56869  0.21574  0.39773  1.0000
  Fe  Fe209     1.0  0.54574  0.16381  0.36704  1.0000
  H   H2503     1.0  0.70961  0.34480  0.63240  1.0000
  Fe  Fe210     1.0  0.51309  0.17790  0.40021  1.0000
  H   H2504     1.0  0.70490  0.05417  0.59649  1.0000
  S   S420      1.0  0.55215  0.19505  0.35375  1.0000
  S   S421      1.0  0.51630  0.21024  0.38996  1.0000
  H   H2505     1.0  0.64110  0.21943  0.61767  1.0000
  S   S422      1.0  0.53761  0.16787  0.61649  1.0000
  H   H2506     1.0  0.54600  0.02660  0.62628  1.0000
  C   C3104     1.0  0.56716  0.28856  0.34111  1.0000
  H   H2507     1.0  0.73600  0.43321  0.56871  1.0000
  S   S423      1.0  0.71413  0.28417  0.52456  1.0000
  C   C3105     1.0  0.52306  0.14901  0.55254  1.0000
  C   C3106     1.0  0.63157  0.21144  0.58370  1.0000
  H   H2508     1.0  0.51237  0.20324  0.51302  1.0000
  H   H2509     1.0  0.54471  0.09702  0.44034  1.0000
  C   C3107     1.0  0.50040  0.17199  0.57268  1.0000
  C   C3108     1.0  0.54689  0.11014  0.44550  1.0000
  C   C3109     1.0  0.59541  0.08816  0.47637  1.0000
  Fe  Fe211     1.0  0.63909  0.02970  0.55565  1.0000
  S   S424      1.0  0.64351  0.01842  0.58768  1.0000
  S   S425      1.0  0.62233  0.05970  0.54291  1.0000
  Fe  Fe212     1.0  0.67407  0.00339  0.57463  1.0000
  C   C3110     1.0  0.56836  0.13134  0.45176  1.0000
  C   C3111     1.0  0.58305  0.06209  0.39635  1.0000
  H   H2510     1.0  0.72422  0.38612  0.33503  1.0000
  S   S426      1.0  0.67069  0.01739  0.54289  1.0000
  S   S427      1.0  0.62597  0.00320  0.55282  1.0000
  C   C3112     1.0  0.71900  0.43527  0.47002  1.0000
  C   C3113     1.0  0.49023  0.14373  0.49951  1.0000
  H   H2511     1.0  0.72343  0.39698  0.41597  1.0000
  S   S428      1.0  0.51519  0.02909  0.37131  1.0000
  C   C3114     1.0  0.55481  0.09857  0.35329  1.0000
  H   H2512     1.0  0.59803  0.14854  0.37609  1.0000
  H   H2513     1.0  0.51373  0.03427  0.61026  1.0000
  H   H2514     1.0  0.67765  0.12701  0.50266  1.0000
  H   H2515     1.0  0.63252  0.15103  0.37972  1.0000
  C   C3115     1.0  0.67466  0.44540  0.61201  1.0000
  C   C3116     1.0  0.55792  0.15654  0.52313  1.0000
  C   C3117     1.0  0.52478  0.08346  0.40071  1.0000
  C   C3118     1.0  0.72020  0.08708  0.55502  1.0000
  C   C3119     1.0  0.69056  0.09537  0.50407  1.0000
  H   H2516     1.0  0.67068  0.06184  0.48668  1.0000
  H   H2517     1.0  0.71501  0.32530  0.60467  1.0000
  C   C3120     1.0  0.62163  0.19495  0.58631  1.0000
  H   H2518     1.0  0.56807  0.23868  0.32250  1.0000
  H   H2519     1.0  0.51670  0.21272  0.54432  1.0000
  H   H2520     1.0  0.69890  0.06352  0.50316  1.0000
  C   C3121     1.0  0.54885  0.11948  0.35132  1.0000
  C   C3122     1.0  0.58758  0.07740  0.40451  1.0000
  H   H2521     1.0  0.69399  0.12454  0.54419  1.0000
  H   H2522     1.0  0.69089  0.16118  0.54086  1.0000
  Fe  Fe213     1.0  0.50300  0.00897  0.35663  1.0000
  H   H2523     1.0  0.61357  0.29072  0.62336  1.0000
  H   H2524     1.0  0.58698  0.06188  0.38033  1.0000
  Fe  Fe214     1.0  0.65791  0.98999  0.54245  1.0000
  C   C3123     1.0  0.72412  0.98733  0.49271  1.0000
  S   S429      1.0  0.72051  0.34105  0.50112  1.0000
  C   C3124     1.0  0.53144  0.12841  0.34338  1.0000
  H   H2525     1.0  0.57904  0.12521  0.40060  1.0000
  C   C3125     1.0  0.56352  0.13294  0.56315  1.0000
  H   H2526     1.0  0.52710  0.14454  0.34118  1.0000
  C   C3126     1.0  0.68618  0.24187  0.49810  1.0000
  C   C3127     1.0  0.68418  0.24075  0.51891  1.0000
  C   C3128     1.0  0.69299  0.25369  0.52675  1.0000
  C   C3129     1.0  0.70378  0.26791  0.51391  1.0000
  C   C3130     1.0  0.70590  0.26892  0.49313  1.0000
  C   C3131     1.0  0.69714  0.25596  0.48530  1.0000
  H   H2527     1.0  0.67580  0.22998  0.52893  1.0000
  H   H2528     1.0  0.69128  0.25281  0.54286  1.0000
  H   H2529     1.0  0.69877  0.25695  0.46918  1.0000
  C   C3132     1.0  0.60857  0.18078  0.44339  1.0000
  C   C3133     1.0  0.60183  0.17065  0.43090  1.0000
  C   C3134     1.0  0.58924  0.18116  0.41717  1.0000
  C   C3135     1.0  0.58370  0.20200  0.41549  1.0000
  C   C3136     1.0  0.59056  0.21219  0.42789  1.0000
  C   C3137     1.0  0.60281  0.20159  0.44194  1.0000
  H   H2530     1.0  0.60646  0.15464  0.43177  1.0000
  H   H2531     1.0  0.58429  0.17322  0.40751  1.0000
  H   H2532     1.0  0.58642  0.22833  0.42658  1.0000
  H   H2533     1.0  0.60804  0.20956  0.45141  1.0000
  C   C3138     1.0  0.56736  0.20440  0.55903  1.0000
  C   C3139     1.0  0.57797  0.18697  0.56871  1.0000
  C   C3140     1.0  0.56881  0.17649  0.58671  1.0000
  C   C3141     1.0  0.54873  0.18274  0.59474  1.0000
  C   C3142     1.0  0.53793  0.20002  0.58488  1.0000
  C   C3143     1.0  0.54735  0.21096  0.56721  1.0000
  H   H2534     1.0  0.59337  0.18174  0.56251  1.0000
  H   H2535     1.0  0.57733  0.16341  0.59443  1.0000
  H   H2536     1.0  0.52246  0.20504  0.59098  1.0000
  H   H2537     1.0  0.53919  0.22463  0.55994  1.0000
  C   C3144     1.0  0.64492  0.11687  0.54620  1.0000
  C   C3145     1.0  0.63268  0.11689  0.53227  1.0000
  C   C3146     1.0  0.62579  0.09931  0.53145  1.0000
  C   C3147     1.0  0.63149  0.08141  0.54421  1.0000
  C   C3148     1.0  0.64392  0.08125  0.55804  1.0000
  C   C3149     1.0  0.65053  0.09901  0.55911  1.0000
  H   H2538     1.0  0.62846  0.13046  0.52211  1.0000
  H   H2539     1.0  0.61618  0.09964  0.52074  1.0000
  H   H2540     1.0  0.64813  0.06755  0.56814  1.0000
  H   H2541     1.0  0.65987  0.09893  0.57006  1.0000
  H   H2542     1.0  0.54998  0.09843  0.39841  1.0000
  C   C3150     1.0  0.69353  0.05976  0.56860  1.0000
  C   C3151     1.0  0.58226  0.07785  0.42526  1.0000
  C   C3152     1.0  0.71312  0.39960  0.33590  1.0000
  H   H2543     1.0  0.50347  0.13256  0.49691  1.0000
  C   C3153     1.0  0.73200  0.01820  0.49864  1.0000
  H   H2544     1.0  0.68339  0.04894  0.57385  1.0000
  C   C3154     1.0  0.73849  0.00720  0.58989  1.0000
  C   C3155     1.0  0.50187  0.10053  0.57343  1.0000
  H   H2545     1.0  0.71705  0.45171  0.49445  1.0000
  C   C3156     1.0  0.62534  0.25087  0.56009  1.0000
  C   C3157     1.0  0.64509  0.27472  0.53826  1.0000
  C   C3158     1.0  0.63948  0.27022  0.52143  1.0000
  C   C3159     1.0  0.62688  0.25607  0.52384  1.0000
  C   C3160     1.0  0.61987  0.24642  0.54308  1.0000
  C   C3161     1.0  0.61116  0.43615  0.38553  1.0000
  C   C3162     1.0  0.69026  0.98688  0.46168  1.0000
  C   C3163     1.0  0.59114  0.23694  0.59070  1.0000
  C   C3164     1.0  0.58222  0.36463  0.32276  1.0000
  C   C3165     1.0  0.69582  0.38271  0.59509  1.0000
  C   C3166     1.0  0.56972  0.25231  0.34756  1.0000
  H   H2546     1.0  0.60547  0.19686  0.58877  1.0000
  C   C3167     1.0  0.72189  0.13390  0.49765  1.0000
  S   S430      1.0  0.50502  0.02908  0.32704  1.0000
  H   H2547     1.0  0.66944  0.35861  0.64376  1.0000
  H   H2548     1.0  0.64544  0.27721  0.50646  1.0000
  H   H2549     1.0  0.62293  0.25220  0.51076  1.0000
  H   H2550     1.0  0.61046  0.23518  0.54469  1.0000
  Fe  Fe215     1.0  0.50477  0.17431  0.63017  1.0000
  H   H2551     1.0  0.71669  0.99766  0.52132  1.0000
  H   H2552     1.0  0.72689  0.16340  0.48218  1.0000
  C   C3168     1.0  0.61974  0.27523  0.62192  1.0000
  C   C3169     1.0  0.53007  0.12416  0.45119  1.0000
  H   H2553     1.0  0.59092  0.13880  0.54315  1.0000
  H   H2554     1.0  0.59650  0.11967  0.60528  1.0000
  H   H2555     1.0  0.52918  0.13147  0.40184  1.0000
  C   C3170     1.0  0.51956  0.16163  0.56699  1.0000
  H   H2556     1.0  0.63962  0.04491  0.46584  1.0000
  H   H2557     1.0  0.62258  0.06465  0.43799  1.0000
  C   C3171     1.0  0.58734  0.12313  0.59355  1.0000
  P   P106      1.0  0.71138  0.09659  0.51598  1.0000
  C   C3172     1.0  0.69962  0.37322  0.61435  1.0000
  C   C3173     1.0  0.65261  0.20845  0.57936  1.0000
  C   C3174     1.0  0.70850  0.08376  0.54180  1.0000
  C   C3175     1.0  0.71327  0.41206  0.34960  1.0000
  H   H2558     1.0  0.54725  0.25886  0.57406  1.0000
  C   C3176     1.0  0.50765  0.22624  0.47577  1.0000
  H   H2559     1.0  0.55649  0.21691  0.62789  1.0000
  H   H2560     1.0  0.65056  0.12526  0.48509  1.0000
  C   C3177     1.0  0.73434  0.08490  0.50199  1.0000
  H   H2561     1.0  0.52037  0.11149  0.62580  1.0000
  C   C3178     1.0  0.53384  0.09991  0.40062  1.0000
  C   C3179     1.0  0.60832  0.45332  0.37100  1.0000
  H   H2562     1.0  0.57056  0.26987  0.36985  1.0000
  C   C3180     1.0  0.62444  0.14029  0.39024  1.0000
  C   C3181     1.0  0.69502  0.07009  0.54884  1.0000
  C   C3182     1.0  0.60307  0.11318  0.41800  1.0000
  P   P107      1.0  0.54850  0.13805  0.54343  1.0000
  C   C3183     1.0  0.52524  0.09557  0.34063  1.0000
  C   C3184     1.0  0.51984  0.11650  0.33779  1.0000
  Fe  Fe216     1.0  0.73274  0.30810  0.50757  1.0000
  C   C3185     1.0  0.50598  0.03470  0.62552  1.0000
  P   P108      1.0  0.66516  0.45649  0.34034  1.0000
  H   H2563     1.0  0.49799  0.18203  0.58355  1.0000
  C   C3186     1.0  0.50395  0.08581  0.40238  1.0000
  C   C3187     1.0  0.54286  0.08658  0.34824  1.0000
  C   C3188     1.0  0.55154  0.14538  0.45725  1.0000
  H   H2564     1.0  0.70919  0.42374  0.52128  1.0000
  H   H2565     1.0  0.59517  0.08875  0.39447  1.0000
  H   H2566     1.0  0.54723  0.07043  0.35030  1.0000
  H   H2567     1.0  0.66195  0.15795  0.57970  1.0000
  H   H2568     1.0  0.53656  0.12992  0.50747  1.0000
  C   C3189     1.0  0.58319  0.22568  0.60884  1.0000
  C   C3190     1.0  0.66354  0.18919  0.57815  1.0000
  C   C3191     1.0  0.63530  0.23510  0.61845  1.0000
  H   H2569     1.0  0.66054  0.22107  0.57661  1.0000
  H   H2570     1.0  0.70884  0.34246  0.57062  1.0000
  C   C3192     1.0  0.68466  0.42225  0.32399  1.0000
  C   C3193     1.0  0.60501  0.13897  0.38824  1.0000
  C   C3194     1.0  0.49063  0.09707  0.61512  1.0000
  H   H2571     1.0  0.59341  0.46185  0.37030  1.0000
  S   S431      1.0  0.56315  0.13413  0.35919  1.0000
  C   C3195     1.0  0.67664  0.42510  0.62065  1.0000
  H   H2572     1.0  0.62828  0.05247  0.50052  1.0000
  C   C3196     1.0  0.62261  0.11458  0.41995  1.0000
  H   H2573     1.0  0.70537  0.46033  0.38256  1.0000
  H   H2574     1.0  0.56999  0.03515  0.40243  1.0000
  C   C3197     1.0  0.55313  0.07974  0.51795  1.0000
  C   C3198     1.0  0.70945  0.34129  0.60210  1.0000
  C   C3199     1.0  0.71603  0.43771  0.49029  1.0000
  C   C3200     1.0  0.59428  0.12566  0.40218  1.0000
  H   H2575     1.0  0.56838  0.09164  0.35921  1.0000
  H   H2576     1.0  0.52694  0.07761  0.57942  1.0000
  H   H2577     1.0  0.59244  0.00241  0.34008  1.0000
  H   H2578     1.0  0.53199  0.24215  0.46118  1.0000
  H   H2579     1.0  0.71062  0.38690  0.47731  1.0000
  C   C3201     1.0  0.55840  0.09658  0.54376  1.0000
  C   C3202     1.0  0.54435  0.09809  0.50794  1.0000
  C   C3203     1.0  0.63323  0.12811  0.40609  1.0000
  H   H2580     1.0  0.65995  0.45401  0.61039  1.0000
  C   C3204     1.0  0.64681  0.43124  0.37272  1.0000
  H   H2581     1.0  0.56762  0.06488  0.54326  1.0000
  C   C3205     1.0  0.57343  0.04701  0.40880  1.0000
  C   C3206     1.0  0.72799  0.46227  0.55126  1.0000
  C   C3207     1.0  0.55311  0.17705  0.52464  1.0000
  C   C3208     1.0  0.70186  0.13270  0.53086  1.0000
  H   H2582     1.0  0.59764  0.02810  0.35782  1.0000
  H   H2583     1.0  0.51948  0.15304  0.46042  1.0000
  C   C3209     1.0  0.71125  0.42193  0.50567  1.0000
  H   H2584     1.0  0.54489  0.18199  0.53837  1.0000
  C   C3210     1.0  0.67673  0.11272  0.49891  1.0000
  H   H2585     1.0  0.57121  0.23817  0.35783  1.0000
  H   H2586     1.0  0.60663  0.27628  0.59578  1.0000
  H   H2587     1.0  0.51522  0.12193  0.45013  1.0000
  H   H2588     1.0  0.50656  0.12354  0.33136  1.0000
  H   H2589     1.0  0.71414  0.27977  0.48307  1.0000
  P   P109      1.0  0.58837  0.09706  0.43647  1.0000
  C   C3211     1.0  0.63040  0.42515  0.38641  1.0000
  H   H2590     1.0  0.61146  0.13091  0.57012  1.0000
  H   H2591     1.0  0.73178  0.02843  0.50883  1.0000
  C   C3212     1.0  0.55916  0.19150  0.50840  1.0000
  C   C3213     1.0  0.56834  0.04719  0.42946  1.0000
  H   H2592     1.0  0.58353  0.25830  0.56447  1.0000
  C   C3214     1.0  0.63261  0.17572  0.58505  1.0000
  C   C3215     1.0  0.57025  0.18559  0.49064  1.0000
  H   H2593     1.0  0.71340  0.02244  0.55023  1.0000
  S   S432      1.0  0.70162  0.99861  0.58946  1.0000
  H   H2594     1.0  0.55628  0.36399  0.34602  1.0000
  H   H2595     1.0  0.70707  0.18084  0.50983  1.0000
  H   H2596     1.0  0.70338  0.47101  0.33117  1.0000
  C   C3216     1.0  0.50134  0.12110  0.40394  1.0000
  Fe  Fe217     1.0  0.51959  0.04770  0.34079  1.0000
  S   S433      1.0  0.50946  0.08109  0.33484  1.0000
  H   H2597     1.0  0.72984  0.12670  0.48509  1.0000
  S   S434      1.0  0.73593  0.37050  0.53538  1.0000
  C   C3217     1.0  0.71708  0.41673  0.46554  1.0000
  H   H2598     1.0  0.53177  0.16395  0.57349  1.0000
  C   C3218     1.0  0.57798  0.24919  0.57836  1.0000
  C   C3219     1.0  0.72018  0.15475  0.49590  1.0000
  S   S435      1.0  0.55005  0.03156  0.33061  1.0000
  C   C3220     1.0  0.51376  0.08694  0.58607  1.0000
  C   C3221     1.0  0.59579  0.12941  0.57368  1.0000
  H   H2599     1.0  0.56026  0.11785  0.61387  1.0000
  S   S436      1.0  0.73247  0.36309  0.44622  1.0000
  C   C3222     1.0  0.52211  0.11865  0.40238  1.0000
  C   C3223     1.0  0.59854  0.03129  0.34162  1.0000
  C   C3224     1.0  0.70911  0.16460  0.51150  1.0000
  C   C3225     1.0  0.56619  0.11370  0.44565  1.0000
  C   C3226     1.0  0.65899  0.09347  0.48458  1.0000
  C   C3227     1.0  0.56693  0.12199  0.59834  1.0000
  H   H2600     1.0  0.62489  0.16311  0.58654  1.0000
  C   C3228     1.0  0.53243  0.14178  0.45697  1.0000
  H   H2601     1.0  0.65543  0.28522  0.53625  1.0000
  H   H2602     1.0  0.58313  0.13454  0.45168  1.0000
  C   C3229     1.0  0.52000  0.20324  0.44494  1.0000
  C   C3230     1.0  0.55506  0.12671  0.58321  1.0000
  C   C3231     1.0  0.66119  0.11178  0.48897  1.0000
  C   C3232     1.0  0.55916  0.34106  0.32789  1.0000
  H   H2603     1.0  0.67974  0.18700  0.57453  1.0000
  C   C3233     1.0  0.57000  0.15070  0.50561  1.0000
  C   C3234     1.0  0.57572  0.16520  0.48933  1.0000
  H   H2604     1.0  0.54561  0.33571  0.33608  1.0000
  H   H2605     1.0  0.55487  0.06612  0.51167  1.0000
  H   H2606     1.0  0.55334  0.15946  0.46089  1.0000
  P   P110      1.0  0.61790  0.23659  0.58454  1.0000
  H   H2607     1.0  0.64663  0.09278  0.47733  1.0000
  H   H2608     1.0  0.69180  0.99336  0.47427  1.0000
  C   C3235     1.0  0.69562  0.41393  0.62328  1.0000
  H   H2609     1.0  0.55569  0.20728  0.50976  1.0000
  H   H2610     1.0  0.73070  0.09753  0.54999  1.0000
  C   C3236     1.0  0.71891  0.07646  0.57466  1.0000
  H   H2611     1.0  0.53929  0.12561  0.58725  1.0000
  C   C3237     1.0  0.56510  0.35715  0.33350  1.0000
  H   H2612     1.0  0.71469  0.21969  0.45753  1.0000
  H   H2613     1.0  0.54307  0.22153  0.43413  1.0000
  H   H2614     1.0  0.72355  0.45098  0.60369  1.0000
  C   C3238     1.0  0.53040  0.21846  0.44566  1.0000
  C   C3239     1.0  0.64405  0.44840  0.35798  1.0000
  S   S437      1.0  0.56743  0.00358  0.38166  1.0000
  H   H2615     1.0  0.62225  0.47286  0.34617  1.0000
  S   S438      1.0  0.53236  0.98958  0.34816  1.0000
  H   H2616     1.0  0.56452  0.09568  0.55727  1.0000
  C   C3240     1.0  0.58400  0.13417  0.55848  1.0000
  H   H2617     1.0  0.50613  0.10177  0.55728  1.0000
  C   C3241     1.0  0.62094  0.06125  0.48825  1.0000
  H   H2618     1.0  0.62951  0.10571  0.43238  1.0000
  C   C3242     1.0  0.72367  0.00073  0.50573  1.0000
  C   C3243     1.0  0.70667  0.45516  0.43250  1.0000
  H   H2619     1.0  0.69909  0.43864  0.36169  1.0000
  H   H2620     1.0  0.57515  0.19677  0.47814  1.0000
  H   H2621     1.0  0.73283  0.39867  0.56158  1.0000
  C   C3244     1.0  0.67422  0.45068  0.42691  1.0000
  C   C3245     1.0  0.68700  0.45159  0.44004  1.0000
  C   C3246     1.0  0.54262  0.11570  0.51583  1.0000
  H   H2622     1.0  0.52458  0.19457  0.43276  1.0000
  C   C3247     1.0  0.71322  0.45815  0.41167  1.0000
  C   C3248     1.0  0.71259  0.42330  0.61682  1.0000
  C   C3249     1.0  0.68472  0.43492  0.33765  1.0000
  P   P111      1.0  0.72309  0.45600  0.44968  1.0000
  H   H2623     1.0  0.53933  0.09875  0.49382  1.0000
  C   C3250     1.0  0.56250  0.22611  0.61420  1.0000
  H   H2624     1.0  0.64810  0.12955  0.40790  1.0000
  C   C3251     1.0  0.70006  0.15354  0.52901  1.0000
  C   C3252     1.0  0.65354  0.17282  0.58107  1.0000
  C   C3253     1.0  0.72507  0.02071  0.55916  1.0000
  H   H2625     1.0  0.64798  0.23412  0.64493  1.0000
  C   C3254     1.0  0.70588  0.35090  0.58295  1.0000
  H   H2626     1.0  0.72823  0.46110  0.40543  1.0000
  H   H2627     1.0  0.58476  0.16058  0.47579  1.0000
  C   C3255     1.0  0.49406  0.02016  0.63473  1.0000
  C   C3256     1.0  0.56932  0.27026  0.35430  1.0000
  H   H2628     1.0  0.65917  0.44768  0.43283  1.0000
  H   H2629     1.0  0.68160  0.44939  0.45608  1.0000
  Fe  Fe218     1.0  0.54498  0.01133  0.36033  1.0000
  C   C3257     1.0  0.63913  0.24334  0.63406  1.0000
  H   H2630     1.0  0.68554  0.06733  0.53929  1.0000
  C   C3258     1.0  0.54955  0.23820  0.60176  1.0000
  C   C3259     1.0  0.70634  0.35239  0.61775  1.0000
  C   C3260     1.0  0.71211  0.40111  0.48094  1.0000
  H   H2631     1.0  0.49269  0.00854  0.62673  1.0000
  P   P112      1.0  0.52338  0.06824  0.62390  1.0000
  C   C3261     1.0  0.69899  0.42950  0.35065  1.0000
  C   C3262     1.0  0.54745  0.05729  0.61125  1.0000
  C   C3263     1.0  0.55986  0.06979  0.59814  1.0000
  C   C3264     1.0  0.57870  0.06165  0.58853  1.0000
  C   C3265     1.0  0.58536  0.04096  0.59212  1.0000
  C   C3266     1.0  0.57342  0.02844  0.60566  1.0000
  C   C3267     1.0  0.55463  0.03656  0.61539  1.0000
  S   S439      1.0  0.49605  0.16381  0.42928  1.0000
  C   C3268     1.0  0.61588  0.26703  0.60630  1.0000
  C   C3269     1.0  0.52875  0.08138  0.64196  1.0000
  H   H2632     1.0  0.57514  0.13504  0.50440  1.0000
  C   C3270     1.0  0.57279  0.06249  0.43768  1.0000
  C   C3271     1.0  0.50793  0.04956  0.63600  1.0000
  H   H2633     1.0  0.58308  0.10002  0.47978  1.0000
  C   C3272     1.0  0.62733  0.05705  0.46872  1.0000
  H   H2634     1.0  0.53396  0.06907  0.39870  1.0000
  H   H2635     1.0  0.57894  0.01243  0.60876  1.0000
  C   C3273     1.0  0.73324  0.47569  0.53380  1.0000
  C   C3274     1.0  0.70561  0.06276  0.58143  1.0000
  C   C3275     1.0  0.69894  0.37155  0.57951  1.0000
  H   H2636     1.0  0.70526  0.39153  0.51286  1.0000
  C   C3276     1.0  0.52604  0.10248  0.63888  1.0000
  H   H2637     1.0  0.69095  0.39875  0.59182  1.0000
  H   H2638     1.0  0.55496  0.08583  0.59545  1.0000
  H   H2639     1.0  0.58832  0.07132  0.57840  1.0000
  H   H2640     1.0  0.59992  0.03465  0.58460  1.0000
  H   H2641     1.0  0.71479  0.46655  0.56196  1.0000
  H   H2642     1.0  0.71889  0.41436  0.45014  1.0000
  C   C3277     1.0  0.50840  0.08542  0.60704  1.0000
  C   C3278     1.0  0.50690  0.14684  0.54398  1.0000
  C   C3279     1.0  0.60162  0.08392  0.45671  1.0000
  H   H2643     1.0  0.50902  0.13725  0.53291  1.0000
  C   C3280     1.0  0.70907  0.40373  0.50098  1.0000
  H   H2644     1.0  0.56105  0.03535  0.43908  1.0000
  H   H2645     1.0  0.64350  0.26807  0.57020  1.0000
  H   H2646     1.0  0.66334  0.41814  0.62534  1.0000
  C   C3281     1.0  0.49208  0.10475  0.40385  1.0000
  H   H2647     1.0  0.50664  0.16835  0.49264  1.0000
  C   C3282     1.0  0.52412  0.23008  0.46095  1.0000
  C   C3283     1.0  0.61768  0.06829  0.45301  1.0000
  C   C3284     1.0  0.71269  0.12270  0.51517  1.0000
  H   H2648     1.0  0.63428  0.26973  0.64794  1.0000
  H   H2649     1.0  0.66155  0.42246  0.37366  1.0000
  C   C3285     1.0  0.54946  0.11508  0.53393  1.0000
  C   C3286     1.0  0.69160  0.45466  0.60577  1.0000
  C   C3287     1.0  0.56021  0.07901  0.53580  1.0000
  H   H2650     1.0  0.56892  0.06230  0.45376  1.0000
  C   C3288     1.0  0.63822  0.26496  0.55753  1.0000
  C   C3289     1.0  0.68844  0.07707  0.49928  1.0000
  H   H2651     1.0  0.72388  0.09343  0.47329  1.0000
  C   C3290     1.0  0.60500  0.07676  0.49205  1.0000
  C   C3291     1.0  0.59596  0.01655  0.33143  1.0000
  C   C3292     1.0  0.50177  0.21392  0.54105  1.0000
  H   H2652     1.0  0.60003  0.07980  0.50728  1.0000
  C   C3293     1.0  0.71053  0.44359  0.60802  1.0000
  H   H2653     1.0  0.49517  0.18808  0.45850  1.0000
  S   S440      1.0  0.72896  0.45229  0.64575  1.0000
  C   C3294     1.0  0.62383  0.24698  0.60432  1.0000
  H   H2654     1.0  0.63261  0.41179  0.39763  1.0000
  C   C3295     1.0  0.49923  0.20860  0.52325  1.0000
  C   C3296     1.0  0.67097  0.98780  0.45764  1.0000
  S   S441      1.0  0.49937  0.22611  0.33778  1.0000
  C   C3297     1.0  0.68089  0.45363  0.40617  1.0000
  C   C3298     1.0  0.56545  0.28896  0.32100  1.0000
  C   C3299     1.0  0.69373  0.47916  0.34233  1.0000
  C   C3300     1.0  0.67256  0.07610  0.48981  1.0000
  H   H2655     1.0  0.49733  0.07298  0.40185  1.0000
  H   H2656     1.0  0.67102  0.45296  0.39597  1.0000
  C   C3301     1.0  0.73614  0.08577  0.48113  1.0000
  H   H2657     1.0  0.72741  0.20968  0.48981  1.0000
  H   H2658     1.0  0.72798  0.00685  0.42136  1.0000
  C   C3302     1.0  0.55728  0.24976  0.58388  1.0000
  P   P113      1.0  0.69783  0.38763  0.63413  1.0000
  H   H2659     1.0  0.69661  0.37897  0.56451  1.0000
  C   C3303     1.0  0.72955  0.22212  0.45841  1.0000
  C   C3304     1.0  0.72029  0.37867  0.64531  1.0000
  H   H2660     1.0  0.60279  0.06191  0.33904  1.0000
  Fe  Fe219     1.0  0.63254  0.99087  0.58406  1.0000
  H   H2661     1.0  0.59846  0.43134  0.39609  1.0000
  C   C3305     1.0  0.71682  0.48010  0.45821  1.0000
  H   H2662     1.0  0.50275  0.23568  0.48725  1.0000
  C   C3306     1.0  0.60135  0.05032  0.33107  1.0000
  C   C3307     1.0  0.73678  0.21640  0.47663  1.0000
  H   H2663     1.0  0.69007  0.47051  0.59952  1.0000
  C   C3308     1.0  0.69871  0.40461  0.32325  1.0000
  H   H2664     1.0  0.65807  0.99461  0.46727  1.0000
  H   H2665     1.0  0.72851  0.07855  0.58451  1.0000
  H   H2666     1.0  0.73706  0.99859  0.60490  1.0000
  H   H2667     1.0  0.72735  0.41520  0.61893  1.0000
  H   H2668     1.0  0.72444  0.40815  0.35945  1.0000
  C   C3309     1.0  0.72314  0.00950  0.57853  1.0000
  H   H2669     1.0  0.56681  0.30221  0.34671  1.0000
  C   C3310     1.0  0.70029  0.45755  0.39860  1.0000
  C   C3311     1.0  0.73263  0.99151  0.47234  1.0000
  C   C3312     1.0  0.67418  0.47528  0.34960  1.0000
  H   H2670     1.0  0.64662  0.48379  0.36967  1.0000
  C   C3313     1.0  0.50347  0.19944  0.45967  1.0000
  C   C3314     1.0  0.56800  0.25260  0.32763  1.0000
  C   C3315     1.0  0.62469  0.45947  0.35730  1.0000
  H   H2671     1.0  0.59303  0.21637  0.61875  1.0000
  C   C3316     1.0  0.72789  0.48460  0.47137  1.0000
  H   H2672     1.0  0.63880  0.44484  0.31754  1.0000
  H   H2673     1.0  0.49254  0.13592  0.40464  1.0000
  H   H2674     1.0  0.53354  0.23828  0.60581  1.0000
  H   H2675     1.0  0.73540  0.23615  0.42749  1.0000
  H   H2676     1.0  0.58669  0.37729  0.32685  1.0000
  C   C3317     1.0  0.49192  0.16405  0.49683  1.0000
  C   C3318     1.0  0.49772  0.21032  0.47569  1.0000
  C   C3319     1.0  0.63140  0.26340  0.63577  1.0000
  C   C3320     1.0  0.73884  0.37411  0.63298  1.0000
  C   C3321     1.0  0.73950  0.39214  0.41342  1.0000
  H   H2677     1.0  0.59845  0.98621  0.40503  1.0000
  C   C3322     1.0  0.50106  0.38103  0.88616  1.0000
  H   H2678     1.0  0.58916  0.48187  0.90136  1.0000
  Fe  Fe220     1.0  0.60962  0.40870  0.76640  1.0000
  S   S442      1.0  0.61737  0.42404  0.73450  1.0000
  S   S443      1.0  0.59076  0.38436  0.78013  1.0000
  Fe  Fe221     1.0  0.64875  0.42072  0.74095  1.0000
  S   S444      1.0  0.67722  0.40697  0.72204  1.0000
  S   S445      1.0  0.64135  0.40312  0.77183  1.0000
  C   C3323     1.0  0.63642  0.41118  0.87786  1.0000
  Fe  Fe222     1.0  0.51341  0.28134  0.74849  1.0000
  S   S446      1.0  0.52021  0.25656  0.72869  1.0000
  Fe  Fe223     1.0  0.52602  0.32161  0.74947  1.0000
  S   S447      1.0  0.50692  0.32565  0.77927  1.0000
  S   S448      1.0  0.54477  0.34446  0.73128  1.0000
  Fe  Fe224     1.0  0.51865  0.29304  0.78852  1.0000
  S   S449      1.0  0.52606  0.28087  0.81989  1.0000
  S   S450      1.0  0.53932  0.28950  0.75925  1.0000
  S   S451      1.0  0.50162  0.31357  0.73673  1.0000
  C   C3324     1.0  0.50300  0.27100  0.93044  1.0000
  H   H2679     1.0  0.71668  0.47189  0.94333  1.0000
  C   C3325     1.0  0.61332  0.45568  0.94815  1.0000
  H   H2680     1.0  0.69301  0.41839  0.96377  1.0000
  S   S452      1.0  0.67623  0.00495  0.92423  1.0000
  Fe  Fe225     1.0  0.69483  0.11714  0.96439  1.0000
  C   C3326     1.0  0.49115  0.24284  0.86829  1.0000
  S   S453      1.0  0.66489  0.13580  0.95829  1.0000
  C   C3327     1.0  0.71371  0.01602  0.91779  1.0000
  C   C3328     1.0  0.59029  0.42254  0.90409  1.0000
  C   C3329     1.0  0.65346  0.39529  0.68242  1.0000
  Fe  Fe226     1.0  0.57040  0.11784  0.92040  1.0000
  S   S454      1.0  0.56030  0.13139  0.89065  1.0000
  S   S455      1.0  0.60198  0.10155  0.92335  1.0000
  Fe  Fe227     1.0  0.52858  0.12792  0.94381  1.0000
  S   S456      1.0  0.51512  0.14204  0.91625  1.0000
  H   H2681     1.0  0.53096  0.03475  0.87825  1.0000
  Fe  Fe228     1.0  0.53327  0.11583  0.90234  1.0000
  S   S457      1.0  0.52320  0.09500  0.88527  1.0000
  Fe  Fe229     1.0  0.54286  0.15633  0.90716  1.0000
  S   S458      1.0  0.53831  0.18991  0.89678  1.0000
  S   S459      1.0  0.54478  0.10053  0.93103  1.0000
  S   S460      1.0  0.55499  0.14387  0.93571  1.0000
  Fe  Fe230     1.0  0.54250  0.30947  0.94903  1.0000
  S   S461      1.0  0.56945  0.29094  0.96126  1.0000
  Fe  Fe231     1.0  0.56358  0.31406  0.90556  1.0000
  S   S462      1.0  0.59275  0.29675  0.91427  1.0000
  S   S463      1.0  0.55821  0.32867  0.87398  1.0000
  Fe  Fe232     1.0  0.57342  0.27547  0.93426  1.0000
  S   S464      1.0  0.58237  0.24168  0.93577  1.0000
  Fe  Fe233     1.0  0.58640  0.31370  0.94059  1.0000
  S   S465      1.0  0.60904  0.32960  0.94914  1.0000
  S   S466      1.0  0.54480  0.29204  0.92420  1.0000
  S   S467      1.0  0.55908  0.33306  0.92965  1.0000
  C   C3330     1.0  0.55136  0.20433  0.90672  1.0000
  C   C3331     1.0  0.56827  0.19553  0.91560  1.0000
  C   C3332     1.0  0.57827  0.20739  0.92344  1.0000
  C   C3333     1.0  0.57113  0.22803  0.92303  1.0000
  C   C3334     1.0  0.55451  0.23690  0.91370  1.0000
  C   C3335     1.0  0.54480  0.22511  0.90543  1.0000
  H   H2682     1.0  0.57385  0.17965  0.91617  1.0000
  H   H2683     1.0  0.59131  0.20044  0.93033  1.0000
  H   H2684     1.0  0.54904  0.25279  0.91294  1.0000
  H   H2685     1.0  0.53218  0.23209  0.89801  1.0000
  C   C3336     1.0  0.67170  0.40500  0.88044  1.0000
  H   H2686     1.0  0.63745  0.34877  0.96032  1.0000
  C   C3337     1.0  0.51301  0.37765  0.80157  1.0000
  H   H2687     1.0  0.50751  0.15460  0.87300  1.0000
  C   C3338     1.0  0.53698  0.07037  0.65874  1.0000
  H   H2688     1.0  0.54445  0.48102  0.71490  1.0000
  C   C3339     1.0  0.53849  0.10130  0.66970  1.0000
  S   S468      1.0  0.67394  0.99694  0.86959  1.0000
  C   C3340     1.0  0.51422  0.22882  0.84099  1.0000
  H   H2689     1.0  0.50963  0.06508  0.87008  1.0000
  C   C3341     1.0  0.64759  0.12605  0.94855  1.0000
  C   C3342     1.0  0.62811  0.13691  0.94805  1.0000
  C   C3343     1.0  0.61398  0.12964  0.94035  1.0000
  C   C3344     1.0  0.61930  0.11153  0.93285  1.0000
  C   C3345     1.0  0.63887  0.10083  0.93308  1.0000
  C   C3346     1.0  0.65286  0.10787  0.94118  1.0000
  H   H2690     1.0  0.62395  0.15103  0.95366  1.0000
  H   H2691     1.0  0.59903  0.13810  0.94015  1.0000
  H   H2692     1.0  0.64324  0.08691  0.92711  1.0000
  H   H2693     1.0  0.66781  0.09935  0.94144  1.0000
  C   C3347     1.0  0.69345  0.02009  0.92613  1.0000
  C   C3348     1.0  0.70010  0.04838  0.93883  1.0000
  C   C3349     1.0  0.68672  0.03635  0.93657  1.0000
  H   H2694     1.0  0.69453  0.06108  0.94650  1.0000
  H   H2695     1.0  0.67104  0.03989  0.94268  1.0000
  C   C3350     1.0  0.53370  0.29515  0.83495  1.0000
  C   C3351     1.0  0.53896  0.31412  0.82722  1.0000
  C   C3352     1.0  0.54581  0.32456  0.83952  1.0000
  C   C3353     1.0  0.54798  0.31590  0.85944  1.0000
  C   C3354     1.0  0.54224  0.29717  0.86727  1.0000
  C   C3355     1.0  0.53492  0.28699  0.85517  1.0000
  H   H2696     1.0  0.53817  0.32057  0.81167  1.0000
  H   H2697     1.0  0.55015  0.33904  0.83328  1.0000
  H   H2698     1.0  0.54366  0.29036  0.88257  1.0000
  H   H2699     1.0  0.53040  0.27259  0.86150  1.0000
  C   C3356     1.0  0.69160  0.42050  0.70156  1.0000
  C   C3357     1.0  0.68382  0.43940  0.69176  1.0000
  C   C3358     1.0  0.69546  0.44901  0.67472  1.0000
  C   C3359     1.0  0.71491  0.43982  0.66735  1.0000
  C   C3360     1.0  0.72275  0.42108  0.67737  1.0000
  C   C3361     1.0  0.71117  0.41155  0.69444  1.0000
  H   H2700     1.0  0.66875  0.44643  0.69708  1.0000
  H   H2701     1.0  0.68930  0.46355  0.66709  1.0000
  C   C3362     1.0  0.67592  0.38460  0.65308  1.0000
  H   H2702     1.0  0.71735  0.39708  0.70214  1.0000
  C   C3363     1.0  0.57899  0.37277  0.76606  1.0000
  C   C3364     1.0  0.56701  0.35845  0.77626  1.0000
  C   C3365     1.0  0.55660  0.34958  0.76570  1.0000
  C   C3366     1.0  0.55819  0.35491  0.74481  1.0000
  C   C3367     1.0  0.57054  0.36888  0.73454  1.0000
  C   C3368     1.0  0.58102  0.37772  0.74513  1.0000
  H   H2703     1.0  0.56555  0.35438  0.79244  1.0000
  H   H2704     1.0  0.54732  0.33868  0.77372  1.0000
  H   H2705     1.0  0.57195  0.37292  0.71837  1.0000
  H   H2706     1.0  0.59063  0.38833  0.73717  1.0000
  C   C3369     1.0  0.66839  0.42056  0.89164  1.0000
  H   H2707     1.0  0.51113  0.25816  0.93909  1.0000
  H   H2708     1.0  0.53150  0.35693  0.96143  1.0000
  H   H2709     1.0  0.65110  0.47270  0.95181  1.0000
  C   C3370     1.0  0.50272  0.38290  0.71530  1.0000
  S   S469      1.0  0.64347  0.43122  0.81319  1.0000
  H   H2710     1.0  0.64032  0.35453  0.67065  1.0000
  C   C3371     1.0  0.59774  0.29178  0.84644  1.0000
  C   C3372     1.0  0.58936  0.29282  0.82925  1.0000
  C   C3373     1.0  0.59018  0.30957  0.81405  1.0000
  C   C3374     1.0  0.59912  0.32540  0.81614  1.0000
  C   C3375     1.0  0.60730  0.32460  0.83349  1.0000
  C   C3376     1.0  0.60690  0.30750  0.84847  1.0000
  P   P114      1.0  0.61988  0.34469  0.83504  1.0000
  C   C3377     1.0  0.62579  0.34367  0.85965  1.0000
  C   C3378     1.0  0.64187  0.34254  0.81597  1.0000
  C   C3379     1.0  0.65861  0.32783  0.81961  1.0000
  C   C3380     1.0  0.67531  0.32539  0.80448  1.0000
  C   C3381     1.0  0.67518  0.33725  0.78549  1.0000
  C   C3382     1.0  0.65828  0.35139  0.78156  1.0000
  C   C3383     1.0  0.64163  0.35397  0.79672  1.0000
  C   C3384     1.0  0.61073  0.34157  0.87651  1.0000
  C   C3385     1.0  0.61454  0.34214  0.89556  1.0000
  C   C3386     1.0  0.63337  0.34492  0.89797  1.0000
  C   C3387     1.0  0.64832  0.34758  0.88118  1.0000
  C   C3388     1.0  0.64447  0.34727  0.86202  1.0000
  C   C3389     1.0  0.60362  0.36856  0.83117  1.0000
  C   C3390     1.0  0.58273  0.36957  0.83439  1.0000
  C   C3391     1.0  0.57009  0.38819  0.83280  1.0000
  C   C3392     1.0  0.57821  0.40591  0.82839  1.0000
  C   C3393     1.0  0.59895  0.40498  0.82583  1.0000
  C   C3394     1.0  0.61165  0.38640  0.82712  1.0000
  H   H2711     1.0  0.59690  0.27893  0.85834  1.0000
  H   H2712     1.0  0.58190  0.28084  0.82785  1.0000
  H   H2713     1.0  0.58352  0.31049  0.80081  1.0000
  H   H2714     1.0  0.59960  0.33834  0.80424  1.0000
  H   H2715     1.0  0.61345  0.30628  0.86179  1.0000
  H   H2716     1.0  0.65864  0.31813  0.83407  1.0000
  H   H2717     1.0  0.68824  0.31411  0.80740  1.0000
  H   H2718     1.0  0.65797  0.36027  0.76669  1.0000
  H   H2719     1.0  0.62845  0.36462  0.79329  1.0000
  H   H2720     1.0  0.59596  0.33964  0.87490  1.0000
  H   H2721     1.0  0.60287  0.34029  0.90849  1.0000
  H   H2722     1.0  0.63632  0.34502  0.91286  1.0000
  H   H2723     1.0  0.66284  0.34999  0.88304  1.0000
  H   H2724     1.0  0.65597  0.35016  0.84914  1.0000
  H   H2725     1.0  0.57617  0.35602  0.83823  1.0000
  H   H2726     1.0  0.55405  0.38879  0.83486  1.0000
  H   H2727     1.0  0.56850  0.42035  0.82677  1.0000
  H   H2728     1.0  0.60529  0.41867  0.82253  1.0000
  H   H2729     1.0  0.62770  0.38602  0.82498  1.0000
  H   H2730     1.0  0.51572  0.36498  0.81342  1.0000
  H   H2731     1.0  0.61255  0.39662  0.91225  1.0000
  H   H2732     1.0  0.55229  0.14171  0.82225  1.0000
  H   H2733     1.0  0.52457  0.01549  0.68352  1.0000
  C   C3395     1.0  0.49264  0.45547  0.81040  1.0000
  C   C3396     1.0  0.73468  0.99826  0.70603  1.0000
  C   C3397     1.0  0.71937  0.37503  0.66628  1.0000
  C   C3398     1.0  0.61370  0.44485  0.93288  1.0000
  H   H2734     1.0  0.65802  0.43613  0.84754  1.0000
  H   H2735     1.0  0.58978  0.43303  0.86252  1.0000
  C   C3399     1.0  0.56312  0.43121  0.72417  1.0000
  C   C3400     1.0  0.73567  0.44820  0.72250  1.0000
  S   S470      1.0  0.49635  0.16421  0.66347  1.0000
  H   H2736     1.0  0.65854  0.39343  0.95972  1.0000
  H   H2737     1.0  0.51835  0.22214  0.87206  1.0000
  H   H2738     1.0  0.50806  0.36688  0.71630  1.0000
  C   C3401     1.0  0.53080  0.11236  0.65277  1.0000
  C   C3402     1.0  0.56236  0.43964  0.95916  1.0000
  H   H2739     1.0  0.61612  0.99347  0.81037  1.0000
  H   H2740     1.0  0.54794  0.07177  0.68563  1.0000
  C   C3403     1.0  0.53347  0.18673  0.83809  1.0000
  Fe  Fe234     1.0  0.61194  0.45210  0.74836  1.0000
  P   P115      1.0  0.53718  0.21268  0.83243  1.0000
  H   H2741     1.0  0.50376  0.25557  0.90602  1.0000
  C   C3404     1.0  0.55668  0.21566  0.84520  1.0000
  C   C3405     1.0  0.55806  0.23482  0.84832  1.0000
  C   C3406     1.0  0.57254  0.23738  0.85878  1.0000
  C   C3407     1.0  0.58592  0.22077  0.86613  1.0000
  C   C3408     1.0  0.58487  0.20163  0.86287  1.0000
  C   C3409     1.0  0.57031  0.19904  0.85244  1.0000
  H   H2742     1.0  0.54637  0.05010  0.84319  1.0000
  H   H2743     1.0  0.50570  0.23973  0.81149  1.0000
  H   H2744     1.0  0.52541  0.28866  0.69405  1.0000
  C   C3410     1.0  0.73510  0.47542  0.68654  1.0000
  C   C3411     1.0  0.50882  0.23045  0.86144  1.0000
  H   H2745     1.0  0.64921  0.40528  0.69349  1.0000
  S   S471      1.0  0.59544  0.48145  0.73396  1.0000
  P   P116      1.0  0.70406  0.47148  0.74410  1.0000
  H   H2746     1.0  0.53323  0.47111  0.78064  1.0000
  H   H2747     1.0  0.51339  0.04738  0.69680  1.0000
  C   C3412     1.0  0.50937  0.20047  0.98085  1.0000
  C   C3413     1.0  0.49943  0.41390  0.72846  1.0000
  C   C3414     1.0  0.65488  0.45082  0.83878  1.0000
  H   H2748     1.0  0.52498  0.07677  0.82383  1.0000
  H   H2749     1.0  0.51156  0.33010  0.89217  1.0000
  C   C3415     1.0  0.60259  0.45535  0.87183  1.0000
  H   H2750     1.0  0.54780  0.24775  0.84270  1.0000
  H   H2751     1.0  0.57307  0.25218  0.86160  1.0000
  H   H2752     1.0  0.59673  0.22266  0.87481  1.0000
  H   H2753     1.0  0.59486  0.18872  0.86909  1.0000
  H   H2754     1.0  0.56934  0.18403  0.85070  1.0000
  H   H2755     1.0  0.61997  0.44838  0.96130  1.0000
  H   H2756     1.0  0.55632  0.17741  0.81369  1.0000
  C   C3416     1.0  0.54388  0.22006  0.80556  1.0000
  H   H2757     1.0  0.55308  0.46498  0.93712  1.0000
  C   C3417     1.0  0.50890  0.03365  0.70558  1.0000
  C   C3418     1.0  0.55753  0.23343  0.79772  1.0000
  H   H2758     1.0  0.50039  0.03228  0.80493  1.0000
  H   H2759     1.0  0.72178  0.99597  0.71752  1.0000
  H   H2760     1.0  0.50811  0.35169  0.67360  1.0000
  H   H2761     1.0  0.52351  0.20354  0.79800  1.0000
  C   C3419     1.0  0.64911  0.43139  0.89605  1.0000
  C   C3420     1.0  0.67277  0.44556  0.95535  1.0000
  C   C3421     1.0  0.69437  0.05073  0.81850  1.0000
  H   H2762     1.0  0.68080  0.42448  0.89674  1.0000
  H   H2763     1.0  0.68804  0.33531  0.77369  1.0000
  C   C3422     1.0  0.54168  0.08031  0.67264  1.0000
  C   C3423     1.0  0.51462  0.23358  0.70210  1.0000
  H   H2764     1.0  0.50270  0.99254  0.79737  1.0000
  S   S472      1.0  0.64397  0.44978  0.75269  1.0000
  H   H2765     1.0  0.51528  0.38488  0.74076  1.0000
  C   C3424     1.0  0.64281  0.37971  0.68367  1.0000
  H   H2766     1.0  0.51093  0.21559  0.68090  1.0000
  C   C3425     1.0  0.65573  0.40040  0.87344  1.0000
  C   C3426     1.0  0.50345  0.22404  0.69274  1.0000
  C   C3427     1.0  0.52941  0.14597  0.84797  1.0000
  C   C3428     1.0  0.69936  0.44883  0.76124  1.0000
  H   H2767     1.0  0.58833  0.37328  0.92405  1.0000
  C   C3429     1.0  0.60144  0.98909  0.81466  1.0000
  S   S473      1.0  0.68258  0.44734  0.92964  1.0000
  C   C3430     1.0  0.56273  0.39583  0.91811  1.0000
  C   C3431     1.0  0.59626  0.47437  0.91411  1.0000
  C   C3432     1.0  0.58314  0.38896  0.91840  1.0000
  H   H2768     1.0  0.69108  0.40171  0.76099  1.0000
  H   H2769     1.0  0.64715  0.44373  0.90424  1.0000
  C   C3433     1.0  0.56970  0.42942  0.90428  1.0000
  C   C3434     1.0  0.72047  0.04405  0.93096  1.0000
  C   C3435     1.0  0.64388  0.02187  0.97645  1.0000
  H   H2770     1.0  0.62432  0.40776  0.87187  1.0000
  C   C3436     1.0  0.51897  0.32053  0.68364  1.0000
  C   C3437     1.0  0.50665  0.39320  0.72930  1.0000
  C   C3438     1.0  0.54530  0.17272  0.82643  1.0000
  C   C3439     1.0  0.55851  0.01469  0.87007  1.0000
  H   H2771     1.0  0.54133  0.38715  0.80005  1.0000
  P   P117      1.0  0.60776  0.44003  0.89539  1.0000
  H   H2772     1.0  0.50853  0.39386  0.88429  1.0000
  C   C3440     1.0  0.50701  0.40928  0.76947  1.0000
  S   S474      1.0  0.60178  0.43708  0.77974  1.0000
  C   C3441     1.0  0.50095  0.09561  0.87537  1.0000
  H   H2773     1.0  0.57334  0.17101  0.95986  1.0000
  C   C3442     1.0  0.52745  0.39009  0.79403  1.0000
  C   C3443     1.0  0.52438  0.40599  0.77822  1.0000
  C   C3444     1.0  0.63287  0.42646  0.88960  1.0000
  H   H2774     1.0  0.56340  0.42886  0.94932  1.0000
  H   H2775     1.0  0.70363  0.04174  0.80773  1.0000
  C   C3445     1.0  0.59358  0.44798  0.85877  1.0000
  H   H2776     1.0  0.71907  0.00354  0.90971  1.0000
  H   H2777     1.0  0.65838  0.38893  0.86406  1.0000
  C   C3446     1.0  0.54316  0.15246  0.83129  1.0000
  C   C3447     1.0  0.51785  0.15973  0.85985  1.0000
  H   H2778     1.0  0.53588  0.41527  0.77263  1.0000
  H   H2779     1.0  0.68668  0.40063  0.79787  1.0000
  C   C3448     1.0  0.49661  0.03415  0.72431  1.0000
  C   C3449     1.0  0.52429  0.06116  0.82398  1.0000
  C   C3450     1.0  0.72715  0.02789  0.92028  1.0000
  C   C3451     1.0  0.56784  0.99315  0.83408  1.0000
  H   H2780     1.0  0.55219  0.38542  0.92331  1.0000
  C   C3452     1.0  0.52704  0.43707  0.73524  1.0000
  C   C3453     1.0  0.59687  0.40227  0.91157  1.0000
  H   H2781     1.0  0.68672  0.39687  0.87679  1.0000
  C   C3454     1.0  0.50525  0.24483  0.71745  1.0000
  H   H2782     1.0  0.50180  0.06806  0.80477  1.0000
  C   C3455     1.0  0.69008  0.10990  0.89956  1.0000
  C   C3456     1.0  0.70744  0.09553  0.90032  1.0000
  C   C3457     1.0  0.70973  0.07850  0.89144  1.0000
  C   C3458     1.0  0.69463  0.07569  0.88195  1.0000
  C   C3459     1.0  0.67736  0.09033  0.88054  1.0000
  C   C3460     1.0  0.67509  0.10737  0.88968  1.0000
  P   P118      1.0  0.65823  0.08644  0.86779  1.0000
  C   C3461     1.0  0.64352  0.11018  0.85868  1.0000
  C   C3462     1.0  0.67118  0.07309  0.84754  1.0000
  C   C3463     1.0  0.68695  0.08072  0.83383  1.0000
  C   C3464     1.0  0.69837  0.06965  0.81926  1.0000
  H   H2783     1.0  0.50249  0.19276  0.93787  1.0000
  C   C3465     1.0  0.67867  0.04308  0.83199  1.0000
  C   C3466     1.0  0.66707  0.05418  0.84645  1.0000
  C   C3467     1.0  0.62965  0.12067  0.87244  1.0000
  C   C3468     1.0  0.61757  0.13865  0.86581  1.0000
  C   C3469     1.0  0.61922  0.14636  0.84529  1.0000
  C   C3470     1.0  0.63290  0.13600  0.83142  1.0000
  C   C3471     1.0  0.64495  0.11793  0.83805  1.0000
  C   C3472     1.0  0.64170  0.07128  0.88511  1.0000
  C   C3473     1.0  0.62151  0.07355  0.88294  1.0000
  C   C3474     1.0  0.60864  0.06193  0.89644  1.0000
  C   C3475     1.0  0.61594  0.04774  0.91194  1.0000
  C   C3476     1.0  0.63612  0.04499  0.91377  1.0000
  C   C3477     1.0  0.64899  0.05668  0.90045  1.0000
  H   H2784     1.0  0.68807  0.12286  0.90697  1.0000
  H   H2785     1.0  0.71899  0.09732  0.90812  1.0000
  H   H2786     1.0  0.72305  0.06720  0.89240  1.0000
  H   H2787     1.0  0.69635  0.06193  0.87597  1.0000
  H   H2788     1.0  0.66177  0.11864  0.88954  1.0000
  H   H2789     1.0  0.69067  0.09504  0.83475  1.0000
  H   H2790     1.0  0.71067  0.07547  0.80890  1.0000
  H   H2791     1.0  0.53066  0.23229  0.69733  1.0000
  H   H2792     1.0  0.59294  0.06433  0.89508  1.0000
  H   H2793     1.0  0.65533  0.04765  0.85703  1.0000
  H   H2794     1.0  0.62805  0.11483  0.88837  1.0000
  H   H2795     1.0  0.60684  0.14645  0.87666  1.0000
  H   H2796     1.0  0.60982  0.16028  0.84016  1.0000
  H   H2797     1.0  0.63406  0.14191  0.81550  1.0000
  H   H2798     1.0  0.65509  0.11003  0.82699  1.0000
  H   H2799     1.0  0.61553  0.08450  0.87107  1.0000
  H   H2800     1.0  0.49291  0.19923  0.90410  1.0000
  C   C3478     1.0  0.52201  0.02093  0.82485  1.0000
  H   H2801     1.0  0.64188  0.03381  0.92555  1.0000
  H   H2802     1.0  0.66456  0.05422  0.90226  1.0000
  H   H2803     1.0  0.54580  0.40778  0.73717  1.0000
  H   H2804     1.0  0.62090  0.42935  0.93433  1.0000
  C   C3479     1.0  0.59143  0.17911  0.97820  1.0000
  H   H2805     1.0  0.56777  0.46009  0.76398  1.0000
  C   C3480     1.0  0.64801  0.45285  0.82049  1.0000
  C   C3481     1.0  0.49687  0.99839  0.72824  1.0000
  C   C3482     1.0  0.65718  0.46019  0.96230  1.0000
  H   H2806     1.0  0.64872  0.07641  0.97892  1.0000
  H   H2807     1.0  0.60602  0.03893  0.92263  1.0000
  H   H2808     1.0  0.59890  0.39080  0.95230  1.0000
  H   H2809     1.0  0.56449  0.23939  0.80750  1.0000
  C   C3483     1.0  0.54161  0.21044  0.96686  1.0000
  C   C3484     1.0  0.62945  0.39135  0.95397  1.0000
  H   H2810     1.0  0.54335  0.04688  0.90408  1.0000
  H   H2811     1.0  0.55696  0.20691  0.95974  1.0000
  S   S475      1.0  0.69786  0.08388  0.97493  1.0000
  C   C3485     1.0  0.53620  0.04595  0.83522  1.0000
  H   H2812     1.0  0.53118  0.21527  0.76135  1.0000
  C   C3486     1.0  0.61332  0.33221  0.97318  1.0000
  H   H2813     1.0  0.63954  0.47356  0.79457  1.0000
  C   C3487     1.0  0.64467  0.47188  0.80879  1.0000
  H   H2814     1.0  0.55558  0.23841  0.74787  1.0000
  H   H2815     1.0  0.73066  0.01587  0.75673  1.0000
  C   C3488     1.0  0.49193  0.39320  0.70013  1.0000
  C   C3489     1.0  0.49681  0.05040  0.65535  1.0000
  H   H2816     1.0  0.56431  0.44507  0.89893  1.0000
  S   S476      1.0  0.51315  0.32100  0.96729  1.0000
  C   C3490     1.0  0.51524  0.01551  0.69814  1.0000
  C   C3491     1.0  0.54530  0.42382  0.73256  1.0000
  H   H2817     1.0  0.57721  0.42099  0.72254  1.0000
  C   C3492     1.0  0.53883  0.21992  0.77157  1.0000
  C   C3493     1.0  0.50470  0.42143  0.82504  1.0000
  C   C3494     1.0  0.54464  0.46502  0.71971  1.0000
  C   C3495     1.0  0.60571  0.45420  0.91547  1.0000
  C   C3496     1.0  0.51033  0.03614  0.81343  1.0000
  C   C3497     1.0  0.62828  0.34306  0.97409  1.0000
  C   C3498     1.0  0.53467  0.02572  0.83620  1.0000
  P   P119      1.0  0.54878  0.00573  0.85157  1.0000
  S   S477      1.0  0.49406  0.28175  0.77893  1.0000
  C   C3499     1.0  0.49040  0.18609  0.93537  1.0000
  H   H2818     1.0  0.70538  0.37820  0.67629  1.0000
  C   C3500     1.0  0.55600  0.41607  0.91116  1.0000
  H   H2819     1.0  0.57714  0.03237  0.91241  1.0000
  C   C3501     1.0  0.51994  0.17999  0.85503  1.0000
  C   C3502     1.0  0.64725  0.06114  0.97846  1.0000
  C   C3503     1.0  0.51209  0.36163  0.88848  1.0000
  Fe  Fe235     1.0  0.63410  0.43247  0.78310  1.0000
  H   H2820     1.0  0.50076  0.29040  0.95204  1.0000
  H   H2821     1.0  0.54210  0.10907  0.68044  1.0000
  H   H2822     1.0  0.57142  0.13759  0.97972  1.0000
  H   H2823     1.0  0.69850  0.43242  0.73772  1.0000
  Fe  Fe236     1.0  0.72725  0.08256  0.95396  1.0000
  H   H2824     1.0  0.52387  0.44287  0.80979  1.0000
  H   H2825     1.0  0.57672  0.45759  0.71206  1.0000
  H   H2826     1.0  0.63015  0.37775  0.69562  1.0000
  C   C3504     1.0  0.65744  0.46769  0.84595  1.0000
  C   C3505     1.0  0.72231  0.46776  0.95747  1.0000
  C   C3506     1.0  0.69645  0.44825  0.78212  1.0000
  C   C3507     1.0  0.69249  0.43069  0.79523  1.0000
  C   C3508     1.0  0.69068  0.41387  0.78764  1.0000
  C   C3509     1.0  0.69305  0.41453  0.76690  1.0000
  C   C3510     1.0  0.69726  0.43197  0.75374  1.0000
  C   C3511     1.0  0.52676  0.45768  0.72792  1.0000
  C   C3512     1.0  0.49884  0.26955  0.91179  1.0000
  C   C3513     1.0  0.50856  0.44017  0.81460  1.0000
  C   C3514     1.0  0.51124  0.05626  0.81322  1.0000
  C   C3515     1.0  0.72148  0.46596  0.72179  1.0000
  C   C3516     1.0  0.49073  0.01650  0.73569  1.0000
  H   H2827     1.0  0.52789  0.13023  0.85187  1.0000
  H   H2828     1.0  0.73579  0.46173  0.76865  1.0000
  C   C3517     1.0  0.53267  0.98855  0.86603  1.0000
  H   H2829     1.0  0.49024  0.28389  0.69898  1.0000
  H   H2830     1.0  0.51291  0.46825  0.72841  1.0000
  C   C3518     1.0  0.53453  0.21337  0.79230  1.0000
  C   C3519     1.0  0.56284  0.45182  0.71805  1.0000
  C   C3520     1.0  0.56693  0.43322  0.97866  1.0000
  H   H2831     1.0  0.64221  0.00696  0.97518  1.0000
  H   H2832     1.0  0.69672  0.46141  0.78839  1.0000
  H   H2833     1.0  0.51125  0.19018  0.86482  1.0000
  H   H2834     1.0  0.67583  0.02827  0.83150  1.0000
  H   H2835     1.0  0.68984  0.43043  0.81134  1.0000
  H   H2836     1.0  0.49151  0.04819  0.73004  1.0000
  C   C3521     1.0  0.60879  0.47415  0.86568  1.0000
  C   C3522     1.0  0.68064  0.42948  0.96904  1.0000
  H   H2837     1.0  0.72588  0.06179  0.84654  1.0000
  C   C3523     1.0  0.64861  0.36661  0.66962  1.0000
  C   C3524     1.0  0.55291  0.03546  0.89608  1.0000
  H   H2838     1.0  0.49852  0.33245  0.85553  1.0000
  C   C3525     1.0  0.56193  0.23977  0.77697  1.0000
  H   H2839     1.0  0.53441  0.32262  0.68199  1.0000
  H   H2840     1.0  0.63538  0.38548  0.94010  1.0000
  H   H2841     1.0  0.52101  0.00540  0.82506  1.0000
  H   H2842     1.0  0.54015  0.42140  0.91103  1.0000
  C   C3526     1.0  0.51391  0.30141  0.69051  1.0000
  C   C3527     1.0  0.58427  0.01268  0.89030  1.0000
  C   C3528     1.0  0.60878  0.39433  0.96095  1.0000
  H   H2843     1.0  0.53420  0.41380  0.97648  1.0000
  C   C3529     1.0  0.49390  0.29876  0.69344  1.0000
  C   C3530     1.0  0.55257  0.23305  0.76391  1.0000
  H   H2844     1.0  0.55243  0.07631  0.97016  1.0000
  C   C3531     1.0  0.57200  0.02736  0.90067  1.0000
  C   C3532     1.0  0.57746  0.00614  0.87524  1.0000
  C   C3533     1.0  0.70897  0.46446  0.97541  1.0000
  H   H2845     1.0  0.58701  0.99435  0.86786  1.0000
  C   C3534     1.0  0.49828  0.07831  0.86890  1.0000
  H   H2846     1.0  0.73594  0.36477  0.69088  1.0000
  H   H2847     1.0  0.66217  0.46596  0.86038  1.0000
  H   H2848     1.0  0.60575  0.48475  0.95742  1.0000
  H   H2849     1.0  0.49911  0.32630  0.82149  1.0000
  S   S478      1.0  0.51159  0.13082  0.97472  1.0000
  S   S479      1.0  0.72356  0.11577  0.94208  1.0000
  C   C3535     1.0  0.54605  0.02884  0.88114  1.0000
  H   H2850     1.0  0.72361  0.45081  0.90930  1.0000
  P   P120      1.0  0.50424  0.42722  0.74672  1.0000
  C   C3536     1.0  0.64251  0.39576  0.96500  1.0000
  H   H2851     1.0  0.57219  0.25036  0.77103  1.0000
  H   H2852     1.0  0.56583  0.34379  0.96920  1.0000
  C   C3537     1.0  0.50922  0.99773  0.70942  1.0000
  C   C3538     1.0  0.64883  0.45820  0.98278  1.0000
  H   H2853     1.0  0.62085  0.03549  0.95860  1.0000
  H   H2854     1.0  0.50529  0.01047  0.86634  1.0000
  H   H2855     1.0  0.71681  0.00854  0.68238  1.0000
  C   C3539     1.0  0.59542  0.47873  0.83477  1.0000
  H   H2856     1.0  0.67815  0.40980  0.66660  1.0000
  H   H2857     1.0  0.68252  0.47448  0.71022  1.0000
  C   C3540     1.0  0.73245  0.03081  0.86010  1.0000
  C   C3541     1.0  0.60514  0.47608  0.94606  1.0000
  H   H2858     1.0  0.58977  0.01212  0.83281  1.0000
  C   C3542     1.0  0.53970  0.36658  0.96618  1.0000
  H   H2859     1.0  0.52857  0.12865  0.65032  1.0000
  C   C3543     1.0  0.63365  0.05767  0.96749  1.0000
  C   C3544     1.0  0.66989  0.39778  0.66716  1.0000
  C   C3545     1.0  0.55662  0.46008  0.95217  1.0000
  H   H2860     1.0  0.49144  0.09216  0.92970  1.0000
  H   H2861     1.0  0.52811  0.35943  0.88839  1.0000
  C   C3546     1.0  0.73674  0.36726  0.67471  1.0000
  H   H2862     1.0  0.51705  0.40962  0.82851  1.0000
  C   C3547     1.0  0.73177  0.00563  0.68615  1.0000
  H   H2863     1.0  0.59908  0.00627  0.89388  1.0000
  H   H2864     1.0  0.50082  0.46346  0.76460  1.0000
  C   C3548     1.0  0.49729  0.28922  0.93765  1.0000
  C   C3549     1.0  0.59644  0.48537  0.92914  1.0000
  C   C3550     1.0  0.50176  0.24010  0.82743  1.0000
  S   S480      1.0  0.73782  0.05877  0.93373  1.0000
  S   S481      1.0  0.72154  0.99825  0.82954  1.0000
  C   C3551     1.0  0.59003  0.45965  0.84032  1.0000
  C   C3552     1.0  0.63163  0.03809  0.96689  1.0000
  C   C3553     1.0  0.66515  0.36898  0.65439  1.0000
  H   H2865     1.0  0.54439  0.24052  0.96886  1.0000
  C   C3554     1.0  0.50258  0.34499  0.89078  1.0000
  C   C3555     1.0  0.67956  0.48403  0.73903  1.0000
  C   C3556     1.0  0.58654  0.99946  0.82761  1.0000
  C   C3557     1.0  0.72166  0.47980  0.70381  1.0000
  H   H2866     1.0  0.49929  0.09743  0.96303  1.0000
  H   H2867     1.0  0.71818  0.02731  0.85870  1.0000
  H   H2868     1.0  0.58356  0.45378  0.83003  1.0000
  H   H2869     1.0  0.60579  0.09282  0.98072  1.0000
  H   H2870     1.0  0.69314  0.46583  0.97509  1.0000
  H   H2871     1.0  0.49575  0.47002  0.80235  1.0000
  H   H2872     1.0  0.53450  0.18153  0.96624  1.0000
  H   H2873     1.0  0.62474  0.07013  0.95931  1.0000
  H   H2874     1.0  0.58899  0.07619  0.96146  1.0000
  C   C3558     1.0  0.72921  0.01940  0.97607  1.0000
  C   C3559     1.0  0.55898  0.35915  0.97059  1.0000
  Fe  Fe237     1.0  0.67411  0.47870  0.91372  1.0000
  C   C3560     1.0  0.53451  0.22941  0.97221  1.0000
  H   H2875     1.0  0.49706  0.06243  0.66327  1.0000
  H   H2876     1.0  0.73592  0.03288  0.97274  1.0000
  C   C3561     1.0  0.52899  0.19610  0.97082  1.0000
  C   C3562     1.0  0.58046  0.08301  0.97410  1.0000
  H   H2877     1.0  0.73547  0.04690  0.76648  1.0000
  H   H2878     1.0  0.61728  0.47953  0.87460  1.0000
  H   H2879     1.0  0.58412  0.36526  0.98098  1.0000
  C   C3563     1.0  0.60107  0.40165  0.97905  1.0000
  C   C3564     1.0  0.56052  0.47537  0.76010  1.0000
  H   H2880     1.0  0.53980  0.05410  0.66102  1.0000
  H   H2881     1.0  0.73774  0.41392  0.67199  1.0000
  C   C3565     1.0  0.51200  0.99509  0.87116  1.0000
  C   C3566     1.0  0.49527  0.38139  0.79355  1.0000
  C   C3567     1.0  0.67302  0.48291  0.72125  1.0000
  C   C3568     1.0  0.50409  0.33693  0.67909  1.0000
  C   C3569     1.0  0.55589  0.47426  0.96441  1.0000
  C   C3570     1.0  0.49222  0.39720  0.77763  1.0000
  H   H2882     1.0  0.59249  0.19379  0.96913  1.0000
  C   C3571     1.0  0.54084  0.48159  0.76937  1.0000
  H   H2883     1.0  0.73630  0.43755  0.73631  1.0000
  C   C3572     1.0  0.55979  0.08325  0.97883  1.0000
  C   C3573     1.0  0.53087  0.38631  0.96826  1.0000
  H   H2884     1.0  0.51576  0.39190  0.96519  1.0000
  C   C3574     1.0  0.56944  0.37142  0.97705  1.0000
  C   C3575     1.0  0.73851  0.45460  0.90709  1.0000
  C   C3576     1.0  0.54142  0.39870  0.97453  1.0000
  C   C3577     1.0  0.56099  0.39142  0.97854  1.0000
  C   C3578     1.0  0.58055  0.16635  0.97306  1.0000
  C   C3579     1.0  0.51482  0.23395  0.98196  1.0000
  C   C3580     1.0  0.73075  0.47782  0.76680  1.0000
  C   C3581     1.0  0.73682  0.05017  0.85312  1.0000
  H   H2885     1.0  0.73464  0.48566  0.67242  1.0000
  C   C3582     1.0  0.60470  0.48600  0.84750  1.0000
  Fe  Fe238     1.0  0.73865  0.11867  0.96758  1.0000
  C   C3583     1.0  0.63486  0.40313  0.98296  1.0000
  H   H2886     1.0  0.60723  0.92965  0.29457  1.0000
  H   H2887     1.0  0.54148  0.52100  0.14102  1.0000
  H   H2888     1.0  0.62169  0.84543  0.99922  1.0000
  H   H2889     1.0  0.57563  0.94027  0.14356  1.0000
  H   H2890     1.0  0.51970  0.58514  0.07433  1.0000
  C   C3584     1.0  0.53604  0.68705  0.17977  1.0000
  Fe  Fe239     1.0  0.53082  0.56715  0.20727  1.0000
  S   S482      1.0  0.55571  0.54502  0.19321  1.0000
  S   S483      1.0  0.53252  0.60001  0.20089  1.0000
  H   H2891     1.0  0.57851  0.66270  0.28435  1.0000
  C   C3585     1.0  0.52734  0.52372  0.17133  1.0000
  H   H2892     1.0  0.53371  0.61778  0.98710  1.0000
  H   H2893     1.0  0.49955  0.58334  0.27815  1.0000
  C   C3586     1.0  0.51752  0.64144  0.28270  1.0000
  H   H2894     1.0  0.58340  0.62714  0.09662  1.0000
  C   C3587     1.0  0.60133  0.75048  0.26481  1.0000
  C   C3588     1.0  0.59369  0.49702  0.23235  1.0000
  H   H2895     1.0  0.65182  0.78075  0.08709  1.0000
  Fe  Fe240     1.0  0.70840  0.86408  0.01261  1.0000
  Fe  Fe241     1.0  0.69349  0.82413  0.02587  1.0000
  S   S484      1.0  0.67126  0.80634  0.02046  1.0000
  S   S485      1.0  0.70416  0.84511  0.08820  1.0000
  S   S486      1.0  0.68436  0.85351  0.03716  1.0000
  S   S487      1.0  0.71586  0.83552  0.99966  1.0000
  C   C3589     1.0  0.61512  0.50002  0.11534  1.0000
  S   S488      1.0  0.53317  0.94993  0.15473  1.0000
  H   H2896     1.0  0.53360  0.62507  0.09185  1.0000
  Fe  Fe242     1.0  0.59006  0.59160  0.02124  1.0000
  S   S489      1.0  0.56853  0.61273  0.00306  1.0000
  S   S490      1.0  0.61838  0.57132  0.00994  1.0000
  Fe  Fe243     1.0  0.56570  0.60147  0.06098  1.0000
  S   S491      1.0  0.54185  0.62313  0.04659  1.0000
  S   S492      1.0  0.56674  0.59120  0.09390  1.0000
  C   C3590     1.0  0.53993  0.74086  0.31382  1.0000
  Fe  Fe244     1.0  0.56742  0.63410  0.02433  1.0000
  S   S493      1.0  0.56523  0.66739  0.01244  1.0000
  S   S494      1.0  0.56616  0.57750  0.04310  1.0000
  S   S495      1.0  0.59134  0.61417  0.04038  1.0000
  Fe  Fe245     1.0  0.56035  0.79939  0.06186  1.0000
  S   S496      1.0  0.54919  0.77735  0.08846  1.0000
  S   S497      1.0  0.58086  0.82037  0.06433  1.0000
  Fe  Fe246     1.0  0.53476  0.78893  0.03543  1.0000
  S   S498      1.0  0.52187  0.76583  0.05950  1.0000
  H   H2897     1.0  0.72057  0.90794  0.15836  1.0000
  Fe  Fe247     1.0  0.51892  0.78870  0.07958  1.0000
  C   C3591     1.0  0.59950  0.49898  0.13191  1.0000
  Fe  Fe248     1.0  0.55324  0.75656  0.06602  1.0000
  S   S499      1.0  0.56798  0.72435  0.07340  1.0000
  S   S500      1.0  0.52956  0.81257  0.05493  1.0000
  S   S501      1.0  0.56662  0.77774  0.04006  1.0000
  H   H2898     1.0  0.64097  0.94438  0.02865  1.0000
  C   C3592     1.0  0.50895  0.67512  0.13248  1.0000
  H   H2899     1.0  0.57578  0.82825  0.02175  1.0000
  C   C3593     1.0  0.57850  0.68748  0.29928  1.0000
  C   C3594     1.0  0.50208  0.81564  0.29606  1.0000
  H   H2900     1.0  0.52567  0.65523  0.01550  1.0000
  C   C3595     1.0  0.56755  0.64758  0.11665  1.0000
  H   H2901     1.0  0.66285  0.50628  0.27761  1.0000
  C   C3596     1.0  0.51876  0.66848  0.20963  1.0000
  C   C3597     1.0  0.57989  0.61739  0.14749  1.0000
  S   S502      1.0  0.51597  0.56786  0.23928  1.0000
  C   C3598     1.0  0.56537  0.68296  0.02984  1.0000
  C   C3599     1.0  0.55917  0.70375  0.02500  1.0000
  C   C3600     1.0  0.55954  0.71655  0.03846  1.0000
  C   C3601     1.0  0.56659  0.70862  0.05660  1.0000
  C   C3602     1.0  0.57282  0.68785  0.06142  1.0000
  C   C3603     1.0  0.57199  0.67500  0.04818  1.0000
  H   H2902     1.0  0.55403  0.70997  0.01083  1.0000
  H   H2903     1.0  0.55475  0.73257  0.03464  1.0000
  H   H2904     1.0  0.57831  0.68169  0.07541  1.0000
  H   H2905     1.0  0.57680  0.65898  0.05200  1.0000
  C   C3604     1.0  0.66516  0.98121  0.99907  1.0000
  C   C3605     1.0  0.64865  0.95267  0.01526  1.0000
  Fe  Fe249     1.0  0.50264  0.60362  0.19124  1.0000
  H   H2906     1.0  0.58604  0.50528  0.06863  1.0000
  C   C3606     1.0  0.62156  0.74172  0.26249  1.0000
  C   C3607     1.0  0.50398  0.82578  0.11114  1.0000
  C   C3608     1.0  0.64379  0.48944  0.03620  1.0000
  C   C3609     1.0  0.49900  0.93390  0.16055  1.0000
  C   C3610     1.0  0.73259  0.49284  0.22810  1.0000
  C   C3611     1.0  0.64612  0.81080  0.03252  1.0000
  C   C3612     1.0  0.63217  0.80066  0.02820  1.0000
  C   C3613     1.0  0.61214  0.80354  0.03783  1.0000
  C   C3614     1.0  0.60581  0.81683  0.05164  1.0000
  C   C3615     1.0  0.61962  0.82736  0.05562  1.0000
  C   C3616     1.0  0.63976  0.82426  0.04620  1.0000
  H   H2907     1.0  0.63691  0.79039  0.01752  1.0000
  H   H2908     1.0  0.60164  0.79537  0.03471  1.0000
  H   H2909     1.0  0.61478  0.83762  0.06633  1.0000
  H   H2910     1.0  0.65037  0.83208  0.04970  1.0000
  H   H2911     1.0  0.61657  0.89249  0.01068  1.0000
  C   C3617     1.0  0.50128  0.80002  0.00396  1.0000
  C   C3618     1.0  0.52614  0.65567  0.17814  1.0000
  H   H2912     1.0  0.48985  0.74419  0.25526  1.0000
  C   C3619     1.0  0.71825  0.86017  0.09580  1.0000
  Fe  Fe250     1.0  0.73825  0.82532  0.02097  1.0000
  C   C3620     1.0  0.68014  0.62309  0.98917  1.0000
  C   C3621     1.0  0.51645  0.61416  0.14224  1.0000
  H   H2913     1.0  0.49300  0.80379  0.03505  1.0000
  C   C3622     1.0  0.51318  0.65930  0.00732  1.0000
  H   H2914     1.0  0.67442  0.49167  0.30977  1.0000
  C   C3623     1.0  0.64651  0.98195  0.10592  1.0000
  H   H2915     1.0  0.54937  0.65113  0.30787  1.0000
  C   C3624     1.0  0.52166  0.51352  0.19067  1.0000
  H   H2916     1.0  0.63942  0.49044  0.26516  1.0000
  C   C3625     1.0  0.66412  0.61884  0.00438  1.0000
  C   C3626     1.0  0.56980  0.52644  0.20865  1.0000
  C   C3627     1.0  0.56798  0.52684  0.22915  1.0000
  C   C3628     1.0  0.57999  0.51219  0.24095  1.0000
  H   H2917     1.0  0.70580  0.97097  0.98828  1.0000
  C   C3629     1.0  0.59528  0.49642  0.21188  1.0000
  C   C3630     1.0  0.58341  0.51120  0.20005  1.0000
  H   H2918     1.0  0.55763  0.53865  0.23582  1.0000
  H   H2919     1.0  0.68966  0.49499  0.00930  1.0000
  C   C3631     1.0  0.52788  0.68096  0.12611  1.0000
  H   H2920     1.0  0.58490  0.51104  0.18414  1.0000
  H   H2921     1.0  0.73247  0.49483  0.25900  1.0000
  C   C3632     1.0  0.53069  0.59719  0.14691  1.0000
  C   C3633     1.0  0.54585  0.59028  0.13188  1.0000
  C   C3634     1.0  0.54693  0.60022  0.11198  1.0000
  C   C3635     1.0  0.53273  0.61723  0.10715  1.0000
  H   H2922     1.0  0.70314  0.55442  0.00269  1.0000
  H   H2923     1.0  0.66102  0.57244  0.99672  1.0000
  H   H2924     1.0  0.55688  0.57725  0.13578  1.0000
  H   H2925     1.0  0.50527  0.66622  0.14709  1.0000
  S   S503      1.0  0.70094  0.89599  0.99684  1.0000
  H   H2926     1.0  0.56121  0.74354  0.12193  1.0000
  C   C3636     1.0  0.60650  0.77103  0.08305  1.0000
  C   C3637     1.0  0.62048  0.78029  0.08839  1.0000
  C   C3638     1.0  0.64095  0.77353  0.08303  1.0000
  C   C3639     1.0  0.64742  0.75764  0.07215  1.0000
  C   C3640     1.0  0.63344  0.74896  0.06581  1.0000
  C   C3641     1.0  0.61289  0.75536  0.07188  1.0000
  P   P121      1.0  0.64169  0.72835  0.05189  1.0000
  C   C3642     1.0  0.62563  0.72928  0.03384  1.0000
  C   C3643     1.0  0.66625  0.72975  0.03704  1.0000
  C   C3644     1.0  0.67197  0.74851  0.02865  1.0000
  C   C3645     1.0  0.69114  0.74965  0.01762  1.0000
  C   C3646     1.0  0.70455  0.73209  0.01431  1.0000
  C   C3647     1.0  0.69867  0.71337  0.02182  1.0000
  C   C3648     1.0  0.67953  0.71218  0.03302  1.0000
  C   C3649     1.0  0.61658  0.74783  0.02430  1.0000
  C   C3650     1.0  0.60415  0.74856  0.01030  1.0000
  C   C3651     1.0  0.49997  0.65866  0.06397  1.0000
  H   H2927     1.0  0.53833  0.51263  0.26554  1.0000
  C   C3652     1.0  0.62272  0.71149  0.02858  1.0000
  C   C3653     1.0  0.64088  0.70593  0.07057  1.0000
  C   C3654     1.0  0.65760  0.69703  0.07985  1.0000
  C   C3655     1.0  0.65677  0.67976  0.09446  1.0000
  C   C3656     1.0  0.63915  0.67146  0.10009  1.0000
  C   C3657     1.0  0.62226  0.68062  0.09135  1.0000
  C   C3658     1.0  0.62302  0.69795  0.07687  1.0000
  H   H2928     1.0  0.59069  0.77641  0.08720  1.0000
  H   H2929     1.0  0.61540  0.79290  0.09642  1.0000
  H   H2930     1.0  0.54969  0.85587  0.00988  1.0000
  H   H2931     1.0  0.66335  0.75239  0.06852  1.0000
  H   H2932     1.0  0.60178  0.74838  0.06788  1.0000
  H   H2933     1.0  0.66180  0.76234  0.03087  1.0000
  H   H2934     1.0  0.69567  0.76421  0.01186  1.0000
  S   S504      1.0  0.49744  0.62266  0.16138  1.0000
  H   H2935     1.0  0.70904  0.69979  0.01904  1.0000
  H   H2936     1.0  0.67517  0.69757  0.03857  1.0000
  H   H2937     1.0  0.61894  0.76169  0.02785  1.0000
  C   C3659     1.0  0.64862  0.85813  0.99425  1.0000
  C   C3660     1.0  0.60332  0.97662  0.30561  1.0000
  C   C3661     1.0  0.50663  0.51658  0.26534  1.0000
  H   H2938     1.0  0.62991  0.69699  0.03535  1.0000
  H   H2939     1.0  0.67124  0.70347  0.07592  1.0000
  H   H2940     1.0  0.66978  0.67284  0.10147  1.0000
  H   H2941     1.0  0.63851  0.65807  0.11137  1.0000
  H   H2942     1.0  0.60844  0.67448  0.09591  1.0000
  H   H2943     1.0  0.60961  0.70512  0.07065  1.0000
  H   H2944     1.0  0.57878  0.51271  0.25677  1.0000
  S   S505      1.0  0.72046  0.95216  0.10195  1.0000
  C   C3662     1.0  0.52984  0.48624  0.25945  1.0000
  C   C3663     1.0  0.60080  0.73079  0.00564  1.0000
  H   H2945     1.0  0.66790  0.94175  0.18842  1.0000
  C   C3664     1.0  0.66665  0.58644  0.99456  1.0000
  C   C3665     1.0  0.65293  0.94516  0.99714  1.0000
  H   H2946     1.0  0.50366  0.53180  0.26847  1.0000
  Fe  Fe251     1.0  0.54454  0.60032  0.02658  1.0000
  S   S506      1.0  0.52719  0.79472  0.00428  1.0000
  C   C3666     1.0  0.49241  0.59602  0.99310  1.0000
  H   H2947     1.0  0.69088  0.49054  0.05564  1.0000
  H   H2948     1.0  0.51602  0.80639  0.29942  1.0000
  S   S507      1.0  0.51674  0.59088  0.02138  1.0000
  H   H2949     1.0  0.59785  0.73340  0.12124  1.0000
  H   H2950     1.0  0.61626  0.96890  0.07365  1.0000
  H   H2951     1.0  0.69975  0.89539  0.14007  1.0000
  H   H2952     1.0  0.52851  0.69643  0.20885  1.0000
  H   H2953     1.0  0.64488  0.51994  0.02130  1.0000
  H   H2954     1.0  0.70481  0.93158  0.18226  1.0000
  H   H2955     1.0  0.56331  0.97164  0.31468  1.0000
  C   C3667     1.0  0.49092  0.50787  0.26270  1.0000
  C   C3668     1.0  0.56832  0.63552  0.15210  1.0000
  H   H2956     1.0  0.54301  0.70003  0.17288  1.0000
  C   C3669     1.0  0.60039  0.96121  0.29636  1.0000
  C   C3670     1.0  0.62024  0.57599  0.08160  1.0000
  H   H2957     1.0  0.51304  0.95376  0.11433  1.0000
  H   H2958     1.0  0.63952  0.58951  0.09405  1.0000
  C   C3671     1.0  0.50100  0.58784  0.10306  1.0000
  C   C3672     1.0  0.56749  0.72789  0.12610  1.0000
  C   C3673     1.0  0.65739  0.60051  0.00706  1.0000
  C   C3674     1.0  0.56170  0.65062  0.13672  1.0000
  H   H2959     1.0  0.54680  0.69612  0.10115  1.0000
  H   H2960     1.0  0.51077  0.64102  0.20589  1.0000
  C   C3675     1.0  0.49509  0.60972  0.07188  1.0000
  C   C3676     1.0  0.51175  0.67684  0.99311  1.0000
  C   C3677     1.0  0.69861  0.54313  0.99639  1.0000
  H   H2961     1.0  0.58495  0.50820  0.13121  1.0000
  H   H2962     1.0  0.60283  0.96024  0.13801  1.0000
  C   C3678     1.0  0.64053  0.51027  0.03533  1.0000
  H   H2963     1.0  0.65392  0.84910  0.00756  1.0000
  H   H2964     1.0  0.67602  0.93411  0.11589  1.0000
  H   H2965     1.0  0.53259  0.63476  0.28515  1.0000
  H   H2966     1.0  0.52315  0.68622  0.99073  1.0000
  Fe  Fe252     1.0  0.51490  0.60144  0.23204  1.0000
  Fe  Fe253     1.0  0.71452  0.96800  0.12861  1.0000
  H   H2967     1.0  0.68410  0.91932  0.05672  1.0000
  H   H2968     1.0  0.70076  0.52097  0.02308  1.0000
  C   C3679     1.0  0.69720  0.52419  0.00801  1.0000
  H   H2969     1.0  0.59205  0.96211  0.05457  1.0000
  H   H2970     1.0  0.64882  0.93094  0.99649  1.0000
  H   H2971     1.0  0.52675  0.97184  0.31146  1.0000
  H   H2972     1.0  0.71329  0.96419  0.05727  1.0000
  H   H2973     1.0  0.59384  0.60017  0.12393  1.0000
  S   S508      1.0  0.49003  0.79508  0.10085  1.0000
  C   C3680     1.0  0.72209  0.93138  0.01556  1.0000
  C   C3681     1.0  0.55950  0.84702  0.99931  1.0000
  H   H2974     1.0  0.61853  0.88593  0.14760  1.0000
  C   C3682     1.0  0.61351  0.55829  0.08106  1.0000
  H   H2975     1.0  0.58345  0.90315  0.14842  1.0000
  H   H2976     1.0  0.63800  0.94350  0.13713  1.0000
  C   C3683     1.0  0.65462  0.97068  0.01622  1.0000
  H   H2977     1.0  0.57244  0.75082  0.28338  1.0000
  H   H2978     1.0  0.52720  0.67076  0.06054  1.0000
  C   C3684     1.0  0.50602  0.65534  0.29479  1.0000
  S   S509      1.0  0.71647  0.81165  0.04622  1.0000
  C   C3685     1.0  0.49851  0.64709  0.01101  1.0000
  H   H2979     1.0  0.53013  0.58930  0.16216  1.0000
  C   C3686     1.0  0.67472  0.93123  0.17823  1.0000
  H   H2980     1.0  0.51023  0.75672  0.31034  1.0000
  C   C3687     1.0  0.61801  0.56064  0.98878  1.0000
  C   C3688     1.0  0.49231  0.73444  0.98602  1.0000
  H   H2981     1.0  0.51494  0.52199  0.20272  1.0000
  Fe  Fe254     1.0  0.70913  0.84226  0.05538  1.0000
  C   C3689     1.0  0.51779  0.65388  0.19855  1.0000
  H   H2982     1.0  0.61406  0.58998  0.07298  1.0000
  H   H2983     1.0  0.59681  0.76292  0.00341  1.0000
  C   C3690     1.0  0.73762  0.88451  0.11159  1.0000
  H   H2984     1.0  0.51923  0.83370  0.01884  1.0000
  C   C3691     1.0  0.52535  0.49253  0.19459  1.0000
  C   C3692     1.0  0.73477  0.94454  0.03979  1.0000
  C   C3693     1.0  0.53682  0.51298  0.15589  1.0000
  H   H2985     1.0  0.49979  0.61401  0.05589  1.0000
  C   C3694     1.0  0.70442  0.91239  0.16116  1.0000
  H   H2986     1.0  0.65750  0.88070  0.10709  1.0000
  H   H2987     1.0  0.56270  0.65889  0.10449  1.0000
  C   C3695     1.0  0.51747  0.62418  0.12229  1.0000
  H   H2988     1.0  0.59589  0.76239  0.25334  1.0000
  P   P122      1.0  0.54678  0.67420  0.14229  1.0000
  C   C3696     1.0  0.70287  0.94136  0.02184  1.0000
  C   C3697     1.0  0.53220  0.69185  0.10667  1.0000
  H   H2989     1.0  0.61217  0.69756  0.13093  1.0000
  H   H2990     1.0  0.62093  0.70761  0.30561  1.0000
  C   C3698     1.0  0.52611  0.50580  0.26365  1.0000
  C   C3699     1.0  0.59619  0.70194  0.13106  1.0000
  C   C3700     1.0  0.72863  0.89236  0.09445  1.0000
  H   H2991     1.0  0.52562  0.64395  0.16992  1.0000
  H   H2992     1.0  0.64665  0.92821  0.17139  1.0000
  H   H2993     1.0  0.62831  0.53495  0.05111  1.0000
  H   H2994     1.0  0.51264  0.66675  0.22555  1.0000
  H   H2995     1.0  0.64477  0.59724  0.01864  1.0000
  C   C3701     1.0  0.63389  0.48795  0.11715  1.0000
  H   H2996     1.0  0.49097  0.75795  0.00314  1.0000
  H   H2997     1.0  0.51010  0.57556  0.11129  1.0000
  C   C3702     1.0  0.65751  0.49298  0.28650  1.0000
  H   H2998     1.0  0.55203  0.75969  0.98720  1.0000
  H   H2999     1.0  0.63752  0.87713  0.17661  1.0000
  H   H3000     1.0  0.71300  0.88583  0.07273  1.0000
  C   C3703     1.0  0.50206  0.84196  0.12139  1.0000
  H   H3001     1.0  0.59074  0.73127  0.99524  1.0000
  C   C3704     1.0  0.62489  0.50641  0.07053  1.0000
  C   C3705     1.0  0.52071  0.61366  0.98360  1.0000
  C   C3706     1.0  0.64211  0.55767  0.10494  1.0000
  C   C3707     1.0  0.50652  0.84515  0.01583  1.0000
  H   H3002     1.0  0.68727  0.94219  0.07955  1.0000
  C   C3708     1.0  0.62083  0.54012  0.09272  1.0000
  C   C3709     1.0  0.63537  0.53992  0.10451  1.0000
  P   P123      1.0  0.61166  0.51738  0.09229  1.0000
  C   C3710     1.0  0.58369  0.68737  0.13626  1.0000
  C   C3711     1.0  0.57949  0.62965  0.11208  1.0000
  H   H3003     1.0  0.64422  0.71948  0.27544  1.0000
  C   C3712     1.0  0.53541  0.67224  0.16856  1.0000
  C   C3713     1.0  0.57420  0.83145  0.00600  1.0000
  C   C3714     1.0  0.71188  0.98473  0.98471  1.0000
  S   S510      1.0  0.50188  0.57068  0.19574  1.0000
  H   H3004     1.0  0.51811  0.82080  0.10206  1.0000
  H   H3005     1.0  0.59003  0.87384  0.00817  1.0000
  C   C3715     1.0  0.58527  0.52415  0.09065  1.0000
  C   C3716     1.0  0.57302  0.53833  0.10184  1.0000
  C   C3717     1.0  0.55284  0.54443  0.09991  1.0000
  C   C3718     1.0  0.54469  0.53650  0.08677  1.0000
  C   C3719     1.0  0.55671  0.52226  0.07568  1.0000
  C   C3720     1.0  0.57693  0.51605  0.07762  1.0000
  H   H3006     1.0  0.65310  0.55747  0.11429  1.0000
  H   H3007     1.0  0.64134  0.52623  0.11364  1.0000
  H   H3008     1.0  0.53953  0.73036  0.30415  1.0000
  C   C3721     1.0  0.66243  0.98133  0.13463  1.0000
  H   H3009     1.0  0.68485  0.96132  0.04148  1.0000
  C   C3722     1.0  0.72691  0.85261  0.11309  1.0000
  C   C3723     1.0  0.63449  0.57571  0.09355  1.0000
  C   C3724     1.0  0.50643  0.59330  0.08231  1.0000
  H   H3010     1.0  0.56448  0.63751  0.16769  1.0000
  H   H3011     1.0  0.57914  0.54515  0.11170  1.0000
  H   H3012     1.0  0.54377  0.55584  0.10818  1.0000
  H   H3013     1.0  0.52917  0.54167  0.08490  1.0000
  S   S511      1.0  0.52471  0.61800  0.25317  1.0000
  C   C3725     1.0  0.69102  0.50957  0.00026  1.0000
  H   H3014     1.0  0.73452  0.98065  0.29275  1.0000
  C   C3726     1.0  0.55494  0.71340  0.13141  1.0000
  C   C3727     1.0  0.58806  0.74390  0.28192  1.0000
  C   C3728     1.0  0.55015  0.87004  0.12369  1.0000
  C   C3729     1.0  0.53884  0.88762  0.12984  1.0000
  C   C3730     1.0  0.54553  0.90597  0.12245  1.0000
  C   C3731     1.0  0.56329  0.90683  0.10863  1.0000
  C   C3732     1.0  0.57462  0.88924  0.10213  1.0000
  C   C3733     1.0  0.56799  0.87079  0.10997  1.0000
  P   P124      1.0  0.59768  0.89006  0.08424  1.0000
  C   C3734     1.0  0.60419  0.91487  0.08040  1.0000
  C   C3735     1.0  0.61745  0.87158  0.09415  1.0000
  C   C3736     1.0  0.61615  0.86496  0.11498  1.0000
  C   C3737     1.0  0.63130  0.85050  0.12266  1.0000
  C   C3738     1.0  0.64790  0.84261  0.10962  1.0000
  C   C3739     1.0  0.64941  0.84923  0.08894  1.0000
  C   C3740     1.0  0.63433  0.86371  0.08119  1.0000
  C   C3741     1.0  0.61760  0.91896  0.09134  1.0000
  C   C3742     1.0  0.62220  0.93831  0.08860  1.0000
  C   C3743     1.0  0.61311  0.95380  0.07525  1.0000
  C   C3744     1.0  0.59949  0.94994  0.06451  1.0000
  C   C3745     1.0  0.59502  0.93055  0.06705  1.0000
  C   C3746     1.0  0.59500  0.88500  0.06013  1.0000
  C   C3747     1.0  0.58015  0.87439  0.05849  1.0000
  C   C3748     1.0  0.57840  0.87046  0.03980  1.0000
  C   C3749     1.0  0.59138  0.87710  0.02256  1.0000
  C   C3750     1.0  0.60626  0.88761  0.02400  1.0000
  C   C3751     1.0  0.60810  0.89153  0.04269  1.0000
  H   H3015     1.0  0.54497  0.85582  0.12954  1.0000
  C   C3752     1.0  0.60264  0.48612  0.14989  1.0000
  H   H3016     1.0  0.53695  0.91958  0.12748  1.0000
  H   H3017     1.0  0.56805  0.92127  0.10330  1.0000
  H   H3018     1.0  0.57656  0.85696  0.10540  1.0000
  H   H3019     1.0  0.60343  0.87090  0.12533  1.0000
  H   H3020     1.0  0.63023  0.84545  0.13872  1.0000
  H   H3021     1.0  0.65981  0.83157  0.11547  1.0000
  H   H3022     1.0  0.66247  0.84320  0.07896  1.0000
  H   H3023     1.0  0.63593  0.86854  0.06511  1.0000
  H   H3024     1.0  0.62418  0.90736  0.10227  1.0000
  H   H3025     1.0  0.63245  0.94151  0.09717  1.0000
  C   C3753     1.0  0.58546  0.61445  0.12749  1.0000
  C   C3754     1.0  0.50960  0.63588  0.26764  1.0000
  H   H3026     1.0  0.58408  0.92790  0.05896  1.0000
  H   H3027     1.0  0.57000  0.86877  0.07151  1.0000
  H   H3028     1.0  0.56718  0.86181  0.03892  1.0000
  C   C3755     1.0  0.58813  0.72216  0.12573  1.0000
  H   H3029     1.0  0.58420  0.60545  0.15947  1.0000
  H   H3030     1.0  0.61988  0.89948  0.04356  1.0000
  H   H3031     1.0  0.59021  0.67178  0.14026  1.0000
  C   C3756     1.0  0.49539  0.98334  0.11286  1.0000
  H   H3032     1.0  0.51219  0.65933  0.30644  1.0000
  H   H3033     1.0  0.59740  0.80722  0.99822  1.0000
  C   C3757     1.0  0.61014  0.71226  0.01471  1.0000
  S   S512      1.0  0.73729  0.94644  0.14500  1.0000
  H   H3034     1.0  0.50492  0.64601  0.07495  1.0000
  H   H3035     1.0  0.72409  0.92212  0.00415  1.0000
  H   H3036     1.0  0.50633  0.84052  0.30860  1.0000
  H   H3037     1.0  0.66942  0.88861  0.07074  1.0000
  S   S513      1.0  0.73254  0.85512  0.03182  1.0000
  H   H3038     1.0  0.67826  0.97309  0.10643  1.0000
  C   C3758     1.0  0.71942  0.87998  0.08624  1.0000
  H   H3039     1.0  0.55527  0.53011  0.99497  1.0000
  H   H3040     1.0  0.60729  0.69847  0.01129  1.0000
  C   C3759     1.0  0.69554  0.92554  0.17472  1.0000
  C   C3760     1.0  0.58646  0.81956  0.99258  1.0000
  H   H3041     1.0  0.50843  0.73028  0.98481  1.0000
  H   H3042     1.0  0.52494  0.54001  0.16848  1.0000
  C   C3761     1.0  0.65165  0.84647  0.17585  1.0000
  C   C3762     1.0  0.66645  0.83334  0.16564  1.0000
  C   C3763     1.0  0.67843  0.84083  0.14797  1.0000
  C   C3764     1.0  0.67543  0.86136  0.14036  1.0000
  C   C3765     1.0  0.66000  0.87454  0.14999  1.0000
  C   C3766     1.0  0.64861  0.86704  0.16821  1.0000
  P   P125      1.0  0.65683  0.90122  0.14076  1.0000
  C   C3767     1.0  0.67164  0.91102  0.15415  1.0000
  C   C3768     1.0  0.66618  0.90657  0.11424  1.0000
  C   C3769     1.0  0.67443  0.92407  0.10620  1.0000
  C   C3770     1.0  0.68069  0.92879  0.08550  1.0000
  C   C3771     1.0  0.67876  0.91609  0.07269  1.0000
  C   C3772     1.0  0.67044  0.89874  0.08058  1.0000
  C   C3773     1.0  0.66406  0.89407  0.10125  1.0000
  C   C3774     1.0  0.69255  0.90528  0.15080  1.0000
  H   H3043     1.0  0.64626  0.48866  0.10474  1.0000
  C   C3775     1.0  0.66274  0.92379  0.16820  1.0000
  C   C3776     1.0  0.63091  0.91333  0.14311  1.0000
  C   C3777     1.0  0.61537  0.90210  0.14592  1.0000
  C   C3778     1.0  0.59548  0.91178  0.14616  1.0000
  C   C3779     1.0  0.59101  0.93272  0.14340  1.0000
  C   C3780     1.0  0.60638  0.94399  0.14034  1.0000
  C   C3781     1.0  0.62626  0.93440  0.14004  1.0000
  H   H3044     1.0  0.64272  0.84075  0.18985  1.0000
  H   H3045     1.0  0.66893  0.81742  0.17160  1.0000
  H   H3046     1.0  0.69025  0.83082  0.14018  1.0000
  H   H3047     1.0  0.68534  0.86689  0.12704  1.0000
  C   C3782     1.0  0.50746  0.94992  0.16302  1.0000
  C   C3783     1.0  0.54073  0.49199  0.15977  1.0000
  H   H3048     1.0  0.64770  0.97951  0.09064  1.0000
  H   H3049     1.0  0.72600  0.83739  0.12062  1.0000
  C   C3784     1.0  0.50954  0.60090  0.99778  1.0000
  H   H3050     1.0  0.60230  0.55894  0.07180  1.0000
  H   H3051     1.0  0.49377  0.79323  0.28314  1.0000
  H   H3052     1.0  0.50838  0.92129  0.15440  1.0000
  H   H3053     1.0  0.52488  0.88701  0.14035  1.0000
  H   H3054     1.0  0.51470  0.84947  0.12005  1.0000
  C   C3785     1.0  0.52779  0.68511  0.20022  1.0000
  C   C3786     1.0  0.60975  0.94142  0.30168  1.0000
  C   C3787     1.0  0.56301  0.69296  0.13603  1.0000
  H   H3055     1.0  0.72593  0.98280  0.16626  1.0000
  H   H3056     1.0  0.71950  0.73301  0.00592  1.0000
  C   C3788     1.0  0.73828  0.93324  0.02418  1.0000
  H   H3057     1.0  0.50644  0.63721  0.11851  1.0000
  C   C3789     1.0  0.69969  0.95346  0.03664  1.0000
  H   H3058     1.0  0.67459  0.87266  0.98516  1.0000
  C   C3790     1.0  0.50644  0.68985  0.04246  1.0000
  H   H3059     1.0  0.53898  0.71815  0.13148  1.0000
  C   C3791     1.0  0.71564  0.95495  0.04568  1.0000
  C   C3792     1.0  0.59500  0.72851  0.29687  1.0000
  H   H3060     1.0  0.49974  0.63342  0.02190  1.0000
  C   C3793     1.0  0.62854  0.72632  0.27725  1.0000
  H   H3061     1.0  0.59082  0.96460  0.28492  1.0000
  C   C3794     1.0  0.62242  0.93686  0.31608  1.0000
  H   H3062     1.0  0.72943  0.90767  0.08713  1.0000
  H   H3063     1.0  0.65126  0.97608  0.03044  1.0000
  H   H3064     1.0  0.55047  0.51637  0.06524  1.0000
  C   C3795     1.0  0.61532  0.71968  0.29437  1.0000
  H   H3065     1.0  0.59130  0.69220  0.28890  1.0000
  C   C3796     1.0  0.51260  0.67289  0.05607  1.0000
  H   H3066     1.0  0.58803  0.57513  0.98500  1.0000
  H   H3067     1.0  0.63182  0.74685  0.24923  1.0000
  C   C3797     1.0  0.49814  0.96251  0.11426  1.0000
  H   H3068     1.0  0.64791  0.54394  0.98858  1.0000
  C   C3798     1.0  0.55481  0.98533  0.30798  1.0000
  H   H3069     1.0  0.65679  0.62977  0.01400  1.0000
  H   H3070     1.0  0.69055  0.93954  0.01514  1.0000
  C   C3799     1.0  0.63110  0.51874  0.05238  1.0000
  H   H3071     1.0  0.51629  0.70082  0.03636  1.0000
  C   C3800     1.0  0.53310  0.98545  0.30645  1.0000
  C   C3801     1.0  0.49179  0.98404  0.24112  1.0000
  H   H3072     1.0  0.49514  0.98345  0.27157  1.0000
  C   C3802     1.0  0.57132  0.67070  0.29664  1.0000
  H   H3073     1.0  0.71687  0.49928  0.22853  1.0000
  H   H3074     1.0  0.68535  0.63732  0.98705  1.0000
  C   C3803     1.0  0.50245  0.85048  0.99623  1.0000
  C   C3804     1.0  0.63041  0.85617  0.98951  1.0000
  S   S514      1.0  0.68387  0.97737  0.14624  1.0000
  H   H3075     1.0  0.73879  0.95836  0.19432  1.0000
  H   H3076     1.0  0.52124  0.70607  0.07926  1.0000
  C   C3805     1.0  0.49665  0.83486  0.30121  1.0000
  C   C3806     1.0  0.51772  0.69740  0.09410  1.0000
  C   C3807     1.0  0.73685  0.86457  0.12069  1.0000
  C   C3808     1.0  0.49522  0.96599  0.17137  1.0000
  H   H3077     1.0  0.50178  0.97797  0.17407  1.0000
  H   H3078     1.0  0.53321  0.56319  0.99070  1.0000
  H   H3079     1.0  0.49440  0.90333  0.98348  1.0000
  C   C3809     1.0  0.49452  0.68050  0.11978  1.0000
  C   C3810     1.0  0.49885  0.69178  0.10066  1.0000
  C   C3811     1.0  0.66383  0.97818  0.11488  1.0000
  Fe  Fe255     1.0  0.54064  0.98109  0.14541  1.0000
  C   C3812     1.0  0.49453  0.48832  0.25818  1.0000
  H   H3080     1.0  0.56733  0.78952  0.98487  1.0000
  H   H3081     1.0  0.50157  0.60116  0.30534  1.0000
  H   H3082     1.0  0.73749  0.48968  0.19690  1.0000
  H   H3083     1.0  0.50781  0.98229  0.23564  1.0000
  H   H3084     1.0  0.55228  0.97942  0.23362  1.0000
  H   H3085     1.0  0.51218  0.84293  0.98465  1.0000
  C   C3813     1.0  0.49008  0.64460  0.26460  1.0000
  H   H3086     1.0  0.67383  0.78338  0.98441  1.0000
  C   C3814     1.0  0.49379  0.85377  0.03146  1.0000
  H   H3087     1.0  0.49668  0.84909  0.04678  1.0000
  C   C3815     1.0  0.49423  0.80058  0.98608  1.0000
  C   C3816     1.0  0.55485  0.66418  0.30986  1.0000
  C   C3817     1.0  0.56914  0.69791  0.31516  1.0000
  C   C3818     1.0  0.56108  0.78666  0.53038  1.0000
  S   S515      1.0  0.50201  0.71139  0.63927  1.0000
  H   H3088     1.0  0.53276  0.66942  0.33606  1.0000
  C   C3819     1.0  0.59114  0.71314  0.34024  1.0000
  H   H3089     1.0  0.50148  0.96458  0.37851  1.0000
  Fe  Fe256     1.0  0.50953  0.70828  0.60648  1.0000
  S   S516      1.0  0.54191  0.69927  0.59293  1.0000
  H   H3090     1.0  0.49643  0.90880  0.45027  1.0000
  C   C3820     1.0  0.65192  0.87345  0.52333  1.0000
  S   S517      1.0  0.52887  0.68314  0.38120  1.0000
  H   H3091     1.0  0.52945  0.83115  0.60040  1.0000
  Fe  Fe257     1.0  0.58406  0.71815  0.47747  1.0000
  S   S518      1.0  0.60167  0.70275  0.45187  1.0000
  S   S519      1.0  0.55784  0.70636  0.49821  1.0000
  Fe  Fe258     1.0  0.60263  0.75628  0.46270  1.0000
  S   S520      1.0  0.62140  0.74419  0.43582  1.0000
  S   S521      1.0  0.59803  0.78753  0.47046  1.0000
  Fe  Fe259     1.0  0.59397  0.73268  0.43264  1.0000
  S   S522      1.0  0.58067  0.73951  0.40391  1.0000
  Fe  Fe260     1.0  0.62761  0.71520  0.45746  1.0000
  S   S523      1.0  0.66040  0.70075  0.45751  1.0000
  S   S524      1.0  0.57490  0.74710  0.45784  1.0000
  S   S525      1.0  0.61029  0.72831  0.48467  1.0000
  S   S526      1.0  0.57398  0.86024  0.64920  1.0000
  C   C3821     1.0  0.49880  0.80026  0.64706  1.0000
  H   H3092     1.0  0.65345  0.80077  0.51876  1.0000
  H   H3093     1.0  0.49879  0.92828  0.38523  1.0000
  C   C3822     1.0  0.51169  0.65908  0.51944  1.0000
  S   S527      1.0  0.69875  0.60796  0.47299  1.0000
  C   C3823     1.0  0.50864  0.71489  0.42913  1.0000
  H   H3094     1.0  0.49799  0.91858  0.33726  1.0000
  H   H3095     1.0  0.50200  0.70619  0.42158  1.0000
  C   C3824     1.0  0.50522  0.90294  0.43718  1.0000
  H   H3096     1.0  0.69342  0.49238  0.44004  1.0000
  H   H3097     1.0  0.73726  0.54282  0.43274  1.0000
  Fe  Fe261     1.0  0.66163  0.87292  0.43746  1.0000
  S   S528      1.0  0.67375  0.89013  0.40773  1.0000
  S   S529      1.0  0.66829  0.83900  0.44199  1.0000
  Fe  Fe262     1.0  0.64377  0.91071  0.45479  1.0000
  S   S530      1.0  0.65450  0.93108  0.42676  1.0000
  S   S531      1.0  0.62431  0.92355  0.48107  1.0000
  Fe  Fe263     1.0  0.64410  0.91073  0.41074  1.0000
  S   S532      1.0  0.62758  0.92091  0.38412  1.0000
  Fe  Fe264     1.0  0.68337  0.90902  0.42603  1.0000
  S   S533      1.0  0.63112  0.89180  0.43894  1.0000
  S   S534      1.0  0.67349  0.89032  0.45568  1.0000
  Fe  Fe265     1.0  0.55451  0.88717  0.63486  1.0000
  S   S535      1.0  0.56494  0.90814  0.60665  1.0000
  H   H3098     1.0  0.52382  0.75931  0.62684  1.0000
  H   H3099     1.0  0.52096  0.97488  0.62711  1.0000
  S   S536      1.0  0.53129  0.86940  0.63258  1.0000
  H   H3100     1.0  0.50719  0.91333  0.64292  1.0000
  H   H3101     1.0  0.59548  0.90448  0.33521  1.0000
  H   H3102     1.0  0.60134  0.76770  0.57610  1.0000
  H   H3103     1.0  0.52535  0.64894  0.49166  1.0000
  C   C3825     1.0  0.55136  0.93266  0.35225  1.0000
  C   C3826     1.0  0.72367  0.50350  0.47732  1.0000
  C   C3827     1.0  0.56768  0.92520  0.33868  1.0000
  C   C3828     1.0  0.50810  0.67892  0.48653  1.0000
  C   C3829     1.0  0.49950  0.67457  0.52866  1.0000
  C   C3830     1.0  0.72955  0.95950  0.54736  1.0000
  H   H3104     1.0  0.55663  0.86532  0.54622  1.0000
  C   C3831     1.0  0.61104  0.94402  0.38347  1.0000
  C   C3832     1.0  0.59753  0.94916  0.36976  1.0000
  C   C3833     1.0  0.58410  0.96742  0.36897  1.0000
  H   H3105     1.0  0.71679  0.96076  0.42501  1.0000
  C   C3834     1.0  0.61150  0.70363  0.37335  1.0000
  C   C3835     1.0  0.61132  0.95747  0.39615  1.0000
  H   H3106     1.0  0.59745  0.93898  0.35974  1.0000
  H   H3107     1.0  0.62165  0.95370  0.40676  1.0000
  C   C3836     1.0  0.59958  0.95765  0.60946  1.0000
  C   C3837     1.0  0.59273  0.94508  0.62715  1.0000
  C   C3838     1.0  0.58214  0.92982  0.62647  1.0000
  C   C3839     1.0  0.57812  0.92720  0.60810  1.0000
  C   C3840     1.0  0.58478  0.93996  0.59045  1.0000
  C   C3841     1.0  0.59562  0.95502  0.59109  1.0000
  C   C3842     1.0  0.55252  0.69133  0.32825  1.0000
  C   C3843     1.0  0.58926  0.69539  0.35412  1.0000
  H   H3108     1.0  0.58163  0.93825  0.57618  1.0000
  H   H3109     1.0  0.60073  0.96471  0.57740  1.0000
  C   C3844     1.0  0.63720  0.93792  0.49087  1.0000
  C   C3845     1.0  0.62692  0.95005  0.50506  1.0000
  C   C3846     1.0  0.63728  0.96160  0.51286  1.0000
  C   C3847     1.0  0.65794  0.96083  0.50657  1.0000
  C   C3848     1.0  0.66817  0.94850  0.49261  1.0000
  C   C3849     1.0  0.65782  0.93723  0.48462  1.0000
  H   H3110     1.0  0.61097  0.95051  0.51001  1.0000
  H   H3111     1.0  0.72417  0.88129  0.43701  1.0000
  H   H3112     1.0  0.66584  0.92801  0.47361  1.0000
  H   H3113     1.0  0.58060  0.95521  0.45005  1.0000
  H   H3114     1.0  0.63442  0.78635  0.49967  1.0000
  H   H3115     1.0  0.71613  0.49639  0.34378  1.0000
  S   S537      1.0  0.61199  0.97721  0.61103  1.0000
  H   H3116     1.0  0.64892  0.93830  0.54794  1.0000
  H   H3117     1.0  0.71181  0.60905  0.61600  1.0000
  S   S538      1.0  0.55517  0.81342  0.63799  1.0000
  H   H3118     1.0  0.65977  0.50876  0.38242  1.0000
  H   H3119     1.0  0.71503  0.93681  0.46333  1.0000
  H   H3120     1.0  0.49653  0.67311  0.54492  1.0000
  H   H3121     1.0  0.49127  0.74685  0.47380  1.0000
  S   S539      1.0  0.71216  0.92213  0.41675  1.0000
  C   C3850     1.0  0.67067  0.67485  0.46185  1.0000
  C   C3851     1.0  0.69146  0.66923  0.46166  1.0000
  C   C3852     1.0  0.70036  0.64884  0.46492  1.0000
  C   C3853     1.0  0.68849  0.63385  0.46845  1.0000
  C   C3854     1.0  0.66768  0.63947  0.46879  1.0000
  C   C3855     1.0  0.65878  0.65987  0.46555  1.0000
  H   H3122     1.0  0.70076  0.68075  0.45877  1.0000
  H   H3123     1.0  0.71637  0.64469  0.46452  1.0000
  H   H3124     1.0  0.65839  0.62796  0.47156  1.0000
  H   H3125     1.0  0.64278  0.66398  0.46582  1.0000
  C   C3856     1.0  0.61763  0.80169  0.46239  1.0000
  C   C3857     1.0  0.61405  0.82194  0.46478  1.0000
  C   C3858     1.0  0.62937  0.83365  0.45826  1.0000
  C   C3859     1.0  0.64850  0.82501  0.44979  1.0000
  C   C3860     1.0  0.65215  0.80466  0.44781  1.0000
  C   C3861     1.0  0.63672  0.79306  0.45391  1.0000
  H   H3126     1.0  0.59930  0.82867  0.47136  1.0000
  H   H3127     1.0  0.62643  0.84930  0.45990  1.0000
  H   H3128     1.0  0.66693  0.79788  0.44131  1.0000
  H   H3129     1.0  0.63964  0.77743  0.45210  1.0000
  C   C3862     1.0  0.54218  0.69933  0.38830  1.0000
  C   C3863     1.0  0.55468  0.69162  0.40281  1.0000
  C   C3864     1.0  0.56592  0.70398  0.40841  1.0000
  C   C3865     1.0  0.56515  0.72402  0.39908  1.0000
  C   C3866     1.0  0.55252  0.73175  0.38470  1.0000
  C   C3867     1.0  0.54097  0.71952  0.37937  1.0000
  H   H3130     1.0  0.55583  0.67596  0.40957  1.0000
  H   H3131     1.0  0.57576  0.69785  0.41935  1.0000
  H   H3132     1.0  0.55161  0.74733  0.37780  1.0000
  H   H3133     1.0  0.53135  0.72565  0.36820  1.0000
  C   C3868     1.0  0.54619  0.70305  0.56648  1.0000
  C   C3869     1.0  0.53096  0.70215  0.55618  1.0000
  C   C3870     1.0  0.53491  0.70342  0.53524  1.0000
  C   C3871     1.0  0.55381  0.70613  0.52434  1.0000
  C   C3872     1.0  0.56884  0.70809  0.53448  1.0000
  C   C3873     1.0  0.56509  0.70630  0.55560  1.0000
  H   H3134     1.0  0.51631  0.69983  0.56442  1.0000
  H   H3135     1.0  0.52325  0.70241  0.52735  1.0000
  H   H3136     1.0  0.58335  0.71061  0.52615  1.0000
  H   H3137     1.0  0.57681  0.70730  0.56354  1.0000
  H   H3138     1.0  0.72008  0.52484  0.41492  1.0000
  H   H3139     1.0  0.68414  0.94786  0.48775  1.0000
  C   C3874     1.0  0.53756  0.78326  0.63160  1.0000
  C   C3875     1.0  0.52130  0.77348  0.63218  1.0000
  C   C3876     1.0  0.64195  0.92616  0.55737  1.0000
  H   H3140     1.0  0.55623  0.98063  0.61855  1.0000
  C   C3877     1.0  0.73622  0.52360  0.41171  1.0000
  H   H3141     1.0  0.68597  0.52534  0.45094  1.0000
  C   C3878     1.0  0.54548  0.67449  0.32569  1.0000
  H   H3142     1.0  0.59566  0.94710  0.64144  1.0000
  H   H3143     1.0  0.64431  0.93514  0.58501  1.0000
  C   C3879     1.0  0.70700  0.97701  0.45006  1.0000
  H   H3144     1.0  0.53962  0.94419  0.34685  1.0000
  C   C3880     1.0  0.72757  0.87235  0.38862  1.0000
  H   H3145     1.0  0.54513  0.69915  0.34061  1.0000
  C   C3881     1.0  0.70096  0.49354  0.34942  1.0000
  H   H3146     1.0  0.62931  0.97107  0.52368  1.0000
  P   P126      1.0  0.61533  0.88066  0.54962  1.0000
  C   C3882     1.0  0.63241  0.86912  0.52994  1.0000
  C   C3883     1.0  0.60827  0.86025  0.56909  1.0000
  C   C3884     1.0  0.62321  0.84427  0.57494  1.0000
  C   C3885     1.0  0.62610  0.95217  0.32476  1.0000
  C   C3886     1.0  0.58857  0.86071  0.57958  1.0000
  C   C3887     1.0  0.62584  0.85558  0.52086  1.0000
  C   C3888     1.0  0.63818  0.84732  0.50480  1.0000
  C   C3889     1.0  0.60358  0.72590  0.34300  1.0000
  C   C3890     1.0  0.59402  0.89635  0.53966  1.0000
  C   C3891     1.0  0.59226  0.89856  0.51930  1.0000
  C   C3892     1.0  0.57611  0.91161  0.51183  1.0000
  C   C3893     1.0  0.56169  0.92264  0.52455  1.0000
  C   C3894     1.0  0.56353  0.92078  0.54472  1.0000
  C   C3895     1.0  0.57975  0.90788  0.55210  1.0000
  H   H3147     1.0  0.63862  0.84393  0.56750  1.0000
  H   H3148     1.0  0.57676  0.87300  0.57603  1.0000
  H   H3149     1.0  0.61093  0.85184  0.52586  1.0000
  H   H3150     1.0  0.50659  0.74023  0.40519  1.0000
  H   H3151     1.0  0.73704  0.95254  0.58477  1.0000
  H   H3152     1.0  0.60364  0.89100  0.50884  1.0000
  H   H3153     1.0  0.57522  0.91361  0.49599  1.0000
  H   H3154     1.0  0.54939  0.93298  0.51867  1.0000
  H   H3155     1.0  0.55268  0.92958  0.55465  1.0000
  H   H3156     1.0  0.58141  0.90704  0.56752  1.0000
  C   C3896     1.0  0.71037  0.93997  0.53512  1.0000
  H   H3157     1.0  0.63011  0.81678  0.59548  1.0000
  C   C3897     1.0  0.49199  0.67424  0.45158  1.0000
  H   H3158     1.0  0.57363  0.97109  0.35848  1.0000
  H   H3159     1.0  0.61524  0.88429  0.59181  1.0000
  P   P127      1.0  0.73204  0.97459  0.45550  1.0000
  P   P128      1.0  0.51279  0.68130  0.45944  1.0000
  H   H3160     1.0  0.50658  0.81400  0.56487  1.0000
  C   C3898     1.0  0.53636  0.66522  0.45275  1.0000
  C   C3899     1.0  0.53688  0.64625  0.44783  1.0000
  C   C3900     1.0  0.55524  0.63393  0.44287  1.0000
  C   C3901     1.0  0.57319  0.64025  0.44320  1.0000
  C   C3902     1.0  0.57279  0.65880  0.44870  1.0000
  C   C3903     1.0  0.55447  0.67119  0.45358  1.0000
  C   C3904     1.0  0.73660  0.65339  0.50212  1.0000
  C   C3905     1.0  0.51517  0.70681  0.44762  1.0000
  C   C3906     1.0  0.72208  0.89010  0.37565  1.0000
  C   C3907     1.0  0.51127  0.73431  0.41966  1.0000
  C   C3908     1.0  0.52076  0.74573  0.42831  1.0000
  C   C3909     1.0  0.52736  0.73782  0.44661  1.0000
  C   C3910     1.0  0.52452  0.71849  0.45630  1.0000
  H   H3161     1.0  0.72980  0.66027  0.48894  1.0000
  H   H3162     1.0  0.68282  0.96234  0.41812  1.0000
  Fe  Fe266     1.0  0.54920  0.84314  0.64949  1.0000
  C   C3911     1.0  0.66920  0.50049  0.37118  1.0000
  H   H3163     1.0  0.49393  0.79458  0.59779  1.0000
  H   H3164     1.0  0.52319  0.64086  0.44784  1.0000
  H   H3165     1.0  0.55554  0.61950  0.43869  1.0000
  H   H3166     1.0  0.58741  0.63079  0.43918  1.0000
  H   H3167     1.0  0.58669  0.66374  0.44897  1.0000
  H   H3168     1.0  0.55459  0.68546  0.45785  1.0000
  C   C3912     1.0  0.48956  0.74715  0.48971  1.0000
  H   H3169     1.0  0.59851  0.73913  0.60381  1.0000
  H   H3170     1.0  0.73234  0.50707  0.48729  1.0000
  C   C3913     1.0  0.73526  0.61517  0.59096  1.0000
  H   H3171     1.0  0.52352  0.76046  0.42054  1.0000
  H   H3172     1.0  0.53502  0.74658  0.45307  1.0000
  H   H3173     1.0  0.53000  0.71252  0.47036  1.0000
  H   H3174     1.0  0.56676  0.72518  0.61416  1.0000
  C   C3914     1.0  0.54757  0.81390  0.57837  1.0000
  C   C3915     1.0  0.73278  0.65148  0.60445  1.0000
  S   S540      1.0  0.66335  0.97504  0.57341  1.0000
  C   C3916     1.0  0.63488  0.91275  0.54868  1.0000
  H   H3175     1.0  0.53777  0.74040  0.59710  1.0000
  C   C3917     1.0  0.50187  0.78193  0.63999  1.0000
  S   S541      1.0  0.49414  0.73930  0.59557  1.0000
  H   H3176     1.0  0.62954  0.92152  0.32045  1.0000
  C   C3918     1.0  0.49164  0.69223  0.51690  1.0000
  H   H3177     1.0  0.62077  0.98349  0.32575  1.0000
  H   H3178     1.0  0.70642  0.89593  0.37499  1.0000
  C   C3919     1.0  0.62594  0.89692  0.56085  1.0000
  H   H3179     1.0  0.57287  0.83390  0.53344  1.0000
  Fe  Fe267     1.0  0.73103  0.59229  0.47417  1.0000
  C   C3920     1.0  0.73638  0.88955  0.43524  1.0000
  C   C3921     1.0  0.52855  0.97688  0.63876  1.0000
  C   C3922     1.0  0.54158  0.85026  0.57386  1.0000
  C   C3923     1.0  0.71155  0.95709  0.54253  1.0000
  C   C3924     1.0  0.69748  0.51384  0.45686  1.0000
  C   C3925     1.0  0.51595  0.66119  0.49846  1.0000
  S   S542      1.0  0.73489  0.49987  0.38435  1.0000
  C   C3926     1.0  0.49444  0.82110  0.57507  1.0000
  C   C3927     1.0  0.53851  0.83174  0.58553  1.0000
  H   H3180     1.0  0.50427  0.95234  0.33900  1.0000
  H   H3181     1.0  0.65326  0.97900  0.43934  1.0000
  H   H3182     1.0  0.56946  0.75279  0.34256  1.0000
  C   C3928     1.0  0.72152  0.61966  0.60801  1.0000
  S   S543      1.0  0.50052  0.71235  0.33428  1.0000
  C   C3929     1.0  0.56342  0.76692  0.52655  1.0000
  H   H3183     1.0  0.56106  0.96780  0.42207  1.0000
  C   C3930     1.0  0.49018  0.93186  0.32890  1.0000
  C   C3931     1.0  0.50668  0.74551  0.49841  1.0000
  C   C3932     1.0  0.49248  0.92132  0.64780  1.0000
  H   H3184     1.0  0.62737  0.90816  0.60670  1.0000
  C   C3933     1.0  0.61849  0.82891  0.59082  1.0000
  C   C3934     1.0  0.70172  0.49500  0.45081  1.0000
  H   H3185     1.0  0.73179  0.66556  0.60965  1.0000
  C   C3935     1.0  0.49579  0.69438  0.49592  1.0000
  H   H3186     1.0  0.72645  0.91219  0.52622  1.0000
  C   C3936     1.0  0.56592  0.95180  0.42629  1.0000
  H   H3187     1.0  0.59762  0.67717  0.38140  1.0000
  H   H3188     1.0  0.73587  0.60109  0.58596  1.0000
  H   H3189     1.0  0.57138  0.75443  0.53572  1.0000
  C   C3937     1.0  0.55610  0.76317  0.51034  1.0000
  H   H3190     1.0  0.62239  0.73155  0.36219  1.0000
  H   H3191     1.0  0.73789  0.50288  0.56197  1.0000
  C   C3938     1.0  0.68878  0.50408  0.36398  1.0000
  H   H3192     1.0  0.51011  0.78066  0.33289  1.0000
  C   C3939     1.0  0.54837  0.98028  0.63389  1.0000
  H   H3193     1.0  0.55842  0.74801  0.50715  1.0000
  H   H3194     1.0  0.53686  0.81098  0.49148  1.0000
  C   C3940     1.0  0.55388  0.85095  0.55505  1.0000
  C   C3941     1.0  0.49611  0.89424  0.42539  1.0000
  C   C3942     1.0  0.66825  0.97895  0.44198  1.0000
  C   C3943     1.0  0.50744  0.88666  0.40852  1.0000
  H   H3195     1.0  0.66672  0.84604  0.48517  1.0000
  H   H3196     1.0  0.70515  0.53272  0.47468  1.0000
  H   H3197     1.0  0.65767  0.88339  0.53026  1.0000
  C   C3944     1.0  0.65734  0.85215  0.49793  1.0000
  C   C3945     1.0  0.73427  0.90968  0.42600  1.0000
  H   H3198     1.0  0.51808  0.74462  0.52563  1.0000
  H   H3199     1.0  0.49147  0.84969  0.55548  1.0000
  C   C3946     1.0  0.53447  0.80154  0.63881  1.0000
  H   H3200     1.0  0.54955  0.81785  0.52004  1.0000
  H   H3201     1.0  0.51802  0.64549  0.52857  1.0000
  H   H3202     1.0  0.71734  0.97396  0.49842  1.0000
  C   C3947     1.0  0.55121  0.80250  0.51777  1.0000
  H   H3203     1.0  0.53485  0.86403  0.57968  1.0000
  C   C3948     1.0  0.63008  0.90902  0.59050  1.0000
  C   C3949     1.0  0.54009  0.76837  0.33868  1.0000
  C   C3950     1.0  0.66427  0.86506  0.50731  1.0000
  H   H3204     1.0  0.72787  0.90234  0.47789  1.0000
  H   H3205     1.0  0.50835  0.66880  0.42228  1.0000
  H   H3206     1.0  0.71613  0.86440  0.39810  1.0000
  H   H3207     1.0  0.57966  0.68529  0.35273  1.0000
  C   C3951     1.0  0.72729  0.92522  0.53243  1.0000
  H   H3208     1.0  0.59515  0.81783  0.61370  1.0000
  C   C3952     1.0  0.66184  0.48624  0.36394  1.0000
  C   C3953     1.0  0.60990  0.67773  0.59222  1.0000
  C   C3954     1.0  0.59176  0.67072  0.59480  1.0000
  C   C3955     1.0  0.58759  0.66182  0.57986  1.0000
  C   C3956     1.0  0.60146  0.66005  0.56223  1.0000
  C   C3957     1.0  0.61968  0.66726  0.55938  1.0000
  C   C3958     1.0  0.62381  0.67604  0.57458  1.0000
  P   P129      1.0  0.63664  0.66746  0.53561  1.0000
  C   C3959     1.0  0.66069  0.65158  0.53809  1.0000
  C   C3960     1.0  0.62531  0.65841  0.51830  1.0000
  C   C3961     1.0  0.62943  0.63795  0.51649  1.0000
  C   C3962     1.0  0.61985  0.63078  0.50390  1.0000
  C   C3963     1.0  0.60567  0.64382  0.49348  1.0000
  C   C3964     1.0  0.60115  0.66406  0.49558  1.0000
  C   C3965     1.0  0.61106  0.67139  0.50776  1.0000
  C   C3966     1.0  0.67348  0.64571  0.52089  1.0000
  C   C3967     1.0  0.69163  0.63273  0.52254  1.0000
  C   C3968     1.0  0.69737  0.62565  0.54136  1.0000
  C   C3969     1.0  0.68489  0.63149  0.55858  1.0000
  C   C3970     1.0  0.66655  0.64428  0.55700  1.0000
  C   C3971     1.0  0.64016  0.69317  0.52573  1.0000
  C   C3972     1.0  0.65621  0.69732  0.51034  1.0000
  C   C3973     1.0  0.65913  0.71712  0.50294  1.0000
  C   C3974     1.0  0.64612  0.73300  0.51084  1.0000
  C   C3975     1.0  0.62994  0.72911  0.52597  1.0000
  C   C3976     1.0  0.62680  0.70933  0.53320  1.0000
  H   H3209     1.0  0.61294  0.68488  0.60372  1.0000
  H   H3210     1.0  0.58062  0.67261  0.60813  1.0000
  H   H3211     1.0  0.57322  0.65698  0.58168  1.0000
  H   H3212     1.0  0.59752  0.65362  0.55071  1.0000
  H   H3213     1.0  0.63750  0.68218  0.57249  1.0000
  H   H3214     1.0  0.63994  0.62744  0.52482  1.0000
  H   H3215     1.0  0.62339  0.61508  0.50230  1.0000
  H   H3216     1.0  0.59809  0.63825  0.48389  1.0000
  H   H3217     1.0  0.58982  0.67405  0.48789  1.0000
  H   H3218     1.0  0.60733  0.68709  0.50920  1.0000
  H   H3219     1.0  0.66920  0.65073  0.50617  1.0000
  H   H3220     1.0  0.70113  0.62794  0.50918  1.0000
  H   H3221     1.0  0.71141  0.61550  0.54254  1.0000
  H   H3222     1.0  0.68928  0.62583  0.57320  1.0000
  H   H3223     1.0  0.65696  0.64807  0.57059  1.0000
  H   H3224     1.0  0.66623  0.68544  0.50353  1.0000
  H   H3225     1.0  0.67113  0.72015  0.49054  1.0000
  H   H3226     1.0  0.64818  0.74833  0.50468  1.0000
  H   H3227     1.0  0.61945  0.74147  0.53161  1.0000
  H   H3228     1.0  0.61372  0.70683  0.54436  1.0000
  C   C3977     1.0  0.59884  0.82947  0.60110  1.0000
  H   H3229     1.0  0.60179  0.80763  0.56490  1.0000
  H   H3230     1.0  0.67910  0.86889  0.50186  1.0000
  C   C3978     1.0  0.52563  0.90432  0.43193  1.0000
  C   C3979     1.0  0.53697  0.89718  0.41467  1.0000
  C   C3980     1.0  0.52775  0.88819  0.40311  1.0000
  P   P130      1.0  0.56293  0.90008  0.40666  1.0000
  C   C3981     1.0  0.56867  0.91764  0.42030  1.0000
  C   C3982     1.0  0.57946  0.87621  0.41101  1.0000
  C   C3983     1.0  0.60024  0.87574  0.40858  1.0000
  C   C3984     1.0  0.61322  0.85749  0.41193  1.0000
  C   C3985     1.0  0.60557  0.83954  0.41775  1.0000
  C   C3986     1.0  0.58491  0.83983  0.42051  1.0000
  C   C3987     1.0  0.57186  0.85808  0.41714  1.0000
  C   C3988     1.0  0.56204  0.93837  0.41529  1.0000
  S   S544      1.0  0.73494  0.55908  0.47378  1.0000
  H   H3231     1.0  0.54518  0.79983  0.58797  1.0000
  C   C3989     1.0  0.58332  0.92418  0.44730  1.0000
  C   C3990     1.0  0.57896  0.91064  0.43672  1.0000
  C   C3991     1.0  0.56534  0.91033  0.38007  1.0000
  C   C3992     1.0  0.58169  0.90290  0.36628  1.0000
  H   H3232     1.0  0.59974  0.78175  0.51313  1.0000
  H   H3233     1.0  0.49970  0.94998  0.63245  1.0000
  C   C3993     1.0  0.59955  0.69061  0.37048  1.0000
  C   C3994     1.0  0.55010  0.92518  0.37282  1.0000
  C   C3995     1.0  0.58394  0.84537  0.59551  1.0000
  C   C3996     1.0  0.54643  0.77904  0.49780  1.0000
  H   H3234     1.0  0.55258  0.77657  0.62567  1.0000
  H   H3235     1.0  0.53239  0.91121  0.44117  1.0000
  H   H3236     1.0  0.53621  0.88262  0.38972  1.0000
  H   H3237     1.0  0.60641  0.88953  0.40417  1.0000
  H   H3238     1.0  0.62923  0.85727  0.41024  1.0000
  H   H3239     1.0  0.61565  0.82540  0.42046  1.0000
  H   H3240     1.0  0.57909  0.82584  0.42543  1.0000
  H   H3241     1.0  0.55595  0.85788  0.41949  1.0000
  H   H3242     1.0  0.55409  0.94434  0.40280  1.0000
  H   H3243     1.0  0.54134  0.77615  0.48487  1.0000
  C   C3997     1.0  0.49361  0.95090  0.32999  1.0000
  H   H3244     1.0  0.59206  0.91876  0.45936  1.0000
  H   H3245     1.0  0.58392  0.89476  0.44130  1.0000
  H   H3246     1.0  0.59372  0.89153  0.37124  1.0000
  H   H3247     1.0  0.57704  0.92012  0.64017  1.0000
  C   C3998     1.0  0.54392  0.79867  0.50155  1.0000
  C   C3999     1.0  0.56308  0.83312  0.54789  1.0000
  H   H3248     1.0  0.53712  0.93094  0.38302  1.0000
  H   H3249     1.0  0.56863  0.93101  0.32274  1.0000
  H   H3250     1.0  0.56885  0.84600  0.60392  1.0000
  C   C4000     1.0  0.68486  0.96952  0.43009  1.0000
  Fe  Fe268     1.0  0.50173  0.69621  0.36603  1.0000
  C   C4001     1.0  0.72030  0.63778  0.61477  1.0000
  H   H3251     1.0  0.73026  0.97315  0.55263  1.0000
  C   C4002     1.0  0.70415  0.96860  0.43406  1.0000
  H   H3252     1.0  0.63610  0.91490  0.53248  1.0000
  H   H3253     1.0  0.63281  0.83737  0.49747  1.0000
  C   C4003     1.0  0.57685  0.94475  0.44207  1.0000
  H   H3254     1.0  0.52149  0.74360  0.48942  1.0000
  H   H3255     1.0  0.71658  0.67242  0.52137  1.0000
  C   C4004     1.0  0.50482  0.74601  0.51890  1.0000
  C   C4005     1.0  0.58277  0.91026  0.34568  1.0000
  C   C4006     1.0  0.62324  0.89543  0.58189  1.0000
  H   H3256     1.0  0.63706  0.81142  0.55131  1.0000
  H   H3257     1.0  0.61871  0.70037  0.38655  1.0000
  H   H3258     1.0  0.54015  0.76892  0.56935  1.0000
  C   C4007     1.0  0.63951  0.92432  0.57826  1.0000
  H   H3259     1.0  0.73187  0.65690  0.55137  1.0000
  C   C4008     1.0  0.72920  0.66025  0.52040  1.0000
  H   H3260     1.0  0.73597  0.64613  0.38972  1.0000
  C   C4009     1.0  0.70839  0.51805  0.47015  1.0000
  H   H3261     1.0  0.69464  0.51494  0.36971  1.0000
  C   C4010     1.0  0.51500  0.81008  0.64642  1.0000
  H   H3262     1.0  0.69639  0.93835  0.53113  1.0000
  C   C4011     1.0  0.55163  0.74639  0.59238  1.0000
  C   C4012     1.0  0.56802  0.73784  0.60206  1.0000
  C   C4013     1.0  0.58589  0.74563  0.59611  1.0000
  C   C4014     1.0  0.58741  0.76188  0.58037  1.0000
  C   C4015     1.0  0.57102  0.77035  0.57040  1.0000
  C   C4016     1.0  0.55307  0.76254  0.57663  1.0000
  P   P131      1.0  0.57234  0.79148  0.55021  1.0000
  C   C4017     1.0  0.55984  0.81443  0.55940  1.0000
  C   C4018     1.0  0.59814  0.79415  0.54024  1.0000
  C   C4019     1.0  0.60886  0.80270  0.55078  1.0000
  C   C4020     1.0  0.62882  0.80485  0.54316  1.0000
  C   C4021     1.0  0.63810  0.79879  0.52485  1.0000
  C   C4022     1.0  0.62743  0.79058  0.51414  1.0000
  C   C4023     1.0  0.60759  0.78813  0.52183  1.0000
  C   C4024     1.0  0.73675  0.90067  0.36385  1.0000
  C   C4025     1.0  0.72899  0.93392  0.46913  1.0000
  H   H3263     1.0  0.72429  0.49051  0.53109  1.0000
  H   H3264     1.0  0.73672  0.95724  0.61913  1.0000
  H   H3265     1.0  0.63598  0.94861  0.33592  1.0000
  C   C4026     1.0  0.61352  0.72125  0.35961  1.0000
  H   H3266     1.0  0.73217  0.91459  0.35416  1.0000
  C   C4027     1.0  0.61688  0.97200  0.31934  1.0000
  H   H3267     1.0  0.69860  0.96878  0.54410  1.0000
  C   C4028     1.0  0.73620  0.91423  0.47752  1.0000
  H   H3268     1.0  0.73762  0.96246  0.38606  1.0000
  C   C4029     1.0  0.59818  0.97591  0.39512  1.0000
  H   H3269     1.0  0.54004  0.77885  0.34855  1.0000
  C   C4030     1.0  0.58436  0.98080  0.38173  1.0000
  H   H3270     1.0  0.70966  0.64122  0.62800  1.0000
  S   S545      1.0  0.67154  0.97534  0.51532  1.0000
  C   C4031     1.0  0.49415  0.66899  0.43243  1.0000
  H   H3271     1.0  0.50032  0.88007  0.39929  1.0000
  H   H3272     1.0  0.60526  0.73969  0.33258  1.0000
  H   H3273     1.0  0.57379  0.98491  0.64511  1.0000
  C   C4032     1.0  0.55678  0.75343  0.33528  1.0000
  C   C4033     1.0  0.73793  0.65131  0.53743  1.0000
  P   P132      1.0  0.57801  0.71967  0.31889  1.0000
  C   C4034     1.0  0.55663  0.73921  0.32325  1.0000
  C   C4035     1.0  0.55826  0.98267  0.64890  1.0000
  C   C4036     1.0  0.52329  0.76946  0.32980  1.0000
  C   C4037     1.0  0.52334  0.75590  0.31714  1.0000
  C   C4038     1.0  0.51551  0.67156  0.76180  1.0000
  H   H3274     1.0  0.59204  0.57845  0.90515  1.0000
  H   H3275     1.0  0.53479  0.83204  0.92505  1.0000
  H   H3276     1.0  0.55653  0.98272  0.68038  1.0000
  Fe  Fe269     1.0  0.66343  0.96731  0.87311  1.0000
  S   S546      1.0  0.63260  0.96794  0.86546  1.0000
  C   C4039     1.0  0.53518  0.95760  0.71394  1.0000
  S   S547      1.0  0.67046  0.95757  0.90446  1.0000
  Fe  Fe270     1.0  0.57122  0.89533  0.84093  1.0000
  S   S548      1.0  0.55283  0.87028  0.84783  1.0000
  S   S549      1.0  0.60084  0.89127  0.85242  1.0000
  Fe  Fe271     1.0  0.53975  0.92428  0.81994  1.0000
  S   S550      1.0  0.51883  0.90221  0.82520  1.0000
  S   S551      1.0  0.52965  0.95532  0.80433  1.0000
  Fe  Fe272     1.0  0.52673  0.89399  0.85607  1.0000
  S   S552      1.0  0.50255  0.89258  0.88342  1.0000
  Fe  Fe273     1.0  0.54639  0.88050  0.81608  1.0000
  S   S553      1.0  0.54041  0.86002  0.79666  1.0000
  S   S554      1.0  0.54547  0.91813  0.85168  1.0000
  S   S555      1.0  0.56704  0.90344  0.80834  1.0000
  H   H3277     1.0  0.52570  0.60266  0.74533  1.0000
  S   S556      1.0  0.53332  0.84890  0.68025  1.0000
  C   C4040     1.0  0.69392  0.54755  0.97686  1.0000
  H   H3278     1.0  0.50088  0.66321  0.69885  1.0000
  Fe  Fe274     1.0  0.55641  0.86845  0.67866  1.0000
  S   S557      1.0  0.57281  0.87288  0.70260  1.0000
  H   H3279     1.0  0.49365  0.54874  0.66424  1.0000
  Fe  Fe275     1.0  0.66223  0.50480  0.87548  1.0000
  C   C4041     1.0  0.49376  0.85485  0.73425  1.0000
  S   S558      1.0  0.65400  0.50845  0.84448  1.0000
  Fe  Fe276     1.0  0.64629  0.51809  0.91646  1.0000
  S   S559      1.0  0.67477  0.50468  0.92860  1.0000
  S   S560      1.0  0.61763  0.53387  0.93292  1.0000
  Fe  Fe277     1.0  0.69052  0.51719  0.89828  1.0000
  S   S561      1.0  0.71808  0.53202  0.89248  1.0000
  C   C4042     1.0  0.73498  0.97483  0.77377  1.0000
  P   P133      1.0  0.49420  0.70444  0.96345  1.0000
  S   S562      1.0  0.66198  0.53306  0.88723  1.0000
  C   C4043     1.0  0.49476  0.67337  0.76245  1.0000
  H   H3280     1.0  0.53417  0.60370  0.70843  1.0000
  P   P134      1.0  0.62786  0.89552  0.93628  1.0000
  H   H3281     1.0  0.70439  0.94009  0.93163  1.0000
  C   C4044     1.0  0.72593  0.51859  0.93110  1.0000
  Fe  Fe278     1.0  0.68360  0.98583  0.89966  1.0000
  H   H3282     1.0  0.51243  0.82417  0.65198  1.0000
  C   C4045     1.0  0.49963  0.98165  0.88238  1.0000
  H   H3283     1.0  0.71212  0.51265  0.93423  1.0000
  H   H3284     1.0  0.68544  0.90560  0.88158  1.0000
  H   H3285     1.0  0.57480  0.92163  0.74321  1.0000
  C   C4046     1.0  0.61825  0.54390  0.95445  1.0000
  C   C4047     1.0  0.63505  0.53921  0.96407  1.0000
  H   H3286     1.0  0.53262  0.67797  0.95392  1.0000
  H   H3287     1.0  0.64810  0.52918  0.95830  1.0000
  H   H3288     1.0  0.49801  0.95111  0.89650  1.0000
  C   C4048     1.0  0.49729  0.70766  0.72254  1.0000
  C   C4049     1.0  0.66885  0.97382  0.98080  1.0000
  C   C4050     1.0  0.52046  0.61605  0.73527  1.0000
  H   H3289     1.0  0.52184  0.85747  0.94723  1.0000
  C   C4051     1.0  0.73212  0.98388  0.97618  1.0000
  H   H3290     1.0  0.57485  0.59001  0.93697  1.0000
  C   C4052     1.0  0.67613  0.89504  0.89061  1.0000
  H   H3291     1.0  0.71742  0.96668  0.80279  1.0000
  C   C4053     1.0  0.64960  0.77297  0.97602  1.0000
  C   C4054     1.0  0.65995  0.78766  0.97832  1.0000
  H   H3292     1.0  0.50670  0.85671  0.86568  1.0000
  C   C4055     1.0  0.50746  0.96543  0.81882  1.0000
  H   H3293     1.0  0.50901  0.74136  0.94303  1.0000
  C   C4056     1.0  0.73541  0.56714  0.96160  1.0000
  C   C4057     1.0  0.71212  0.90895  0.92814  1.0000
  C   C4058     1.0  0.49723  0.98439  0.81191  1.0000
  H   H3294     1.0  0.58835  0.56047  0.95489  1.0000
  C   C4059     1.0  0.72767  0.96198  0.74616  1.0000
  C   C4060     1.0  0.51854  0.63391  0.70153  1.0000
  H   H3295     1.0  0.49885  0.90143  0.74539  1.0000
  C   C4061     1.0  0.63490  0.54754  0.98122  1.0000
  C   C4062     1.0  0.54882  0.86451  0.77041  1.0000
  C   C4063     1.0  0.54069  0.85581  0.75769  1.0000
  C   C4064     1.0  0.54740  0.85881  0.73676  1.0000
  C   C4065     1.0  0.56285  0.86989  0.72854  1.0000
  C   C4066     1.0  0.57126  0.87821  0.74134  1.0000
  C   C4067     1.0  0.56400  0.87591  0.76212  1.0000
  H   H3296     1.0  0.52942  0.84645  0.76410  1.0000
  H   H3297     1.0  0.54126  0.85194  0.72705  1.0000
  H   H3298     1.0  0.58362  0.88626  0.73516  1.0000
  H   H3299     1.0  0.57065  0.88234  0.77179  1.0000
  C   C4068     1.0  0.62421  0.94630  0.86204  1.0000
  C   C4069     1.0  0.60481  0.94824  0.85769  1.0000
  C   C4070     1.0  0.59759  0.93156  0.85459  1.0000
  C   C4071     1.0  0.60960  0.91260  0.85614  1.0000
  C   C4072     1.0  0.62891  0.91052  0.86089  1.0000
  C   C4073     1.0  0.63625  0.92734  0.86365  1.0000
  H   H3300     1.0  0.59538  0.96276  0.85643  1.0000
  H   H3301     1.0  0.58276  0.93344  0.85088  1.0000
  H   H3302     1.0  0.63837  0.89593  0.86210  1.0000
  H   H3303     1.0  0.65128  0.92571  0.86678  1.0000
  C   C4074     1.0  0.49582  0.68204  0.98212  1.0000
  C   C4075     1.0  0.56060  0.50840  0.73998  1.0000
  C   C4076     1.0  0.54086  0.51465  0.74928  1.0000
  C   C4077     1.0  0.53104  0.50128  0.76414  1.0000
  H   H3304     1.0  0.64847  0.49073  0.70446  1.0000
  C   C4078     1.0  0.52306  0.67296  0.77882  1.0000
  H   H3305     1.0  0.56822  0.51883  0.72861  1.0000
  C   C4079     1.0  0.70643  0.92469  0.93928  1.0000
  H   H3306     1.0  0.50761  0.94000  0.84280  1.0000
  H   H3307     1.0  0.67653  0.98193  0.96724  1.0000
  C   C4080     1.0  0.51486  0.62146  0.96484  1.0000
  C   C4081     1.0  0.51161  0.84901  0.94391  1.0000
  H   H3308     1.0  0.50452  0.58718  0.86566  1.0000
  H   H3309     1.0  0.50467  0.79718  0.97277  1.0000
  H   H3310     1.0  0.66590  0.95027  0.96573  1.0000
  P   P135      1.0  0.54931  0.57433  0.91653  1.0000
  H   H3311     1.0  0.64422  0.50362  0.80709  1.0000
  H   H3312     1.0  0.60913  0.96461  0.79775  1.0000
  C   C4082     1.0  0.64058  0.50190  0.73255  1.0000
  C   C4083     1.0  0.68647  0.51381  0.98080  1.0000
  S   S563      1.0  0.71454  0.97213  0.88684  1.0000
  H   H3313     1.0  0.62537  0.50836  0.73024  1.0000
  C   C4084     1.0  0.50606  0.82366  0.92669  1.0000
  C   C4085     1.0  0.56137  0.92823  0.71639  1.0000
  H   H3314     1.0  0.52215  0.63428  0.68542  1.0000
  C   C4086     1.0  0.65823  0.58199  0.94678  1.0000
  H   H3315     1.0  0.51387  0.94659  0.77182  1.0000
  C   C4087     1.0  0.68936  0.60908  0.97655  1.0000
  H   H3316     1.0  0.59308  0.48758  0.82028  1.0000
  C   C4088     1.0  0.52865  0.97755  0.67394  1.0000
  C   C4089     1.0  0.72254  0.59151  0.93467  1.0000
  H   H3317     1.0  0.54543  0.86263  0.97406  1.0000
  C   C4090     1.0  0.53946  0.56745  0.95833  1.0000
  H   H3318     1.0  0.57032  0.91538  0.71012  1.0000
  H   H3319     1.0  0.69840  0.51511  0.74359  1.0000
  H   H3320     1.0  0.68435  0.53555  0.95411  1.0000
  C   C4091     1.0  0.55004  0.55947  0.94127  1.0000
  C   C4092     1.0  0.50108  0.64971  0.73019  1.0000
  C   C4093     1.0  0.57862  0.96711  0.81315  1.0000
  H   H3321     1.0  0.52173  0.92401  0.74619  1.0000
  H   H3322     1.0  0.70161  0.61280  0.96478  1.0000
  C   C4094     1.0  0.62451  0.92228  0.93586  1.0000
  C   C4095     1.0  0.62753  0.93023  0.95213  1.0000
  C   C4096     1.0  0.62462  0.95106  0.95137  1.0000
  C   C4097     1.0  0.61867  0.96403  0.93447  1.0000
  C   C4098     1.0  0.61526  0.95622  0.91844  1.0000
  C   C4099     1.0  0.61815  0.93545  0.91910  1.0000
  C   C4100     1.0  0.54088  0.96862  0.87290  1.0000
  C   C4101     1.0  0.70605  0.90061  0.97042  1.0000
  C   C4102     1.0  0.60424  0.89123  0.93171  1.0000
  C   C4103     1.0  0.60257  0.88662  0.91315  1.0000
  C   C4104     1.0  0.58389  0.88493  0.90922  1.0000
  C   C4105     1.0  0.56673  0.88798  0.92362  1.0000
  C   C4106     1.0  0.56817  0.89299  0.94195  1.0000
  C   C4107     1.0  0.58682  0.89474  0.94594  1.0000
  C   C4108     1.0  0.71200  0.88489  0.95928  1.0000
  C   C4109     1.0  0.50864  0.57102  0.92227  1.0000
  C   C4110     1.0  0.63406  0.81362  0.96582  1.0000
  H   H3323     1.0  0.61071  0.96624  0.90528  1.0000
  H   H3324     1.0  0.61571  0.92969  0.90636  1.0000
  H   H3325     1.0  0.60979  0.86559  0.96859  1.0000
  H   H3326     1.0  0.51305  0.93102  0.96768  1.0000
  H   H3327     1.0  0.58270  0.88176  0.89470  1.0000
  H   H3328     1.0  0.55228  0.88690  0.92032  1.0000
  H   H3329     1.0  0.55477  0.89594  0.95287  1.0000
  H   H3330     1.0  0.58764  0.89925  0.95994  1.0000
  P   P136      1.0  0.69395  0.57258  0.96258  1.0000
  H   H3331     1.0  0.49208  0.98483  0.73719  1.0000
  H   H3332     1.0  0.51141  0.93203  0.70278  1.0000
  H   H3333     1.0  0.65554  0.75723  0.98029  1.0000
  C   C4111     1.0  0.70890  0.95448  0.77972  1.0000
  C   C4112     1.0  0.53815  0.96127  0.73247  1.0000
  C   C4113     1.0  0.63524  0.88139  0.95952  1.0000
  H   H3334     1.0  0.52863  0.61477  0.90059  1.0000
  S   S564      1.0  0.50025  0.56996  0.75789  1.0000
  C   C4114     1.0  0.55240  0.94834  0.74295  1.0000
  C   C4115     1.0  0.52540  0.61670  0.71449  1.0000
  H   H3335     1.0  0.55228  0.54408  0.89094  1.0000
  C   C4116     1.0  0.50779  0.96163  0.88853  1.0000
  H   H3336     1.0  0.50690  0.73578  0.70815  1.0000
  H   H3337     1.0  0.49941  0.61301  0.66470  1.0000
  C   C4117     1.0  0.67616  0.57012  0.90991  1.0000
  C   C4118     1.0  0.65544  0.57639  0.91385  1.0000
  C   C4119     1.0  0.53995  0.61644  0.90870  1.0000
  H   H3338     1.0  0.49623  0.88864  0.92499  1.0000
  C   C4120     1.0  0.67908  0.57569  0.94295  1.0000
  C   C4121     1.0  0.68791  0.56953  0.92447  1.0000
  C   C4122     1.0  0.57042  0.75066  0.96023  1.0000
  H   H3339     1.0  0.59040  0.50126  0.92741  1.0000
  C   C4123     1.0  0.56387  0.76317  0.97475  1.0000
  C   C4124     1.0  0.56217  0.54047  0.94381  1.0000
  H   H3340     1.0  0.50614  0.70570  0.73433  1.0000
  C   C4125     1.0  0.65366  0.49200  0.71797  1.0000
  C   C4126     1.0  0.53462  0.69337  0.94800  1.0000
  C   C4127     1.0  0.68266  0.59062  0.97914  1.0000
  H   H3341     1.0  0.54922  0.97263  0.83031  1.0000
  C   C4128     1.0  0.49988  0.89774  0.93446  1.0000
  C   C4129     1.0  0.54172  0.63584  0.91057  1.0000
  H   H3342     1.0  0.68314  0.56520  0.89575  1.0000
  H   H3343     1.0  0.64627  0.57622  0.90280  1.0000
  C   C4130     1.0  0.50946  0.92163  0.95841  1.0000
  C   C4131     1.0  0.64649  0.58234  0.93227  1.0000
  H   H3344     1.0  0.70381  0.56378  0.92144  1.0000
  C   C4132     1.0  0.64680  0.50262  0.75050  1.0000
  Fe  Fe279     1.0  0.49015  0.53989  0.76728  1.0000
  C   C4133     1.0  0.72010  0.96549  0.78693  1.0000
  C   C4134     1.0  0.51062  0.91329  0.92562  1.0000
  H   H3345     1.0  0.57788  0.62418  0.94014  1.0000
  C   C4135     1.0  0.49779  0.61657  0.96014  1.0000
  C   C4136     1.0  0.54845  0.98136  0.66885  1.0000
  H   H3346     1.0  0.53017  0.58214  0.95672  1.0000
  C   C4137     1.0  0.61914  0.83745  0.89963  1.0000
  C   C4138     1.0  0.60262  0.84022  0.88987  1.0000
  C   C4139     1.0  0.58537  0.83252  0.89980  1.0000
  C   C4140     1.0  0.58461  0.82212  0.91952  1.0000
  C   C4141     1.0  0.60106  0.81947  0.92957  1.0000
  C   C4142     1.0  0.61843  0.82709  0.91938  1.0000
  P   P137      1.0  0.59928  0.80678  0.95542  1.0000
  C   C4143     1.0  0.50356  0.93677  0.77137  1.0000
  C   C4144     1.0  0.58417  0.82321  0.97224  1.0000
  C   C4145     1.0  0.73232  0.52868  0.91190  1.0000
  C   C4146     1.0  0.66865  0.86127  0.89985  1.0000
  C   C4147     1.0  0.68038  0.87497  0.88796  1.0000
  H   H3347     1.0  0.53909  0.67143  0.77826  1.0000
  C   C4148     1.0  0.56943  0.83903  0.96560  1.0000
  H   H3348     1.0  0.52367  0.93743  0.93063  1.0000
  C   C4149     1.0  0.71277  0.95261  0.75937  1.0000
  H   H3349     1.0  0.66011  0.81926  0.97545  1.0000
  C   C4150     1.0  0.66274  0.95591  0.97987  1.0000
  H   H3350     1.0  0.71410  0.86952  0.96687  1.0000
  C   C4151     1.0  0.58777  0.78496  0.95727  1.0000
  C   C4152     1.0  0.59421  0.77241  0.94263  1.0000
  C   C4153     1.0  0.58559  0.75529  0.94416  1.0000
  C   C4154     1.0  0.49882  0.90592  0.96732  1.0000
  C   C4155     1.0  0.56571  0.60265  0.92930  1.0000
  C   C4156     1.0  0.65218  0.80796  0.97322  1.0000
  H   H3351     1.0  0.63249  0.84340  0.89175  1.0000
  H   H3352     1.0  0.60318  0.84839  0.87460  1.0000
  H   H3353     1.0  0.57261  0.83467  0.89212  1.0000
  H   H3354     1.0  0.57114  0.81619  0.92698  1.0000
  H   H3355     1.0  0.63152  0.82491  0.92643  1.0000
  H   H3356     1.0  0.62368  0.76689  0.96719  1.0000
  C   C4157     1.0  0.50006  0.95479  0.83745  1.0000
  C   C4158     1.0  0.59752  0.97282  0.80756  1.0000
  H   H3357     1.0  0.52585  0.66891  0.74815  1.0000
  H   H3358     1.0  0.56711  0.84215  0.95014  1.0000
  C   C4159     1.0  0.71916  0.57706  0.95199  1.0000
  S   S565      1.0  0.50661  0.50859  0.77667  1.0000
  H   H3359     1.0  0.73218  0.50870  0.96132  1.0000
  H   H3360     1.0  0.73346  0.55576  0.97479  1.0000
  C   C4160     1.0  0.62359  0.79901  0.96329  1.0000
  H   H3361     1.0  0.60599  0.77578  0.93013  1.0000
  H   H3362     1.0  0.59071  0.74557  0.93292  1.0000
  C   C4161     1.0  0.65262  0.86770  0.91433  1.0000
  H   H3363     1.0  0.52354  0.63135  0.95399  1.0000
  C   C4162     1.0  0.55202  0.59963  0.91798  1.0000
  C   C4163     1.0  0.51862  0.70929  0.95062  1.0000
  H   H3364     1.0  0.57057  0.71976  0.92072  1.0000
  H   H3365     1.0  0.55433  0.95100  0.75744  1.0000
  C   C4164     1.0  0.55611  0.71686  0.92907  1.0000
  C   C4165     1.0  0.54010  0.73273  0.93117  1.0000
  C   C4166     1.0  0.52139  0.72896  0.94185  1.0000
  H   H3366     1.0  0.65753  0.91706  0.90707  1.0000
  C   C4167     1.0  0.52844  0.95516  0.88391  1.0000
  H   H3367     1.0  0.51167  0.81268  0.91674  1.0000
  H   H3368     1.0  0.54550  0.93803  0.69147  1.0000
  H   H3369     1.0  0.49516  0.85465  0.82863  1.0000
  C   C4168     1.0  0.50997  0.67610  0.79663  1.0000
  C   C4169     1.0  0.60136  0.55683  0.96217  1.0000
  H   H3370     1.0  0.62710  0.95721  0.96381  1.0000
  C   C4170     1.0  0.70969  0.50776  0.75276  1.0000
  C   C4171     1.0  0.51866  0.97555  0.65869  1.0000
  H   H3371     1.0  0.70434  0.94371  0.75390  1.0000
  H   H3372     1.0  0.64385  0.85692  0.92371  1.0000
  H   H3373     1.0  0.54210  0.74795  0.92439  1.0000
  C   C4172     1.0  0.56748  0.62207  0.93111  1.0000
  Fe  Fe280     1.0  0.70418  0.98107  0.85688  1.0000
  H   H3374     1.0  0.71375  0.53558  0.76000  1.0000
  H   H3375     1.0  0.50771  0.84431  0.73365  1.0000
  S   S566      1.0  0.49167  0.62560  0.93607  1.0000
  C   C4173     1.0  0.49405  0.89377  0.95535  1.0000
  C   C4174     1.0  0.73737  0.51627  0.94640  1.0000
  H   H3376     1.0  0.63640  0.50969  0.76207  1.0000
  C   C4175     1.0  0.68805  0.53264  0.96909  1.0000
  H   H3377     1.0  0.67050  0.49374  0.76809  1.0000
  C   C4176     1.0  0.58306  0.53842  0.87694  1.0000
  C   C4177     1.0  0.60223  0.54310  0.87489  1.0000
  C   C4178     1.0  0.60523  0.55774  0.88492  1.0000
  C   C4179     1.0  0.58912  0.56774  0.89700  1.0000
  C   C4180     1.0  0.56974  0.56331  0.89900  1.0000
  C   C4181     1.0  0.56690  0.54834  0.88908  1.0000
  H   H3378     1.0  0.53335  0.52984  0.74508  1.0000
  C   C4182     1.0  0.52415  0.58098  0.88784  1.0000
  H   H3379     1.0  0.56574  0.68488  0.93581  1.0000
  H   H3380     1.0  0.63036  0.58661  0.93558  1.0000
  C   C4183     1.0  0.57255  0.78020  0.97333  1.0000
  H   H3381     1.0  0.61545  0.88494  0.90136  1.0000
  H   H3382     1.0  0.58080  0.52695  0.86927  1.0000
  H   H3383     1.0  0.61486  0.53522  0.86574  1.0000
  H   H3384     1.0  0.62019  0.56095  0.88378  1.0000
  C   C4184     1.0  0.71515  0.88907  0.93817  1.0000
  C   C4185     1.0  0.56379  0.97729  0.82626  1.0000
  H   H3385     1.0  0.53700  0.58475  0.87686  1.0000
  C   C4186     1.0  0.49692  0.94158  0.70339  1.0000
  C   C4187     1.0  0.66616  0.49361  0.75381  1.0000
  S   S567      1.0  0.64434  0.49092  0.90388  1.0000
  H   H3386     1.0  0.69294  0.87005  0.87685  1.0000
  H   H3387     1.0  0.57419  0.51575  0.96495  1.0000
  C   C4188     1.0  0.50795  0.92416  0.75692  1.0000
  H   H3388     1.0  0.73088  0.95988  0.73059  1.0000
  H   H3389     1.0  0.67217  0.84564  0.89797  1.0000
  C   C4189     1.0  0.50581  0.58241  0.88142  1.0000
  C   C4190     1.0  0.56394  0.93178  0.73496  1.0000
  H   H3390     1.0  0.56377  0.73737  0.96155  1.0000
  H   H3391     1.0  0.57542  0.95466  0.80748  1.0000
  C   C4191     1.0  0.66028  0.87145  0.98162  1.0000
  C   C4192     1.0  0.60119  0.56518  0.97924  1.0000
  S   S568      1.0  0.53863  0.89658  0.66406  1.0000
  C   C4193     1.0  0.50635  0.65033  0.70929  1.0000
  H   H3392     1.0  0.71023  0.59959  0.92713  1.0000
  H   H3393     1.0  0.55685  0.96335  0.86942  1.0000
  H   H3394     1.0  0.66331  0.89279  0.95434  1.0000
  C   C4194     1.0  0.70365  0.92050  0.96037  1.0000
  C   C4195     1.0  0.64738  0.48884  0.81588  1.0000
  H   H3395     1.0  0.71125  0.49383  0.70303  1.0000
  C   C4196     1.0  0.63150  0.77859  0.96852  1.0000
  H   H3396     1.0  0.69742  0.94719  0.78999  1.0000
  H   H3397     1.0  0.53187  0.64863  0.90388  1.0000
  H   H3398     1.0  0.65081  0.58604  0.96116  1.0000
  H   H3399     1.0  0.49280  0.67003  0.94460  1.0000
  C   C4197     1.0  0.49040  0.57227  0.91576  1.0000
  H   H3400     1.0  0.55660  0.65370  0.92337  1.0000
  C   C4198     1.0  0.65331  0.48681  0.83471  1.0000
  C   C4199     1.0  0.54713  0.94109  0.70589  1.0000
  S   S569      1.0  0.69299  0.95223  0.85809  1.0000
  C   C4200     1.0  0.55337  0.69720  0.93751  1.0000
  P   P138      1.0  0.51687  0.97413  0.70004  1.0000
  C   C4201     1.0  0.71850  0.51945  0.76189  1.0000
  C   C4202     1.0  0.51543  0.92528  0.93756  1.0000
  H   H3401     1.0  0.57108  0.53424  0.93102  1.0000
  H   H3402     1.0  0.52953  0.97394  0.73906  1.0000
  C   C4203     1.0  0.66016  0.90152  0.90510  1.0000
  H   H3403     1.0  0.60967  0.50045  0.84282  1.0000
  C   C4204     1.0  0.52572  0.57526  0.90834  1.0000
  Fe  Fe281     1.0  0.70080  0.94467  0.88933  1.0000
  C   C4205     1.0  0.64809  0.88792  0.91687  1.0000
  H   H3404     1.0  0.69977  0.93267  0.96894  1.0000
  C   C4206     1.0  0.54114  0.55674  0.97760  1.0000
  C   C4207     1.0  0.49306  0.85773  0.87661  1.0000
  C   C4208     1.0  0.57057  0.48883  0.74555  1.0000
  H   H3405     1.0  0.53485  0.93964  0.88844  1.0000
  H   H3406     1.0  0.50915  0.56712  0.93819  1.0000
  C   C4209     1.0  0.51904  0.83457  0.93139  1.0000
  S   S570      1.0  0.69202  0.49005  0.88419  1.0000
  H   H3407     1.0  0.71968  0.87687  0.92959  1.0000
  C   C4210     1.0  0.50839  0.63246  0.74311  1.0000
  H   H3408     1.0  0.49574  0.86231  0.76256  1.0000
  H   H3409     1.0  0.62808  0.82938  0.96222  1.0000
  C   C4211     1.0  0.62368  0.86776  0.97220  1.0000
  C   C4212     1.0  0.73331  0.51034  0.77357  1.0000
  S   S571      1.0  0.71571  0.91386  0.90174  1.0000
  H   H3410     1.0  0.63215  0.92053  0.96537  1.0000
  C   C4213     1.0  0.55712  0.85082  0.97912  1.0000
  C   C4214     1.0  0.65375  0.88290  0.96423  1.0000
  C   C4215     1.0  0.56393  0.52984  0.96312  1.0000
  C   C4216     1.0  0.55553  0.63867  0.92168  1.0000
  C   C4217     1.0  0.49498  0.96242  0.70261  1.0000
  H   H3411     1.0  0.55161  0.49012  0.95890  1.0000
  H   H3412     1.0  0.51513  0.91590  0.90943  1.0000
  H   H3413     1.0  0.50341  0.97255  0.66207  1.0000
  C   C4218     1.0  0.55347  0.53801  0.98001  1.0000
  H   H3414     1.0  0.51582  0.67697  0.80989  1.0000
  H   H3415     1.0  0.61688  0.98015  0.93367  1.0000
  C   C4219     1.0  0.49775  0.72482  0.70772  1.0000
  Fe  Fe282     1.0  0.51710  0.87643  0.66303  1.0000
  H   H3416     1.0  0.68151  0.50261  0.97475  1.0000
  H   H3417     1.0  0.50452  0.63149  0.75931  1.0000
  C   C4220     1.0  0.49491  0.91114  0.75664  1.0000
  C   C4221     1.0  0.73847  0.97368  0.75316  1.0000
  C   C4222     1.0  0.49103  0.85281  0.95167  1.0000
  H   H3418     1.0  0.49070  0.88176  0.80015  1.0000
  H   H3419     1.0  0.72795  0.48653  0.90368  1.0000
  C   C4223     1.0  0.71535  0.48678  0.75566  1.0000
  Fe  Fe283     1.0  0.81816  0.20741  0.01342  1.0000
  C   C4224     1.0  0.75576  0.08631  0.07647  1.0000
  S   S572      1.0  0.78938  0.19650  0.01082  1.0000
  Fe  Fe284     1.0  0.84817  0.20520  0.04186  1.0000
  S   S573      1.0  0.86284  0.22981  0.02211  1.0000
  S   S574      1.0  0.86269  0.18937  0.06872  1.0000
  Fe  Fe285     1.0  0.83193  0.24580  0.01890  1.0000
  S   S575      1.0  0.82311  0.27956  0.01888  1.0000
  C   C4225     1.0  0.96192  0.46537  0.20938  1.0000
  S   S576      1.0  0.81687  0.22209  0.04053  1.0000
  S   S577      1.0  0.84823  0.18843  0.01696  1.0000
  S   S578      1.0  0.94550  0.24476  0.13110  1.0000
  H   H3420     1.0  0.75835  0.15359  0.04103  1.0000
  Fe  Fe286     1.0  0.94800  0.23176  0.10312  1.0000
  S   S579      1.0  0.92127  0.24141  0.08705  1.0000
  C   C4226     1.0  0.82566  0.02034  0.19851  1.0000
  Fe  Fe287     1.0  0.96112  0.09091  0.23188  1.0000
  S   S580      1.0  0.87259  0.00322  0.22207  1.0000
  S   S581      1.0  0.96945  0.10612  0.19970  1.0000
  Fe  Fe288     1.0  0.92938  0.07057  0.26150  1.0000
  S   S582      1.0  0.94873  0.06158  0.28548  1.0000
  S   S583      1.0  0.89909  0.06056  0.27014  1.0000
  Fe  Fe289     1.0  0.95697  0.09224  0.27633  1.0000
  C   C4227     1.0  0.76006  0.22144  0.05458  1.0000
  C   C4228     1.0  0.87673  0.33799  0.98861  1.0000
  C   C4229     1.0  0.85227  0.45170  0.99661  1.0000
  S   S584      1.0  0.93525  0.10251  0.25437  1.0000
  S   S585      1.0  0.95354  0.05969  0.23738  1.0000
  C   C4230     1.0  0.95016  0.46242  0.30057  1.0000
  Fe  Fe290     1.0  0.83712  0.36197  0.07793  1.0000
  S   S586      1.0  0.81997  0.37503  0.10518  1.0000
  S   S587      1.0  0.84785  0.32847  0.07757  1.0000
  Fe  Fe291     1.0  0.83691  0.40313  0.05226  1.0000
  S   S588      1.0  0.81896  0.41975  0.07675  1.0000
  S   S589      1.0  0.84782  0.41546  0.02009  1.0000
  Fe  Fe292     1.0  0.83952  0.39927  0.09655  1.0000
  S   S590      1.0  0.85549  0.40896  0.11874  1.0000
  Fe  Fe293     1.0  0.80082  0.39467  0.08348  1.0000
  S   S591      1.0  0.76696  0.40113  0.09035  1.0000
  S   S592      1.0  0.85863  0.38401  0.07131  1.0000
  S   S593      1.0  0.81680  0.38024  0.05710  1.0000
  H   H3421     1.0  0.93075  0.17954  0.00549  1.0000
  C   C4231     1.0  0.76194  0.37436  0.06715  1.0000
  C   C4232     1.0  0.75281  0.38878  0.07932  1.0000
  H   H3422     1.0  0.90922  0.02023  0.29394  1.0000
  H   H3423     1.0  0.77802  0.37019  0.06454  1.0000
  C   C4233     1.0  0.84907  0.44116  0.01624  1.0000
  H   H3424     1.0  0.80179  0.12578  0.10025  1.0000
  C   C4234     1.0  0.85668  0.47018  0.13661  1.0000
  C   C4235     1.0  0.87359  0.45511  0.13623  1.0000
  C   C4236     1.0  0.87329  0.43691  0.12983  1.0000
  C   C4237     1.0  0.85623  0.43348  0.12344  1.0000
  C   C4238     1.0  0.83957  0.44886  0.12315  1.0000
  H   H3425     1.0  0.88676  0.45727  0.14134  1.0000
  H   H3426     1.0  0.88636  0.42535  0.13019  1.0000
  H   H3427     1.0  0.82627  0.44658  0.11842  1.0000
  C   C4239     1.0  0.96199  0.45867  0.15755  1.0000
  C   C4240     1.0  0.94774  0.44695  0.16836  1.0000
  H   H3428     1.0  0.96602  0.02254  0.30689  1.0000
  C   C4241     1.0  0.75228  0.38952  0.01256  1.0000
  H   H3429     1.0  0.93237  0.45385  0.17237  1.0000
  C   C4242     1.0  0.78850  0.12399  0.05549  1.0000
  H   H3430     1.0  0.93965  0.27700  0.16041  1.0000
  H   H3431     1.0  0.78581  0.27669  0.04853  1.0000
  H   H3432     1.0  0.89784  0.44003  0.23787  1.0000
  C   C4243     1.0  0.84672  0.45123  0.03254  1.0000
  C   C4244     1.0  0.88097  0.01793  0.23602  1.0000
  C   C4245     1.0  0.89554  0.02986  0.22648  1.0000
  C   C4246     1.0  0.90187  0.04235  0.23704  1.0000
  C   C4247     1.0  0.89313  0.04352  0.25701  1.0000
  C   C4248     1.0  0.87863  0.03152  0.26656  1.0000
  C   C4249     1.0  0.87281  0.01849  0.25622  1.0000
  H   H3433     1.0  0.90194  0.02947  0.21085  1.0000
  H   H3434     1.0  0.91302  0.05156  0.22951  1.0000
  H   H3435     1.0  0.87174  0.03245  0.28195  1.0000
  S   S594      1.0  0.97524  0.24518  0.08773  1.0000
  C   C4250     1.0  0.95956  0.17467  0.18075  1.0000
  C   C4251     1.0  0.96827  0.16201  0.16668  1.0000
  C   C4252     1.0  0.97128  0.14105  0.17276  1.0000
  C   C4253     1.0  0.96514  0.13255  0.19278  1.0000
  C   C4254     1.0  0.95555  0.14516  0.20664  1.0000
  C   C4255     1.0  0.95283  0.16614  0.20063  1.0000
  H   H3436     1.0  0.78419  0.03579  0.06081  1.0000
  H   H3437     1.0  0.82847  0.01769  0.22954  1.0000
  H   H3438     1.0  0.95041  0.13877  0.22203  1.0000
  H   H3439     1.0  0.96819  0.30082  0.00541  1.0000
  C   C4256     1.0  0.87924  0.20350  0.07395  1.0000
  C   C4257     1.0  0.89658  0.19390  0.08198  1.0000
  C   C4258     1.0  0.90984  0.20528  0.08591  1.0000
  C   C4259     1.0  0.90552  0.22626  0.08224  1.0000
  C   C4260     1.0  0.88816  0.23576  0.07431  1.0000
  C   C4261     1.0  0.87512  0.22446  0.07017  1.0000
  H   H3440     1.0  0.89983  0.17770  0.08490  1.0000
  H   H3441     1.0  0.92335  0.19793  0.09177  1.0000
  H   H3442     1.0  0.88460  0.25197  0.07153  1.0000
  H   H3443     1.0  0.86158  0.23199  0.06448  1.0000
  C   C4262     1.0  0.83057  0.29286  0.03505  1.0000
  C   C4263     1.0  0.82371  0.31364  0.03373  1.0000
  C   C4264     1.0  0.82876  0.32468  0.04668  1.0000
  C   C4265     1.0  0.84082  0.31510  0.06108  1.0000
  C   C4266     1.0  0.84781  0.29432  0.06228  1.0000
  C   C4267     1.0  0.84276  0.28326  0.04933  1.0000
  H   H3444     1.0  0.81421  0.32121  0.02281  1.0000
  H   H3445     1.0  0.82319  0.34058  0.04556  1.0000
  H   H3446     1.0  0.85711  0.28669  0.07338  1.0000
  H   H3447     1.0  0.84811  0.26728  0.05056  1.0000
  C   C4268     1.0  0.93151  0.47472  0.30030  1.0000
  C   C4269     1.0  0.84256  0.35575  0.99495  1.0000
  C   C4270     1.0  0.78330  0.17878  0.99805  1.0000
  H   H3448     1.0  0.98038  0.15599  0.10904  1.0000
  C   C4271     1.0  0.83976  0.46697  0.12984  1.0000
  C   C4272     1.0  0.89099  0.32755  0.13836  1.0000
  C   C4273     1.0  0.90304  0.31442  0.12608  1.0000
  C   C4274     1.0  0.92377  0.31373  0.12218  1.0000
  C   C4275     1.0  0.93238  0.32659  0.13007  1.0000
  C   C4276     1.0  0.92034  0.34068  0.14149  1.0000
  C   C4277     1.0  0.89960  0.34035  0.14635  1.0000
  P   P139      1.0  0.93195  0.35759  0.15102  1.0000
  C   C4278     1.0  0.94665  0.37315  0.13167  1.0000
  C   C4279     1.0  0.91396  0.37492  0.16498  1.0000
  C   C4280     1.0  0.89667  0.38537  0.15739  1.0000
  C   C4281     1.0  0.88273  0.39859  0.16828  1.0000
  C   C4282     1.0  0.88651  0.40249  0.18623  1.0000
  C   C4283     1.0  0.90417  0.39294  0.19342  1.0000
  C   C4284     1.0  0.91783  0.37919  0.18290  1.0000
  C   C4285     1.0  0.95349  0.38905  0.13686  1.0000
  C   C4286     1.0  0.96594  0.40055  0.12268  1.0000
  C   C4287     1.0  0.97169  0.39635  0.10314  1.0000
  H   H3449     1.0  0.80114  0.39044  0.01368  1.0000
  C   C4288     1.0  0.95216  0.36930  0.11183  1.0000
  C   C4289     1.0  0.94787  0.34200  0.16797  1.0000
  C   C4290     1.0  0.93945  0.32910  0.18455  1.0000
  H   H3450     1.0  0.84104  0.02259  0.19307  1.0000
  C   C4291     1.0  0.95985  0.18627  0.99020  1.0000
  C   C4292     1.0  0.98012  0.33175  0.17938  1.0000
  C   C4293     1.0  0.96836  0.34314  0.16541  1.0000
  H   H3451     1.0  0.87492  0.32777  0.14172  1.0000
  H   H3452     1.0  0.89635  0.30455  0.11983  1.0000
  H   H3453     1.0  0.93319  0.30309  0.11315  1.0000
  H   H3454     1.0  0.94848  0.32547  0.12725  1.0000
  H   H3455     1.0  0.88990  0.34973  0.15638  1.0000
  H   H3456     1.0  0.89379  0.38326  0.14310  1.0000
  H   H3457     1.0  0.86913  0.40606  0.16257  1.0000
  H   H3458     1.0  0.87591  0.41314  0.19437  1.0000
  H   H3459     1.0  0.90741  0.39636  0.20704  1.0000
  H   H3460     1.0  0.93163  0.37236  0.18855  1.0000
  H   H3461     1.0  0.94958  0.39236  0.15203  1.0000
  H   H3462     1.0  0.97130  0.41260  0.12700  1.0000
  H   H3463     1.0  0.85562  0.26948  0.98937  1.0000
  C   C4294     1.0  0.94255  0.23101  0.02884  1.0000
  H   H3464     1.0  0.94670  0.35769  0.10707  1.0000
  H   H3465     1.0  0.92369  0.32802  0.18677  1.0000
  H   H3466     1.0  0.74687  0.34600  0.11538  1.0000
  C   C4295     1.0  0.92733  0.22496  0.00224  1.0000
  C   C4296     1.0  0.77102  0.08647  0.05958  1.0000
  H   H3467     1.0  0.97535  0.35299  0.15289  1.0000
  C   C4297     1.0  0.77277  0.38261  0.01233  1.0000
  C   C4298     1.0  0.75114  0.12452  0.04009  1.0000
  C   C4299     1.0  0.85715  0.34293  0.98419  1.0000
  C   C4300     1.0  0.79667  0.43733  0.20299  1.0000
  C   C4301     1.0  0.94872  0.16537  0.06492  1.0000
  C   C4302     1.0  0.84907  0.48270  0.00958  1.0000
  C   C4303     1.0  0.75730  0.16371  0.98938  1.0000
  C   C4304     1.0  0.86179  0.46766  0.26729  1.0000
  H   H3468     1.0  0.91221  0.47527  0.22795  1.0000
  C   C4305     1.0  0.81469  0.09539  0.98443  1.0000
  C   C4306     1.0  0.76301  0.17743  0.99913  1.0000
  H   H3469     1.0  0.92620  0.25465  0.04486  1.0000
  H   H3470     1.0  0.89654  0.34302  0.00741  1.0000
  H   H3471     1.0  0.91006  0.99163  0.26975  1.0000
  C   C4307     1.0  0.81202  0.48598  0.22319  1.0000
  C   C4308     1.0  0.82281  0.42713  0.17603  1.0000
  C   C4309     1.0  0.93551  0.46336  0.24594  1.0000
  C   C4310     1.0  0.77613  0.28806  0.05647  1.0000
  C   C4311     1.0  0.91156  0.24060  0.00612  1.0000
  H   H3472     1.0  0.81206  0.48525  0.25489  1.0000
  H   H3473     1.0  0.89942  0.24399  0.99749  1.0000
  S   S595      1.0  0.96145  0.11163  0.29764  1.0000
  C   C4312     1.0  0.78145  0.06810  0.05416  1.0000
  C   C4313     1.0  0.86684  0.35895  0.01466  1.0000
  P   P140      1.0  0.76059  0.00972  0.22270  1.0000
  C   C4314     1.0  0.91509  0.44534  0.30823  1.0000
  C   C4315     1.0  0.74697  0.14539  0.03979  1.0000
  H   H3474     1.0  0.80892  0.98617  0.16527  1.0000
  H   H3475     1.0  0.79534  0.14492  0.02812  1.0000
  C   C4316     1.0  0.79036  0.11874  0.07590  1.0000
  P   P141      1.0  0.77545  0.11013  0.04395  1.0000
  S   S596      1.0  0.96554  0.20203  0.11494  1.0000
  C   C4317     1.0  0.79070  0.10496  0.02039  1.0000
  C   C4318     1.0  0.78190  0.10177  0.00482  1.0000
  C   C4319     1.0  0.76081  0.99147  0.24551  1.0000
  P   P142      1.0  0.74606  0.44871  0.01766  1.0000
  C   C4320     1.0  0.75656  0.42261  0.01669  1.0000
  C   C4321     1.0  0.81169  0.10293  0.01791  1.0000
  H   H3476     1.0  0.96599  0.43208  0.30350  1.0000
  H   H3477     1.0  0.78425  0.10605  0.08520  1.0000
  H   H3478     1.0  0.98187  0.32753  0.11983  1.0000
  C   C4322     1.0  0.96654  0.28439  0.16635  1.0000
  H   H3479     1.0  0.76579  0.10323  0.00627  1.0000
  H   H3480     1.0  0.77137  0.20923  0.04968  1.0000
  H   H3481     1.0  0.96847  0.20036  0.22799  1.0000
  C   C4323     1.0  0.95479  0.99077  0.29475  1.0000
  H   H3482     1.0  0.81892  0.10480  0.02987  1.0000
  H   H3483     1.0  0.96909  0.37770  0.08247  1.0000
  C   C4324     1.0  0.76183  0.28290  0.01309  1.0000
  S   S597      1.0  0.89854  0.48525  0.18025  1.0000
  H   H3484     1.0  0.89976  0.47617  0.30317  1.0000
  H   H3485     1.0  0.92709  0.21678  0.99045  1.0000
  H   H3486     1.0  0.96472  0.29908  0.15708  1.0000
  C   C4325     1.0  0.94244  0.17783  0.99255  1.0000
  H   H3487     1.0  0.96363  0.46909  0.29777  1.0000
  C   C4326     1.0  0.79328  0.01674  0.19223  1.0000
  C   C4327     1.0  0.84362  0.00146  0.30804  1.0000
  C   C4328     1.0  0.75164  0.31717  0.07753  1.0000
  C   C4329     1.0  0.79369  0.48390  0.02537  1.0000
  C   C4330     1.0  0.77649  0.04993  0.06531  1.0000
  H   H3488     1.0  0.92526  0.46308  0.26007  1.0000
  C   C4331     1.0  0.78525  0.39571  0.01390  1.0000
  C   C4332     1.0  0.97049  0.10965  0.13182  1.0000
  H   H3489     1.0  0.93559  0.41687  0.30968  1.0000
  C   C4333     1.0  0.75601  0.29409  0.05384  1.0000
  Fe  Fe294     1.0  0.97347  0.05270  0.26084  1.0000
  H   H3490     1.0  0.89181  0.40446  0.00903  1.0000
  H   H3491     1.0  0.86153  0.00941  0.26366  1.0000
  C   C4334     1.0  0.97704  0.22584  0.25418  1.0000
  C   C4335     1.0  0.78770  0.29640  0.98764  1.0000
  H   H3492     1.0  0.79965  0.29242  0.07085  1.0000
  C   C4336     1.0  0.98333  0.27776  0.17590  1.0000
  C   C4337     1.0  0.93089  0.37098  0.99026  1.0000
  C   C4338     1.0  0.83502  0.43888  0.18070  1.0000
  C   C4339     1.0  0.92668  0.24661  0.03272  1.0000
  C   C4340     1.0  0.77185  0.31160  0.07951  1.0000
  C   C4341     1.0  0.76040  0.24102  0.04422  1.0000
  H   H3493     1.0  0.76791  0.47973  0.25854  1.0000
  H   H3494     1.0  0.81252  0.16463  0.04346  1.0000
  P   P143      1.0  0.89244  0.43480  0.31136  1.0000
  C   C4342     1.0  0.78816  0.43814  0.26203  1.0000
  H   H3495     1.0  0.74822  0.26087  0.00439  1.0000
  C   C4343     1.0  0.95144  0.44159  0.30399  1.0000
  C   C4344     1.0  0.78604  0.01390  0.21298  1.0000
  C   C4345     1.0  0.92134  0.00995  0.30020  1.0000
  H   H3496     1.0  0.94556  0.17582  0.21145  1.0000
  H   H3497     1.0  0.74657  0.00953  0.01729  1.0000
  S   S598      1.0  0.83126  0.23252  0.99151  1.0000
  C   C4346     1.0  0.89679  0.13108  0.09688  1.0000
  C   C4347     1.0  0.87781  0.14292  0.09712  1.0000
  C   C4348     1.0  0.86972  0.15390  0.11271  1.0000
  C   C4349     1.0  0.88064  0.15324  0.12799  1.0000
  C   C4350     1.0  0.89997  0.14182  0.12756  1.0000
  C   C4351     1.0  0.90782  0.13044  0.11208  1.0000
  P   P144      1.0  0.91442  0.14173  0.14681  1.0000
  C   C4352     1.0  0.90698  0.12423  0.16914  1.0000
  C   C4353     1.0  0.94071  0.13496  0.13684  1.0000
  C   C4354     1.0  0.95167  0.14970  0.12542  1.0000
  C   C4355     1.0  0.98178  0.44954  0.15204  1.0000
  C   C4356     1.0  0.77726  0.41567  0.01583  1.0000
  H   H3498     1.0  0.77891  0.36706  0.01119  1.0000
  C   C4357     1.0  0.95022  0.11483  0.13973  1.0000
  C   C4358     1.0  0.88821  0.11800  0.17279  1.0000
  C   C4359     1.0  0.88268  0.10452  0.19021  1.0000
  C   C4360     1.0  0.89580  0.09721  0.20410  1.0000
  C   C4361     1.0  0.91446  0.10336  0.20056  1.0000
  C   C4362     1.0  0.91998  0.11682  0.18321  1.0000
  C   C4363     1.0  0.91083  0.16679  0.15273  1.0000
  C   C4364     1.0  0.90715  0.18359  0.13781  1.0000
  C   C4365     1.0  0.90561  0.20301  0.14179  1.0000
  C   C4366     1.0  0.90757  0.20584  0.16081  1.0000
  C   C4367     1.0  0.91097  0.18924  0.17584  1.0000
  C   C4368     1.0  0.91276  0.16978  0.17181  1.0000
  H   H3499     1.0  0.90305  0.12266  0.08471  1.0000
  H   H3500     1.0  0.86952  0.14400  0.08499  1.0000
  H   H3501     1.0  0.85521  0.16347  0.11254  1.0000
  H   H3502     1.0  0.87420  0.16202  0.13984  1.0000
  H   H3503     1.0  0.92252  0.12125  0.11154  1.0000
  H   H3504     1.0  0.94471  0.16528  0.12272  1.0000
  C   C4369     1.0  0.97341  0.41718  0.16883  1.0000
  H   H3505     1.0  0.79307  0.06766  0.04108  1.0000
  C   C4370     1.0  0.96532  0.17124  0.24545  1.0000
  H   H3506     1.0  0.94208  0.10310  0.14820  1.0000
  H   H3507     1.0  0.87779  0.12348  0.16230  1.0000
  H   H3508     1.0  0.86821  0.09972  0.19300  1.0000
  H   H3509     1.0  0.89152  0.08681  0.21763  1.0000
  H   H3510     1.0  0.92472  0.09771  0.21126  1.0000
  H   H3511     1.0  0.93444  0.12146  0.18071  1.0000
  H   H3512     1.0  0.90582  0.18168  0.12296  1.0000
  H   H3513     1.0  0.90315  0.21587  0.13002  1.0000
  H   H3514     1.0  0.90680  0.22085  0.16381  1.0000
  H   H3515     1.0  0.91295  0.19145  0.19045  1.0000
  H   H3516     1.0  0.91611  0.15720  0.18350  1.0000
  H   H3517     1.0  0.94431  0.24286  0.18073  1.0000
  C   C4371     1.0  0.75928  0.27078  0.99989  1.0000
  C   C4372     1.0  0.94803  0.18060  0.04812  1.0000
  H   H3518     1.0  0.77780  0.30594  0.01628  1.0000
  C   C4373     1.0  0.94283  0.21986  0.01373  1.0000
  S   S599      1.0  0.95828  0.20103  0.17450  1.0000
  C   C4374     1.0  0.76733  0.48103  0.00798  1.0000
  H   H3519     1.0  0.89833  0.26278  0.02510  1.0000
  C   C4375     1.0  0.88969  0.39590  0.30699  1.0000
  H   H3520     1.0  0.77305  0.44228  0.04700  1.0000
  H   H3521     1.0  0.83486  0.45033  0.24581  1.0000
  C   C4376     1.0  0.75330  0.04868  0.23181  1.0000
  C   C4377     1.0  0.81078  0.42128  0.28530  1.0000
  H   H3522     1.0  0.84093  0.42768  0.27742  1.0000
  C   C4378     1.0  0.84749  0.36393  0.00998  1.0000
  H   H3523     1.0  0.93647  0.16560  0.07747  1.0000
  C   C4379     1.0  0.74421  0.40943  0.01464  1.0000
  C   C4380     1.0  0.88358  0.44354  0.28765  1.0000
  S   S600      1.0  0.98341  0.08278  0.25325  1.0000
  H   H3524     1.0  0.75740  0.35433  0.04859  1.0000
  H   H3525     1.0  0.81860  0.02186  0.16904  1.0000
  H   H3526     1.0  0.75664  0.37075  0.13124  1.0000
  C   C4381     1.0  0.74096  0.06650  0.23629  1.0000
  H   H3527     1.0  0.88129  0.40275  0.29495  1.0000
  C   C4382     1.0  0.82625  0.43047  0.27305  1.0000
  C   C4383     1.0  0.87285  0.46083  0.24992  1.0000
  H   H3528     1.0  0.78746  0.42554  0.01635  1.0000
  C   C4384     1.0  0.82806  0.45003  0.19632  1.0000
  H   H3529     1.0  0.90781  0.42518  0.27097  1.0000
  H   H3530     1.0  0.95096  0.17644  0.25409  1.0000
  H   H3531     1.0  0.90591  0.29833  0.00895  1.0000
  H   H3532     1.0  0.93728  0.28781  0.02318  1.0000
  C   C4385     1.0  0.95502  0.25276  0.17971  1.0000
  H   H3533     1.0  0.85855  0.46495  0.29919  1.0000
  C   C4386     1.0  0.76435  0.46288  0.02077  1.0000
  H   H3534     1.0  0.97175  0.46606  0.19498  1.0000
  C   C4387     1.0  0.75952  0.40295  0.14819  1.0000
  C   C4388     1.0  0.88149  0.34606  0.00399  1.0000
  H   H3535     1.0  0.83973  0.09716  0.99799  1.0000
  C   C4389     1.0  0.77088  0.38667  0.15900  1.0000
  C   C4390     1.0  0.82271  0.44347  0.25527  1.0000
  C   C4391     1.0  0.79391  0.09688  0.98698  1.0000
  C   C4392     1.0  0.75048  0.00083  0.20437  1.0000
  C   C4393     1.0  0.91105  0.25127  0.02153  1.0000
  H   H3536     1.0  0.78187  0.43637  0.21168  1.0000
  H   H3537     1.0  0.86912  0.46810  0.23532  1.0000
  H   H3538     1.0  0.75712  0.03581  0.09033  1.0000
  C   C4394     1.0  0.97524  0.18471  0.23081  1.0000
  C   C4395     1.0  0.95238  0.27194  0.16825  1.0000
  C   C4396     1.0  0.96477  0.38077  0.09770  1.0000
  C   C4397     1.0  0.90460  0.39235  0.00879  1.0000
  H   H3539     1.0  0.82820  0.41885  0.16362  1.0000
  H   H3540     1.0  0.74252  0.37931  0.01162  1.0000
  C   C4398     1.0  0.93692  0.36059  0.00832  1.0000
  C   C4399     1.0  0.92732  0.36653  0.02669  1.0000
  C   C4400     1.0  0.91072  0.38216  0.02681  1.0000
  P   P145      1.0  0.93493  0.35282  0.05003  1.0000
  C   C4401     1.0  0.92575  0.32923  0.05482  1.0000
  C   C4402     1.0  0.96153  0.35014  0.05026  1.0000
  C   C4403     1.0  0.96936  0.34019  0.06766  1.0000
  H   H3541     1.0  0.82653  0.47843  0.13009  1.0000
  C   C4404     1.0  0.96953  0.45924  0.22749  1.0000
  H   H3542     1.0  0.97370  0.23095  0.19776  1.0000
  C   C4405     1.0  0.97418  0.35973  0.03421  1.0000
  C   C4406     1.0  0.90621  0.32925  0.05179  1.0000
  C   C4407     1.0  0.89860  0.31132  0.05546  1.0000
  C   C4408     1.0  0.91013  0.29330  0.06272  1.0000
  C   C4409     1.0  0.92964  0.29306  0.06568  1.0000
  C   C4410     1.0  0.93757  0.31090  0.06149  1.0000
  C   C4411     1.0  0.92349  0.36765  0.06938  1.0000
  C   C4412     1.0  0.92896  0.38652  0.06802  1.0000
  C   C4413     1.0  0.91976  0.39881  0.08226  1.0000
  C   C4414     1.0  0.90508  0.39234  0.09790  1.0000
  C   C4415     1.0  0.89952  0.37362  0.09937  1.0000
  C   C4416     1.0  0.90875  0.36118  0.08523  1.0000
  C   C4417     1.0  0.78401  0.29688  0.06917  1.0000
  C   C4418     1.0  0.91405  0.46629  0.30395  1.0000
  H   H3543     1.0  0.98147  0.40523  0.09225  1.0000
  H   H3544     1.0  0.94915  0.34803  0.00800  1.0000
  H   H3545     1.0  0.90222  0.38654  0.04073  1.0000
  H   H3546     1.0  0.95979  0.33349  0.08069  1.0000
  C   C4419     1.0  0.85216  0.47247  0.99329  1.0000
  C   C4420     1.0  0.79789  0.16603  0.98713  1.0000
  C   C4421     1.0  0.95445  0.30559  0.99914  1.0000
  H   H3547     1.0  0.96842  0.36862  0.02115  1.0000
  H   H3548     1.0  0.89661  0.34315  0.04700  1.0000
  H   H3549     1.0  0.88349  0.31150  0.05318  1.0000
  H   H3550     1.0  0.90382  0.27958  0.06629  1.0000
  H   H3551     1.0  0.93849  0.27900  0.07146  1.0000
  H   H3552     1.0  0.95276  0.31010  0.06373  1.0000
  H   H3553     1.0  0.94009  0.39190  0.05576  1.0000
  H   H3554     1.0  0.92380  0.41347  0.08110  1.0000
  C   C4422     1.0  0.98008  0.16437  0.03227  1.0000
  H   H3555     1.0  0.88756  0.36906  0.11116  1.0000
  H   H3556     1.0  0.90399  0.34686  0.08653  1.0000
  H   H3557     1.0  0.94462  0.30805  0.21145  1.0000
  S   S601      1.0  0.98082  0.39136  0.17621  1.0000
  C   C4423     1.0  0.80858  0.44982  0.20720  1.0000
  H   H3558     1.0  0.94107  0.01158  0.27161  1.0000
  H   H3559     1.0  0.81604  0.15509  0.07946  1.0000
  Fe  Fe295     1.0  0.96508  0.21598  0.14196  1.0000
  H   H3560     1.0  0.79370  0.01215  0.24246  1.0000
  H   H3561     1.0  0.89775  0.40209  0.10864  1.0000
  C   C4424     1.0  0.77302  0.47522  0.22745  1.0000
  C   C4425     1.0  0.89460  0.43665  0.27016  1.0000
  H   H3562     1.0  0.93575  0.47663  0.19561  1.0000
  H   H3563     1.0  0.79937  0.46048  0.05037  1.0000
  C   C4426     1.0  0.98075  0.14924  0.04912  1.0000
  C   C4427     1.0  0.98135  0.12446  0.12076  1.0000
  C   C4428     1.0  0.89275  0.37497  0.31239  1.0000
  C   C4429     1.0  0.94133  0.47110  0.20964  1.0000
  H   H3564     1.0  0.95428  0.22726  0.03802  1.0000
  H   H3565     1.0  0.82751  0.35964  0.99143  1.0000
  C   C4430     1.0  0.95123  0.31785  0.19860  1.0000
  C   C4431     1.0  0.74092  0.37131  0.13093  1.0000
  C   C4432     1.0  0.84685  0.47198  0.02921  1.0000
  H   H3566     1.0  0.77333  0.44076  0.25802  1.0000
  H   H3567     1.0  0.97861  0.13137  0.16195  1.0000
  H   H3568     1.0  0.76114  0.43072  0.12699  1.0000
  C   C4433     1.0  0.79007  0.41659  0.13358  1.0000
  C   C4434     1.0  0.80124  0.40028  0.14426  1.0000
  C   C4435     1.0  0.79165  0.38533  0.15699  1.0000
  H   H3569     1.0  0.84476  0.47979  0.04185  1.0000
  H   H3570     1.0  0.77233  0.24361  0.03165  1.0000
  C   C4436     1.0  0.75019  0.36528  0.05818  1.0000
  C   C4437     1.0  0.79670  0.14054  0.04388  1.0000
  C   C4438     1.0  0.97170  0.24610  0.18943  1.0000
  C   C4439     1.0  0.95614  0.45759  0.24576  1.0000
  H   H3571     1.0  0.93499  0.19233  0.04790  1.0000
  C   C4440     1.0  0.76929  0.41801  0.13558  1.0000
  C   C4441     1.0  0.88907  0.44510  0.25139  1.0000
  S   S602      1.0  0.95588  0.48477  0.15109  1.0000
  P   P146      1.0  0.96302  0.19925  0.00951  1.0000
  H   H3572     1.0  0.88700  0.36590  0.30438  1.0000
  C   C4442     1.0  0.81855  0.01758  0.21914  1.0000
  C   C4443     1.0  0.92812  0.47021  0.22786  1.0000
  H   H3573     1.0  0.79759  0.42797  0.12342  1.0000
  H   H3574     1.0  0.81738  0.39902  0.14229  1.0000
  H   H3575     1.0  0.80037  0.37255  0.16505  1.0000
  H   H3576     1.0  0.83126  0.99922  0.30160  1.0000
  C   C4444     1.0  0.86705  0.45901  0.28606  1.0000
  H   H3577     1.0  0.85418  0.99179  0.17471  1.0000
  C   C4445     1.0  0.95350  0.42620  0.17416  1.0000
  H   H3578     1.0  0.81338  0.41143  0.29925  1.0000
  H   H3579     1.0  0.94257  0.41718  0.18275  1.0000
  H   H3580     1.0  0.84486  0.44310  0.04771  1.0000
  H   H3581     1.0  0.87046  0.36552  0.02630  1.0000
  H   H3582     1.0  0.77977  0.41800  0.28930  1.0000
  C   C4446     1.0  0.80033  0.12989  0.08450  1.0000
  H   H3583     1.0  0.97324  0.16834  0.15126  1.0000
  C   C4447     1.0  0.80837  0.14639  0.07283  1.0000
  P   P147      1.0  0.79921  0.46476  0.22696  1.0000
  C   C4448     1.0  0.76442  0.47883  0.20991  1.0000
  C   C4449     1.0  0.80649  0.15172  0.05253  1.0000
  C   C4450     1.0  0.77577  0.29611  0.00662  1.0000
  C   C4451     1.0  0.77549  0.45594  0.03656  1.0000
  H   H3584     1.0  0.83642  0.37439  0.01784  1.0000
  Fe  Fe296     1.0  0.86123  0.21428  0.99697  1.0000
  C   C4452     1.0  0.97193  0.14447  0.11752  1.0000
  C   C4453     1.0  0.91933  0.30413  0.00101  1.0000
  H   H3585     1.0  0.96173  0.45246  0.25984  1.0000
  C   C4454     1.0  0.98568  0.21013  0.00274  1.0000
  H   H3586     1.0  0.84980  0.43967  0.17197  1.0000
  C   C4455     1.0  0.98741  0.42882  0.15747  1.0000
  C   C4456     1.0  0.80370  0.42619  0.18730  1.0000
  C   C4457     1.0  0.74569  0.25692  0.05029  1.0000
  C   C4458     1.0  0.93402  0.43303  0.30769  1.0000
  C   C4459     1.0  0.98914  0.48173  0.25395  1.0000
  C   C4460     1.0  0.79179  0.42503  0.27973  1.0000
  Fe  Fe297     1.0  0.97402  0.25628  0.11648  1.0000
  C   C4461     1.0  0.80352  0.44779  0.24988  1.0000
  H   H3587     1.0  0.76367  0.37487  0.16880  1.0000
  C   C4462     1.0  0.93927  0.00479  0.28737  1.0000
  C   C4463     1.0  0.79885  0.01437  0.22638  1.0000
  C   C4464     1.0  0.97153  0.31929  0.19608  1.0000
  C   C4465     1.0  0.96387  0.18033  0.03177  1.0000
  H   H3588     1.0  0.76928  0.04725  0.23127  1.0000
  H   H3589     1.0  0.98691  0.19976  0.27514  1.0000
  H   H3590     1.0  0.96595  0.14046  0.25992  1.0000
  S   S603      1.0  0.97583  0.28925  0.11396  1.0000
  C   C4466     1.0  0.81303  0.01994  0.18505  1.0000
  H   H3591     1.0  0.79427  0.41695  0.18378  1.0000
  H   H3592     1.0  0.77812  0.31872  0.08900  1.0000
  C   C4467     1.0  0.97374  0.15094  0.24867  1.0000
  H   H3593     1.0  0.75156  0.18718  0.00749  1.0000
  C   C4468     1.0  0.79032  0.46626  0.03863  1.0000
  C   C4469     1.0  0.82360  0.09837  0.99992  1.0000
  H   H3594     1.0  0.83789  0.45897  0.19962  1.0000
  H   H3595     1.0  0.78392  0.01615  0.18153  1.0000
  H   H3596     1.0  0.85462  0.44388  0.98396  1.0000
  C   C4470     1.0  0.93705  0.29821  0.00913  1.0000
  H   H3597     1.0  0.77328  0.47517  0.19587  1.0000
  C   C4471     1.0  0.96507  0.14974  0.06544  1.0000
  C   C4472     1.0  0.76147  0.48157  0.24499  1.0000
  H   H3598     1.0  0.96552  0.13794  0.07843  1.0000
  P   P148      1.0  0.74613  0.28240  0.03744  1.0000
  C   C4473     1.0  0.76119  0.04992  0.08198  1.0000
  H   H3599     1.0  0.88810  0.99396  0.18011  1.0000
  H   H3600     1.0  0.74215  0.32859  0.08552  1.0000
  C   C4474     1.0  0.98199  0.23802  0.23571  1.0000
  H   H3601     1.0  0.74724  0.10028  0.08068  1.0000
  H   H3602     1.0  0.96247  0.22920  0.26334  1.0000
  H   H3603     1.0  0.81357  0.16650  0.98649  1.0000
  C   C4475     1.0  0.74369  0.30842  0.06483  1.0000
  H   H3604     1.0  0.97118  0.25090  0.23084  1.0000
  C   C4476     1.0  0.75088  0.06810  0.08759  1.0000
  H   H3605     1.0  0.97784  0.09415  0.13454  1.0000
  C   C4477     1.0  0.98579  0.25875  0.18798  1.0000
  H   H3606     1.0  0.74749  0.07855  0.23909  1.0000
  H   H3607     1.0  0.86403  0.30113  0.99392  1.0000
  H   H3608     1.0  0.98067  0.31070  0.20697  1.0000
  H   H3609     1.0  0.74517  0.20241  0.07931  1.0000
  C   C4478     1.0  0.74557  0.99336  0.26225  1.0000
  C   C4479     1.0  0.86109  0.98718  0.30763  1.0000
  H   H3610     1.0  0.84944  0.48008  0.26624  1.0000
  H   H3611     1.0  0.78017  0.99011  0.99769  1.0000
  C   C4480     1.0  0.91480  0.38693  0.99051  1.0000
  H   H3612     1.0  0.74160  0.16309  0.99022  1.0000
  H   H3613     1.0  0.90660  0.04614  0.31060  1.0000
  H   H3614     1.0  0.74208  0.42686  0.29739  1.0000
  C   C4481     1.0  0.74531  0.21761  0.07129  1.0000
  H   H3615     1.0  0.98657  0.29497  0.03617  1.0000
  C   C4482     1.0  0.74342  0.01450  0.18822  1.0000
  H   H3616     1.0  0.74474  0.03021  0.18618  1.0000
  C   C4483     1.0  0.74497  0.03305  0.22801  1.0000
  H   H3617     1.0  0.96864  0.98679  0.28468  1.0000
  H   H3618     1.0  0.90318  0.08069  0.31614  1.0000
  C   C4484     1.0  0.87706  0.98979  0.31599  1.0000
  C   C4485     1.0  0.87336  0.44282  0.33159  1.0000
  C   C4486     1.0  0.94885  0.12167  0.33537  1.0000
  Fe  Fe298     1.0  0.77591  0.43897  0.35685  1.0000
  H   H3619     1.0  0.75131  0.39226  0.49300  1.0000
  S   S604      1.0  0.78770  0.40817  0.37305  1.0000
  Fe  Fe299     1.0  0.77572  0.31583  0.49518  1.0000
  S   S605      1.0  0.76719  0.34929  0.48767  1.0000
  S   S606      1.0  0.80738  0.29958  0.49608  1.0000
  C   C4487     1.0  0.88250  0.06009  0.36284  1.0000
  C   C4488     1.0  0.77211  0.25303  0.49663  1.0000
  H   H3620     1.0  0.75732  0.26760  0.52182  1.0000
  H   H3621     1.0  0.88925  0.46362  0.33939  1.0000
  S   S607      1.0  0.75519  0.31336  0.52491  1.0000
  S   S608      1.0  0.75405  0.30855  0.47816  1.0000
  S   S609      1.0  0.81395  0.42094  0.60503  1.0000
  H   H3622     1.0  0.97827  0.21689  0.63097  1.0000
  C   C4489     1.0  0.88933  0.07463  0.34716  1.0000
  S   S610      1.0  0.83454  0.02533  0.54075  1.0000
  H   H3623     1.0  0.88216  0.32194  0.60733  1.0000
  C   C4490     1.0  0.77868  0.98740  0.49684  1.0000
  S   S611      1.0  0.82070  0.03680  0.58690  1.0000
  S   S612      1.0  0.78529  0.45529  0.62960  1.0000
  Fe  Fe300     1.0  0.80657  0.02724  0.56415  1.0000
  Fe  Fe301     1.0  0.84916  0.03238  0.56439  1.0000
  S   S613      1.0  0.87381  0.05134  0.55793  1.0000
  C   C4491     1.0  0.73999  0.44350  0.55507  1.0000
  H   H3624     1.0  0.96581  0.37251  0.45666  1.0000
  C   C4492     1.0  0.89338  0.03472  0.34103  1.0000
  Fe  Fe302     1.0  0.94545  0.12587  0.43861  1.0000
  S   S614      1.0  0.92016  0.14601  0.45439  1.0000
  C   C4493     1.0  0.77932  0.46607  0.42140  1.0000
  Fe  Fe303     1.0  0.92047  0.11669  0.41125  1.0000
  S   S615      1.0  0.89288  0.13603  0.42458  1.0000
  S   S616      1.0  0.91986  0.09648  0.38914  1.0000
  Fe  Fe304     1.0  0.91295  0.15824  0.42353  1.0000
  S   S617      1.0  0.90005  0.19108  0.41660  1.0000
  Fe  Fe305     1.0  0.90177  0.12245  0.45463  1.0000
  S   S618      1.0  0.87497  0.11664  0.47860  1.0000
  S   S619      1.0  0.93997  0.14014  0.40742  1.0000
  S   S620      1.0  0.92782  0.10104  0.44152  1.0000
  Fe  Fe306     1.0  0.90827  0.31515  0.42899  1.0000
  S   S621      1.0  0.92010  0.28576  0.44706  1.0000
  S   S622      1.0  0.87583  0.32819  0.42695  1.0000
  Fe  Fe307     1.0  0.94995  0.32662  0.41353  1.0000
  S   S623      1.0  0.96511  0.29823  0.43023  1.0000
  S   S624      1.0  0.96411  0.35382  0.39808  1.0000
  Fe  Fe308     1.0  0.94405  0.28293  0.41994  1.0000
  S   S625      1.0  0.95826  0.25316  0.41032  1.0000
  Fe  Fe309     1.0  0.94008  0.30352  0.45567  1.0000
  S   S626      1.0  0.94675  0.29964  0.48691  1.0000
  S   S627      1.0  0.93074  0.31105  0.40087  1.0000
  S   S628      1.0  0.92628  0.33308  0.44005  1.0000
  C   C4494     1.0  0.77736  0.43184  0.41999  1.0000
  H   H3625     1.0  0.98688  0.07628  0.45644  1.0000
  C   C4495     1.0  0.91193  0.31937  0.58988  1.0000
  H   H3626     1.0  0.75459  0.40204  0.58512  1.0000
  H   H3627     1.0  0.91494  0.44878  0.36119  1.0000
  C   C4496     1.0  0.91642  0.20815  0.41478  1.0000
  C   C4497     1.0  0.90864  0.22865  0.41399  1.0000
  C   C4498     1.0  0.92140  0.24259  0.41264  1.0000
  C   C4499     1.0  0.94201  0.23608  0.41171  1.0000
  C   C4500     1.0  0.94985  0.21561  0.41215  1.0000
  C   C4501     1.0  0.93704  0.20161  0.41395  1.0000
  H   H3628     1.0  0.89271  0.23373  0.41445  1.0000
  H   H3629     1.0  0.91534  0.25839  0.41208  1.0000
  H   H3630     1.0  0.96583  0.21057  0.41127  1.0000
  H   H3631     1.0  0.94311  0.18583  0.41437  1.0000
  C   C4502     1.0  0.98653  0.47826  0.34779  1.0000
  C   C4503     1.0  0.88429  0.04027  0.35977  1.0000
  P   P149      1.0  0.95233  0.35787  0.58036  1.0000
  C   C4504     1.0  0.93480  0.98777  0.32808  1.0000
  C   C4505     1.0  0.96343  0.12468  0.48360  1.0000
  C   C4506     1.0  0.96565  0.12824  0.50240  1.0000
  C   C4507     1.0  0.90682  0.99362  0.37483  1.0000
  H   H3632     1.0  0.75580  0.41641  0.51281  1.0000
  H   H3633     1.0  0.94922  0.12187  0.48139  1.0000
  H   H3634     1.0  0.95312  0.12812  0.51464  1.0000
  C   C4508     1.0  0.75726  0.43812  0.54144  1.0000
  H   H3635     1.0  0.84814  0.40799  0.62411  1.0000
  C   C4509     1.0  0.80666  0.19415  0.46512  1.0000
  P   P150      1.0  0.79139  0.23518  0.46339  1.0000
  C   C4510     1.0  0.91149  0.44589  0.41178  1.0000
  H   H3636     1.0  0.80683  0.47482  0.51184  1.0000
  H   H3637     1.0  0.74979  0.42168  0.43381  1.0000
  C   C4511     1.0  0.87456  0.06869  0.53528  1.0000
  C   C4512     1.0  0.85743  0.07553  0.52631  1.0000
  C   C4513     1.0  0.85792  0.09005  0.50881  1.0000
  C   C4514     1.0  0.87567  0.09747  0.49979  1.0000
  C   C4515     1.0  0.89296  0.09043  0.50855  1.0000
  C   C4516     1.0  0.89232  0.07625  0.52642  1.0000
  H   H3638     1.0  0.84364  0.06995  0.53310  1.0000
  H   H3639     1.0  0.84446  0.09557  0.50221  1.0000
  H   H3640     1.0  0.90664  0.09622  0.50180  1.0000
  H   H3641     1.0  0.90560  0.07106  0.53335  1.0000
  C   C4517     1.0  0.79147  0.46729  0.49042  1.0000
  H   H3642     1.0  0.95985  0.17732  0.49987  1.0000
  Fe  Fe310     1.0  0.74471  0.34623  0.51598  1.0000
  H   H3643     1.0  0.93213  0.44136  0.58471  1.0000
  C   C4518     1.0  0.96914  0.47756  0.59468  1.0000
  C   C4519     1.0  0.94220  0.08963  0.33140  1.0000
  C   C4520     1.0  0.93329  0.08648  0.35173  1.0000
  C   C4521     1.0  0.93193  0.10094  0.36393  1.0000
  C   C4522     1.0  0.93987  0.11852  0.35574  1.0000
  C   C4523     1.0  0.91604  0.43956  0.39296  1.0000
  H   H3644     1.0  0.92718  0.07290  0.35801  1.0000
  H   H3645     1.0  0.93884  0.12978  0.36500  1.0000
  S   S629      1.0  0.91663  0.38930  0.63848  1.0000
  C   C4524     1.0  0.96847  0.39354  0.34470  1.0000
  S   S630      1.0  0.96345  0.40628  0.64584  1.0000
  H   H3646     1.0  0.73994  0.47356  0.47682  1.0000
  H   H3647     1.0  0.96299  0.20859  0.55419  1.0000
  C   C4525     1.0  0.87826  0.39950  0.63060  1.0000
  C   C4526     1.0  0.77629  0.37616  0.57856  1.0000
  C   C4527     1.0  0.78137  0.36025  0.56753  1.0000
  C   C4528     1.0  0.76920  0.35840  0.55407  1.0000
  H   H3648     1.0  0.79469  0.34930  0.56941  1.0000
  H   H3649     1.0  0.77323  0.34614  0.54556  1.0000
  C   C4529     1.0  0.82624  0.30934  0.47783  1.0000
  C   C4530     1.0  0.84636  0.30187  0.47951  1.0000
  C   C4531     1.0  0.86178  0.30792  0.46423  1.0000
  C   C4532     1.0  0.85706  0.32151  0.44717  1.0000
  C   C4533     1.0  0.83693  0.32960  0.44587  1.0000
  C   C4534     1.0  0.82153  0.32361  0.46123  1.0000
  H   H3650     1.0  0.84995  0.29089  0.49238  1.0000
  H   H3651     1.0  0.87724  0.30163  0.46533  1.0000
  H   H3652     1.0  0.83321  0.34022  0.43275  1.0000
  H   H3653     1.0  0.80603  0.32960  0.45993  1.0000
  C   C4535     1.0  0.77215  0.39580  0.39337  1.0000
  Fe  Fe311     1.0  0.78661  0.40680  0.60839  1.0000
  C   C4536     1.0  0.76898  0.36960  0.42300  1.0000
  C   C4537     1.0  0.78087  0.37944  0.40638  1.0000
  H   H3654     1.0  0.77581  0.35695  0.43286  1.0000
  H   H3655     1.0  0.79690  0.37440  0.40363  1.0000
  H   H3656     1.0  0.76650  0.42357  0.54467  1.0000
  H   H3657     1.0  0.78081  0.05880  0.50829  1.0000
  C   C4538     1.0  0.75957  0.46873  0.43158  1.0000
  C   C4539     1.0  0.98840  0.35301  0.38383  1.0000
  C   C4540     1.0  0.92118  0.07323  0.64764  1.0000
  C   C4541     1.0  0.90474  0.13347  0.55697  1.0000
  C   C4542     1.0  0.89960  0.11427  0.56267  1.0000
  C   C4543     1.0  0.90693  0.10127  0.57890  1.0000
  C   C4544     1.0  0.91936  0.10746  0.58947  1.0000
  C   C4545     1.0  0.92465  0.12672  0.58383  1.0000
  C   C4546     1.0  0.91729  0.13967  0.56741  1.0000
  P   P151      1.0  0.94254  0.13353  0.59631  1.0000
  H   H3658     1.0  0.97443  0.29077  0.51482  1.0000
  H   H3659     1.0  0.98786  0.11909  0.36877  1.0000
  H   H3660     1.0  0.91793  0.37024  0.35132  1.0000
  H   H3661     1.0  0.78798  0.01686  0.52686  1.0000
  C   C4547     1.0  0.97425  0.42647  0.34684  1.0000
  C   C4548     1.0  0.98412  0.13158  0.50548  1.0000
  H   H3662     1.0  0.87579  0.06426  0.37739  1.0000
  C   C4549     1.0  0.98534  0.19771  0.60842  1.0000
  H   H3663     1.0  0.78891  0.27826  0.46547  1.0000
  C   C4550     1.0  0.96932  0.02432  0.32111  1.0000
  C   C4551     1.0  0.74647  0.38803  0.56312  1.0000
  C   C4552     1.0  0.94955  0.15733  0.58365  1.0000
  C   C4553     1.0  0.93635  0.17528  0.58646  1.0000
  C   C4554     1.0  0.94123  0.19373  0.57597  1.0000
  C   C4555     1.0  0.95925  0.19435  0.56251  1.0000
  Fe  Fe312     1.0  0.80353  0.42482  0.63714  1.0000
  H   H3664     1.0  0.85317  0.16790  0.45123  1.0000
  H   H3665     1.0  0.89926  0.14339  0.54418  1.0000
  H   H3666     1.0  0.89018  0.10933  0.55432  1.0000
  H   H3667     1.0  0.90321  0.08625  0.58301  1.0000
  H   H3668     1.0  0.92528  0.09702  0.60171  1.0000
  H   H3669     1.0  0.92157  0.15434  0.56224  1.0000
  C   C4556     1.0  0.76743  0.22960  0.46116  1.0000
  H   H3670     1.0  0.91162  0.30487  0.58624  1.0000
  C   C4557     1.0  0.75144  0.40230  0.39712  1.0000
  H   H3671     1.0  0.93314  0.99354  0.53815  1.0000
  C   C4558     1.0  0.84016  0.44115  0.35134  1.0000
  C   C4559     1.0  0.82679  0.01734  0.64803  1.0000
  H   H3672     1.0  0.92220  0.17497  0.59660  1.0000
  H   H3673     1.0  0.93097  0.20753  0.57812  1.0000
  C   C4560     1.0  0.97625  0.33526  0.63173  1.0000
  C   C4561     1.0  0.95413  0.35140  0.54083  1.0000
  C   C4562     1.0  0.78394  0.00409  0.52265  1.0000
  C   C4563     1.0  0.80666  0.28990  0.41579  1.0000
  H   H3674     1.0  0.91913  0.06771  0.63461  1.0000
  H   H3675     1.0  0.81016  0.30275  0.40461  1.0000
  C   C4564     1.0  0.75448  0.00187  0.39934  1.0000
  C   C4565     1.0  0.89797  0.06938  0.32839  1.0000
  H   H3676     1.0  0.79160  0.19149  0.47150  1.0000
  S   S631      1.0  0.97731  0.12008  0.44416  1.0000
  H   H3677     1.0  0.85658  0.03434  0.33212  1.0000
  H   H3678     1.0  0.90274  0.45861  0.60893  1.0000
  H   H3679     1.0  0.90528  0.12426  0.62365  1.0000
  H   H3680     1.0  0.75528  0.07799  0.45403  1.0000
  H   H3681     1.0  0.83153  0.99593  0.51482  1.0000
  H   H3682     1.0  0.97239  0.11473  0.62348  1.0000
  C   C4566     1.0  0.96853  0.39261  0.42832  1.0000
  C   C4567     1.0  0.90239  0.46569  0.41342  1.0000
  H   H3683     1.0  0.94598  0.04000  0.36477  1.0000
  C   C4568     1.0  0.97462  0.46324  0.61111  1.0000
  C   C4569     1.0  0.92655  0.41707  0.57219  1.0000
  C   C4570     1.0  0.74107  0.00909  0.46533  1.0000
  C   C4571     1.0  0.97575  0.10765  0.61026  1.0000
  C   C4572     1.0  0.89708  0.40772  0.31738  1.0000
  C   C4573     1.0  0.98322  0.36171  0.54800  1.0000
  H   H3684     1.0  0.98812  0.38451  0.38290  1.0000
  C   C4574     1.0  0.85757  0.40631  0.63528  1.0000
  C   C4575     1.0  0.77070  0.25810  0.51560  1.0000
  H   H3685     1.0  0.78616  0.01711  0.49136  1.0000
  H   H3686     1.0  0.98385  0.07037  0.52087  1.0000
  C   C4576     1.0  0.75780  0.43421  0.43065  1.0000
  C   C4577     1.0  0.78819  0.44766  0.41556  1.0000
  C   C4578     1.0  0.89422  0.99270  0.36139  1.0000
  C   C4579     1.0  0.81099  0.21378  0.45976  1.0000
  C   C4580     1.0  0.78297  0.00422  0.50256  1.0000
  C   C4581     1.0  0.84267  0.45536  0.36216  1.0000
  C   C4582     1.0  0.86050  0.46322  0.35788  1.0000
  H   H3687     1.0  0.74459  0.41498  0.38734  1.0000
  H   H3688     1.0  0.88611  0.42704  0.37993  1.0000
  C   C4583     1.0  0.98039  0.30065  0.50169  1.0000
  H   H3689     1.0  0.97048  0.20129  0.60441  1.0000
  H   H3690     1.0  0.96157  0.10944  0.56503  1.0000
  H   H3691     1.0  0.97029  0.17372  0.43700  1.0000
  H   H3692     1.0  0.93863  0.03479  0.33284  1.0000
  C   C4584     1.0  0.97201  0.05438  0.45006  1.0000
  H   H3693     1.0  0.75008  0.07436  0.52753  1.0000
  C   C4585     1.0  0.90304  0.36574  0.32828  1.0000
  C   C4586     1.0  0.91406  0.13033  0.63164  1.0000
  C   C4587     1.0  0.93169  0.39656  0.57112  1.0000
  Fe  Fe313     1.0  0.84104  0.99324  0.55571  1.0000
  H   H3694     1.0  0.88808  0.08996  0.34958  1.0000
  H   H3695     1.0  0.85863  0.07317  0.59365  1.0000
  C   C4588     1.0  0.96271  0.17529  0.46857  1.0000
  C   C4589     1.0  0.94661  0.04656  0.40368  1.0000
  H   H3696     1.0  0.79649  0.30714  0.43987  1.0000
  C   C4590     1.0  0.84780  0.48179  0.62765  1.0000
  C   C4591     1.0  0.79756  0.25666  0.44488  1.0000
  H   H3697     1.0  0.88277  0.44053  0.63829  1.0000
  S   S632      1.0  0.74385  0.45375  0.35641  1.0000
  H   H3698     1.0  0.88367  0.35432  0.61716  1.0000
  C   C4592     1.0  0.96967  0.10447  0.57761  1.0000
  C   C4593     1.0  0.95809  0.38124  0.44466  1.0000
  H   H3699     1.0  0.82112  0.99455  0.48262  1.0000
  H   H3700     1.0  0.85306  0.42415  0.32762  1.0000
  H   H3701     1.0  0.87712  0.02991  0.64318  1.0000
  H   H3702     1.0  0.75975  0.25886  0.48836  1.0000
  C   C4594     1.0  0.74176  0.03048  0.55169  1.0000
  H   H3703     1.0  0.78384  0.06057  0.47141  1.0000
  H   H3704     1.0  0.81851  0.22408  0.49350  1.0000
  P   P152      1.0  0.98354  0.03570  0.38014  1.0000
  C   C4595     1.0  0.89994  0.04957  0.32531  1.0000
  C   C4596     1.0  0.95104  0.41358  0.59394  1.0000
  C   C4597     1.0  0.77001  0.06725  0.47989  1.0000
  H   H3705     1.0  0.78047  0.98792  0.55276  1.0000
  H   H3706     1.0  0.91431  0.02052  0.43787  1.0000
  H   H3707     1.0  0.91213  0.40723  0.34232  1.0000
  C   C4598     1.0  0.86511  0.25961  0.53708  1.0000
  C   C4599     1.0  0.86386  0.24496  0.55430  1.0000
  C   C4600     1.0  0.87129  0.22479  0.55283  1.0000
  C   C4601     1.0  0.87982  0.21921  0.53410  1.0000
  C   C4602     1.0  0.88086  0.23384  0.51669  1.0000
  C   C4603     1.0  0.87373  0.25409  0.51838  1.0000
  P   P153      1.0  0.89128  0.22704  0.49222  1.0000
  C   C4604     1.0  0.89137  0.20057  0.49336  1.0000
  C   C4605     1.0  0.87544  0.24207  0.47478  1.0000
  C   C4606     1.0  0.88377  0.25079  0.45552  1.0000
  C   C4607     1.0  0.87154  0.26369  0.44277  1.0000
  C   C4608     1.0  0.85091  0.26808  0.44919  1.0000
  C   C4609     1.0  0.84246  0.25951  0.46834  1.0000
  C   C4610     1.0  0.85462  0.24646  0.48104  1.0000
  C   C4611     1.0  0.90787  0.18642  0.49897  1.0000
  C   C4612     1.0  0.90776  0.16586  0.50079  1.0000
  C   C4613     1.0  0.89110  0.15925  0.49721  1.0000
  C   C4614     1.0  0.87467  0.17319  0.49160  1.0000
  C   C4615     1.0  0.87475  0.19379  0.48966  1.0000
  C   C4616     1.0  0.91673  0.23187  0.48468  1.0000
  C   C4617     1.0  0.92447  0.24346  0.49503  1.0000
  C   C4618     1.0  0.94405  0.24743  0.48876  1.0000
  C   C4619     1.0  0.95596  0.24001  0.47207  1.0000
  C   C4620     1.0  0.94847  0.22825  0.46190  1.0000
  C   C4621     1.0  0.92899  0.22408  0.46818  1.0000
  H   H3708     1.0  0.85929  0.27526  0.53815  1.0000
  H   H3709     1.0  0.85706  0.24926  0.56877  1.0000
  H   H3710     1.0  0.87028  0.21342  0.56619  1.0000
  H   H3711     1.0  0.88536  0.20351  0.53326  1.0000
  H   H3712     1.0  0.87469  0.26559  0.50514  1.0000
  H   H3713     1.0  0.89972  0.24812  0.45036  1.0000
  H   H3714     1.0  0.87815  0.27076  0.42810  1.0000
  H   H3715     1.0  0.84159  0.27868  0.43957  1.0000
  H   H3716     1.0  0.82658  0.26366  0.47361  1.0000
  H   H3717     1.0  0.84785  0.24038  0.49599  1.0000
  H   H3718     1.0  0.92085  0.19125  0.50193  1.0000
  H   H3719     1.0  0.92068  0.15501  0.50466  1.0000
  H   H3720     1.0  0.89107  0.14331  0.49833  1.0000
  H   H3721     1.0  0.86198  0.16789  0.48852  1.0000
  H   H3722     1.0  0.86189  0.20429  0.48522  1.0000
  H   H3723     1.0  0.91545  0.24963  0.50778  1.0000
  H   H3724     1.0  0.94992  0.25663  0.49654  1.0000
  C   C4622     1.0  0.96400  0.35666  0.55459  1.0000
  H   H3725     1.0  0.95769  0.22263  0.44889  1.0000
  H   H3726     1.0  0.92338  0.21517  0.45983  1.0000
  C   C4623     1.0  0.97985  0.40896  0.33834  1.0000
  P   P154      1.0  0.78486  0.44444  0.50616  1.0000
  C   C4624     1.0  0.86760  0.04994  0.61763  1.0000
  S   S633      1.0  0.79193  0.37818  0.59518  1.0000
  H   H3727     1.0  0.77873  0.98717  0.48113  1.0000
  C   C4625     1.0  0.96383  0.34611  0.61813  1.0000
  H   H3728     1.0  0.94979  0.16791  0.47069  1.0000
  H   H3729     1.0  0.97325  0.37963  0.33867  1.0000
  H   H3730     1.0  0.81849  0.16253  0.46617  1.0000
  S   S634      1.0  0.85790  1.00000  0.57756  1.0000
  C   C4626     1.0  0.95181  0.39536  0.35995  1.0000
  C   C4627     1.0  0.94612  0.41284  0.36872  1.0000
  C   C4628     1.0  0.95748  0.42841  0.36196  1.0000
  P   P155      1.0  0.92691  0.41379  0.39080  1.0000
  C   C4629     1.0  0.90734  0.40046  0.38894  1.0000
  C   C4630     1.0  0.88902  0.41085  0.38335  1.0000
  C   C4631     1.0  0.87400  0.40030  0.38227  1.0000
  C   C4632     1.0  0.87710  0.37935  0.38672  1.0000
  C   C4633     1.0  0.89526  0.36893  0.39216  1.0000
  C   C4634     1.0  0.91025  0.37939  0.39333  1.0000
  C   C4635     1.0  0.93870  0.40202  0.41247  1.0000
  C   C4636     1.0  0.95883  0.40315  0.41239  1.0000
  H   H3731     1.0  0.91500  0.42632  0.56425  1.0000
  C   C4637     1.0  0.92913  0.32828  0.58310  1.0000
  C   C4638     1.0  0.93782  0.38078  0.44530  1.0000
  C   C4639     1.0  0.92810  0.39121  0.42933  1.0000
  C   C4640     1.0  0.79898  0.29238  0.43566  1.0000
  H   H3732     1.0  0.97224  0.99868  0.40638  1.0000
  C   C4641     1.0  0.75612  0.36616  0.64150  1.0000
  H   H3733     1.0  0.94415  0.38264  0.36552  1.0000
  H   H3734     1.0  0.95391  0.44174  0.36893  1.0000
  H   H3735     1.0  0.85986  0.40835  0.37810  1.0000
  H   H3736     1.0  0.86542  0.37112  0.38611  1.0000
  H   H3737     1.0  0.89770  0.35267  0.39562  1.0000
  H   H3738     1.0  0.92408  0.37097  0.39783  1.0000
  H   H3739     1.0  0.91498  0.43562  0.42518  1.0000
  H   H3740     1.0  0.96729  0.41162  0.39977  1.0000
  H   H3741     1.0  0.95653  0.34562  0.51060  1.0000
  C   C4642     1.0  0.80979  0.27087  0.41037  1.0000
  S   S635      1.0  0.98662  0.13528  0.52942  1.0000
  H   H3742     1.0  0.91251  0.39032  0.42993  1.0000
  C   C4643     1.0  0.96241  0.03083  0.39961  1.0000
  C   C4644     1.0  0.84143  0.18066  0.45378  1.0000
  H   H3743     1.0  0.98327  0.43830  0.34215  1.0000
  C   C4645     1.0  0.87886  0.48370  0.60419  1.0000
  S   S636      1.0  0.77693  0.04214  0.55431  1.0000
  H   H3744     1.0  0.83058  0.46072  0.37348  1.0000
  C   C4646     1.0  0.85544  0.43489  0.33612  1.0000
  C   C4647     1.0  0.86423  0.06980  0.60784  1.0000
  H   H3745     1.0  0.89915  0.47059  0.42791  1.0000
  C   C4648     1.0  0.96057  0.01119  0.40943  1.0000
  C   C4649     1.0  0.74119  0.23148  0.44153  1.0000
  H   H3746     1.0  0.87842  0.02944  0.37205  1.0000
  H   H3747     1.0  0.95828  0.42007  0.60308  1.0000
  C   C4650     1.0  0.94317  0.14443  0.63303  1.0000
  C   C4651     1.0  0.87619  0.45495  0.63069  1.0000
  C   C4652     1.0  0.97577  0.47310  0.57515  1.0000
  S   S637      1.0  0.80633  0.47272  0.57229  1.0000
  C   C4653     1.0  0.81941  0.41640  0.51249  1.0000
  C   C4654     1.0  0.87539  0.08072  0.63457  1.0000
  C   C4655     1.0  0.89653  0.29626  0.50979  1.0000
  C   C4656     1.0  0.90854  0.28868  0.52461  1.0000
  C   C4657     1.0  0.90301  0.29477  0.54340  1.0000
  C   C4658     1.0  0.88572  0.30890  0.54720  1.0000
  C   C4659     1.0  0.87403  0.31728  0.53207  1.0000
  C   C4660     1.0  0.87907  0.31016  0.51365  1.0000
  P   P156      1.0  0.85193  0.33575  0.53723  1.0000
  C   C4661     1.0  0.83281  0.32129  0.55060  1.0000
  C   C4662     1.0  0.85709  0.35282  0.55171  1.0000
  C   C4663     1.0  0.87665  0.35682  0.54975  1.0000
  C   C4664     1.0  0.88090  0.36896  0.56192  1.0000
  C   C4665     1.0  0.86565  0.37739  0.57596  1.0000
  C   C4666     1.0  0.84604  0.37414  0.57740  1.0000
  C   C4667     1.0  0.84169  0.36221  0.56508  1.0000
  C   C4668     1.0  0.82204  0.31315  0.53977  1.0000
  C   C4669     1.0  0.80688  0.30231  0.54983  1.0000
  C   C4670     1.0  0.80260  0.29917  0.57081  1.0000
  C   C4671     1.0  0.81379  0.30653  0.58176  1.0000
  C   C4672     1.0  0.82902  0.31737  0.57171  1.0000
  C   C4673     1.0  0.84386  0.35091  0.51470  1.0000
  C   C4674     1.0  0.85779  0.35534  0.49724  1.0000
  C   C4675     1.0  0.85116  0.36498  0.47926  1.0000
  C   C4676     1.0  0.83066  0.37097  0.47879  1.0000
  C   C4677     1.0  0.81680  0.36783  0.49641  1.0000
  C   C4678     1.0  0.82336  0.35801  0.51434  1.0000
  H   H3748     1.0  0.90098  0.29160  0.49514  1.0000
  H   H3749     1.0  0.92233  0.27830  0.52140  1.0000
  H   H3750     1.0  0.91235  0.28876  0.55484  1.0000
  H   H3751     1.0  0.88161  0.31351  0.56184  1.0000
  H   H3752     1.0  0.86976  0.31545  0.50212  1.0000
  H   H3753     1.0  0.88867  0.35041  0.53898  1.0000
  H   H3754     1.0  0.89607  0.37164  0.56065  1.0000
  H   H3755     1.0  0.86892  0.38663  0.58559  1.0000
  H   H3756     1.0  0.83410  0.38098  0.58799  1.0000
  H   H3757     1.0  0.82632  0.36019  0.56622  1.0000
  H   H3758     1.0  0.82512  0.31541  0.52348  1.0000
  H   H3759     1.0  0.79828  0.29659  0.54125  1.0000
  H   H3760     1.0  0.79056  0.29111  0.57856  1.0000
  H   H3761     1.0  0.81043  0.30415  0.59803  1.0000
  H   H3762     1.0  0.83751  0.32290  0.58046  1.0000
  H   H3763     1.0  0.87373  0.35072  0.49725  1.0000
  H   H3764     1.0  0.86189  0.36726  0.46552  1.0000
  H   H3765     1.0  0.82554  0.37781  0.46471  1.0000
  H   H3766     1.0  0.80089  0.37252  0.49613  1.0000
  H   H3767     1.0  0.81231  0.35549  0.52776  1.0000
  C   C4679     1.0  0.98518  0.18995  0.48218  1.0000
  C   C4680     1.0  0.77281  0.98951  0.39447  1.0000
  C   C4681     1.0  0.97427  0.17864  0.44951  1.0000
  C   C4682     1.0  0.80371  0.23885  0.51841  1.0000
  C   C4683     1.0  0.96828  0.18076  0.48493  1.0000
  C   C4684     1.0  0.79058  0.41072  0.46193  1.0000
  C   C4685     1.0  0.77524  0.39932  0.46890  1.0000
  C   C4686     1.0  0.76283  0.40153  0.48726  1.0000
  C   C4687     1.0  0.76542  0.41539  0.49847  1.0000
  C   C4688     1.0  0.78032  0.42747  0.49119  1.0000
  C   C4689     1.0  0.79301  0.42488  0.47288  1.0000
  C   C4690     1.0  0.80510  0.43207  0.51967  1.0000
  C   C4691     1.0  0.83560  0.40763  0.52245  1.0000
  C   C4692     1.0  0.83770  0.41449  0.53958  1.0000
  C   C4693     1.0  0.82335  0.42973  0.54707  1.0000
  C   C4694     1.0  0.80706  0.43845  0.53724  1.0000
  H   H3768     1.0  0.80053  0.40862  0.44795  1.0000
  H   H3769     1.0  0.77306  0.38864  0.46017  1.0000
  H   H3770     1.0  0.82649  0.02672  0.63345  1.0000
  C   C4695     1.0  0.96384  0.35028  0.52108  1.0000
  H   H3771     1.0  0.84656  0.39556  0.51684  1.0000
  H   H3772     1.0  0.85042  0.40804  0.54707  1.0000
  H   H3773     1.0  0.82489  0.43490  0.56048  1.0000
  H   H3774     1.0  0.79616  0.45037  0.54324  1.0000
  C   C4696     1.0  0.74876  0.45265  0.43674  1.0000
  C   C4697     1.0  0.92942  0.04285  0.41745  1.0000
  C   C4698     1.0  0.97389  0.03503  0.44586  1.0000
  H   H3775     1.0  0.80328  0.44575  0.40716  1.0000
  H   H3776     1.0  0.95724  0.14937  0.62597  1.0000
  Fe  Fe314     1.0  0.79367  0.45011  0.59766  1.0000
  C   C4699     1.0  0.98614  0.44462  0.60810  1.0000
  C   C4700     1.0  0.91907  0.00187  0.32077  1.0000
  H   H3777     1.0  0.75445  0.48130  0.50708  1.0000
  H   H3778     1.0  0.80501  0.43357  0.46723  1.0000
  H   H3779     1.0  0.81829  0.41089  0.49918  1.0000
  C   C4701     1.0  0.96968  0.30743  0.48569  1.0000
  C   C4702     1.0  0.78444  0.47421  0.47203  1.0000
  C   C4703     1.0  0.80195  0.47934  0.49737  1.0000
  C   C4704     1.0  0.96781  0.15816  0.57052  1.0000
  C   C4705     1.0  0.87486  0.04540  0.63590  1.0000
  H   H3780     1.0  0.94727  0.06171  0.39586  1.0000
  S   S638      1.0  0.77759  0.40827  0.64148  1.0000
  H   H3781     1.0  0.81575  0.26895  0.39494  1.0000
  C   C4706     1.0  0.85808  0.02114  0.32529  1.0000
  H   H3782     1.0  0.74941  0.98978  0.35963  1.0000
  C   C4707     1.0  0.82186  0.17767  0.46214  1.0000
  H   H3783     1.0  0.94212  0.32038  0.57447  1.0000
  C   C4708     1.0  0.86804  0.08520  0.61635  1.0000
  C   C4709     1.0  0.91012  0.37743  0.33890  1.0000
  C   C4710     1.0  0.80511  0.23358  0.49948  1.0000
  H   H3784     1.0  0.94191  0.99233  0.43079  1.0000
  C   C4711     1.0  0.97684  0.47243  0.36736  1.0000
  H   H3785     1.0  0.74288  0.03959  0.53697  1.0000
  C   C4712     1.0  0.93619  0.42555  0.58367  1.0000
  H   H3786     1.0  0.78235  0.99305  0.38016  1.0000
  C   C4713     1.0  0.75568  0.21996  0.47800  1.0000
  H   H3787     1.0  0.86522  0.10060  0.60879  1.0000
  C   C4714     1.0  0.98792  0.07336  0.35694  1.0000
  H   H3788     1.0  0.78425  0.41766  0.41523  1.0000
  H   H3789     1.0  0.97089  0.24361  0.46685  1.0000
  C   C4715     1.0  0.94329  0.00748  0.42322  1.0000
  H   H3790     1.0  0.97053  0.46659  0.62626  1.0000
  P   P157      1.0  0.89576  0.00897  0.33717  1.0000
  H   H3791     1.0  0.86450  0.03806  0.61100  1.0000
  C   C4716     1.0  0.87582  0.45699  0.34265  1.0000
  H   H3792     1.0  0.91733  0.05524  0.42030  1.0000
  H   H3793     1.0  0.96784  0.38419  0.60091  1.0000
  C   C4717     1.0  0.88743  0.46517  0.61410  1.0000
  H   H3794     1.0  0.98420  0.09925  0.40314  1.0000
  Fe  Fe315     1.0  0.82837  0.00365  0.59807  1.0000
  C   C4718     1.0  0.75540  0.01652  0.58223  1.0000
  Fe  Fe316     1.0  0.75997  0.43852  0.63147  1.0000
  Fe  Fe317     1.0  0.75387  0.46474  0.32349  1.0000
  S   S639      1.0  0.78558  0.46520  0.36495  1.0000
  H   H3795     1.0  0.92413  0.39015  0.56219  1.0000
  H   H3796     1.0  0.95059  0.35629  0.62350  1.0000
  H   H3797     1.0  0.76693  0.01498  0.59131  1.0000
  H   H3798     1.0  0.76860  0.24278  0.42966  1.0000
  H   H3799     1.0  0.96071  0.02957  0.44438  1.0000
  C   C4719     1.0  0.95387  0.03118  0.33578  1.0000
  C   C4720     1.0  0.98588  0.06196  0.37634  1.0000
  H   H3800     1.0  0.91764  0.00379  0.37063  1.0000
  H   H3801     1.0  0.78548  0.25546  0.54096  1.0000
  C   C4721     1.0  0.93720  0.08341  0.64605  1.0000
  H   H3802     1.0  0.86111  0.20239  0.44208  1.0000
  H   H3803     1.0  0.91379  0.37003  0.60534  1.0000
  C   C4722     1.0  0.94638  0.38437  0.58169  1.0000
  S   S640      1.0  0.95208  0.48321  0.37555  1.0000
  H   H3804     1.0  0.93906  0.34813  0.54520  1.0000
  C   C4723     1.0  0.84590  0.20012  0.44865  1.0000
  H   H3805     1.0  0.88464  0.39614  0.61574  1.0000
  C   C4724     1.0  0.83081  0.21660  0.45172  1.0000
  C   C4725     1.0  0.96869  0.34409  0.59773  1.0000
  H   H3806     1.0  0.95481  0.13537  0.32908  1.0000
  C   C4726     1.0  0.97802  0.02993  0.35754  1.0000
  C   C4727     1.0  0.93246  0.13622  0.62216  1.0000
  H   H3807     1.0  0.97292  0.33740  0.64729  1.0000
  H   H3808     1.0  0.94719  0.08580  0.63190  1.0000
  C   C4728     1.0  0.95816  0.03409  0.35389  1.0000
  C   C4729     1.0  0.92966  0.34708  0.58777  1.0000
  C   C4730     1.0  0.90691  0.39835  0.33367  1.0000
  C   C4731     1.0  0.75877  0.39000  0.57638  1.0000
  H   H3809     1.0  0.77578  0.46555  0.46665  1.0000
  C   C4732     1.0  0.97751  0.32012  0.46868  1.0000
  S   S641      1.0  0.81202  0.99454  0.57707  1.0000
  C   C4733     1.0  0.89540  0.32890  0.60186  1.0000
  C   C4734     1.0  0.80516  0.25433  0.42480  1.0000
  S   S642      1.0  0.76697  0.43579  0.59846  1.0000
  C   C4735     1.0  0.91136  0.45330  0.37586  1.0000
  C   C4736     1.0  0.91326  0.35619  0.60039  1.0000
  C   C4737     1.0  0.79451  0.27586  0.45017  1.0000
  H   H3810     1.0  0.97975  0.45384  0.39608  1.0000
  C   C4738     1.0  0.75070  0.07521  0.51158  1.0000
  H   H3811     1.0  0.92982  0.37177  0.45787  1.0000
  H   H3812     1.0  0.83468  0.23149  0.44757  1.0000
  C   C4739     1.0  0.78941  0.24086  0.48834  1.0000
  C   C4740     1.0  0.76835  0.06630  0.50061  1.0000
  H   H3813     1.0  0.80755  0.23971  0.42031  1.0000
  C   C4741     1.0  0.89071  0.39735  0.64499  1.0000
  C   C4742     1.0  0.96425  0.11389  0.59470  1.0000
  H   H3814     1.0  0.81597  0.23352  0.52682  1.0000
  C   C4743     1.0  0.92772  0.02332  0.42723  1.0000
  C   C4744     1.0  0.76258  0.45147  0.52379  1.0000
  C   C4745     1.0  0.89618  0.34719  0.60731  1.0000
  C   C4746     1.0  0.78654  0.25117  0.52642  1.0000
  C   C4747     1.0  0.90193  0.47296  0.37765  1.0000
  C   C4748     1.0  0.75685  0.02861  0.56330  1.0000
  H   H3815     1.0  0.87814  0.09282  0.64106  1.0000
  C   C4749     1.0  0.75392  0.07704  0.47014  1.0000
  H   H3816     1.0  0.93082  0.47601  0.62485  1.0000
  H   H3817     1.0  0.86212  0.47470  0.36589  1.0000
  H   H3818     1.0  0.96916  0.32570  0.45640  1.0000
  C   C4750     1.0  0.74820  0.37577  0.42640  1.0000
  H   H3819     1.0  0.98800  0.06679  0.34389  1.0000
  H   H3820     1.0  0.89811  0.48347  0.36452  1.0000
  C   C4751     1.0  0.95627  0.39310  0.59284  1.0000
  H   H3821     1.0  0.76091  0.21554  0.49234  1.0000
  C   C4752     1.0  0.98701  0.45429  0.57221  1.0000
  C   C4753     1.0  0.98563  0.33034  0.59138  1.0000
  H   H3822     1.0  0.82618  0.43529  0.35442  1.0000
  C   C4754     1.0  0.94991  0.10731  0.32309  1.0000
  C   C4755     1.0  0.75171  0.37231  0.55187  1.0000
  H   H3823     1.0  0.82863  0.02962  0.31700  1.0000
  C   C4756     1.0  0.97247  0.17656  0.55975  1.0000
  H   H3824     1.0  0.98306  0.06299  0.40803  1.0000
  H   H3825     1.0  0.95744  0.06392  0.45158  1.0000
  H   H3826     1.0  0.94307  0.07840  0.32220  1.0000
  C   C4757     1.0  0.98593  0.08880  0.57633  1.0000
  C   C4758     1.0  0.98496  0.07137  0.39294  1.0000
  C   C4759     1.0  0.98785  0.10307  0.37085  1.0000
  H   H3827     1.0  0.98639  0.17693  0.54919  1.0000
  H   H3828     1.0  0.97842  0.14463  0.56831  1.0000
  S   S643      1.0  0.78543  0.44798  0.32350  1.0000
  H   H3829     1.0  0.85024  0.48191  0.54114  1.0000
  H   H3830     1.0  0.77037  0.36267  0.63193  1.0000
  C   C4760     1.0  0.87895  0.06076  0.64446  1.0000
  C   C4761     1.0  0.98910  0.02030  0.32448  1.0000
  C   C4762     1.0  0.87570  0.00682  0.32484  1.0000
  C   C4763     1.0  0.76005  0.23524  0.44286  1.0000
  C   C4764     1.0  0.97971  0.12446  0.46782  1.0000
  C   C4765     1.0  0.98727  0.45848  0.38100  1.0000
  C   C4766     1.0  0.98319  0.35485  0.51484  1.0000
  H   H3831     1.0  0.97268  0.48430  0.56220  1.0000
  C   C4767     1.0  0.75049  0.47038  0.52016  1.0000
  H   H3832     1.0  0.74799  0.01261  0.44983  1.0000
  H   H3833     1.0  0.74979  0.01509  0.38881  1.0000
  C   C4768     1.0  0.98882  0.06138  0.45264  1.0000
  C   C4769     1.0  0.74072  0.02236  0.47846  1.0000
  C   C4770     1.0  0.74219  0.99718  0.41780  1.0000
  C   C4771     1.0  0.85637  0.46318  0.63737  1.0000
  C   C4772     1.0  0.78004  0.98743  0.53724  1.0000
  H   H3834     1.0  0.74730  0.03583  0.47304  1.0000
  Fe  Fe318     1.0  0.79262  0.47552  0.33173  1.0000
  H   H3835     1.0  0.98431  0.39273  0.42766  1.0000
  H   H3836     1.0  0.90536  0.34953  0.33252  1.0000
  H   H3837     1.0  0.76302  0.47941  0.58016  1.0000
  C   C4773     1.0  0.89756  0.47920  0.39636  1.0000
  H   H3838     1.0  0.78761  0.47846  0.41755  1.0000
  C   C4774     1.0  0.98578  0.09187  0.39021  1.0000
  C   C4775     1.0  0.98912  0.09377  0.35422  1.0000
  Fe  Fe319     1.0  0.74369  0.34220  0.47306  1.0000
  Fe  Fe320     1.0  0.75426  0.48084  0.36208  1.0000
  H   H3839     1.0  0.84854  0.48348  0.57679  1.0000
  H   H3840     1.0  0.75279  0.48348  0.43501  1.0000
  H   H3841     1.0  0.98945  0.19359  0.49515  1.0000
  H   H3842     1.0  0.73998  0.37655  0.61678  1.0000
  C   C4776     1.0  0.84213  0.01848  0.31680  1.0000
  H   H3843     1.0  0.98953  0.32797  0.57591  1.0000
  H   H3844     1.0  0.79804  0.03541  0.74188  1.0000
  Fe  Fe321     1.0  0.86253  0.00869  0.76350  1.0000
  C   C4777     1.0  0.88924  0.46770  0.88456  1.0000
  C   C4778     1.0  0.80815  0.46439  0.92308  1.0000
  H   H3845     1.0  0.95512  0.30910  0.91468  1.0000
  Fe  Fe322     1.0  0.96747  0.08593  0.73154  1.0000
  C   C4779     1.0  0.80064  0.15197  0.92315  1.0000
  S   S644      1.0  0.95273  0.06230  0.72433  1.0000
  H   H3846     1.0  0.75323  0.46794  0.94395  1.0000
  H   H3847     1.0  0.95210  0.15793  0.94939  1.0000
  S   S645      1.0  0.87535  0.03022  0.77637  1.0000
  C   C4780     1.0  0.91808  0.22627  0.77120  1.0000
  H   H3848     1.0  0.90020  0.22756  0.80055  1.0000
  C   C4781     1.0  0.97931  0.42966  0.72562  1.0000
  H   H3849     1.0  0.92921  0.22671  0.81711  1.0000
  H   H3850     1.0  0.85329  0.33725  0.97210  1.0000
  S   S646      1.0  0.82552  0.02514  0.70519  1.0000
  C   C4782     1.0  0.82680  0.01390  0.68401  1.0000
  S   S647      1.0  0.82941  0.01292  0.76345  1.0000
  C   C4783     1.0  0.75537  0.05451  0.85453  1.0000
  S   S648      1.0  0.97097  0.18924  0.88222  1.0000
  C   C4784     1.0  0.96223  0.31969  0.91941  1.0000
  C   C4785     1.0  0.78704  0.02622  0.92821  1.0000
  S   S649      1.0  0.96656  0.23722  0.88372  1.0000
  S   S650      1.0  0.98622  0.14020  0.67468  1.0000
  Fe  Fe323     1.0  0.94908  0.21730  0.87483  1.0000
  S   S651      1.0  0.91555  0.22161  0.88412  1.0000
  S   S652      1.0  0.96195  0.22279  0.84200  1.0000
  H   H3851     1.0  0.94702  0.44662  0.77413  1.0000
  Fe  Fe324     1.0  0.91265  0.41709  0.87319  1.0000
  S   S653      1.0  0.92732  0.43576  0.84593  1.0000
  S   S654      1.0  0.89159  0.42727  0.90022  1.0000
  Fe  Fe325     1.0  0.93471  0.37770  0.85994  1.0000
  S   S655      1.0  0.95198  0.39283  0.83184  1.0000
  S   S656      1.0  0.93461  0.34498  0.87244  1.0000
  Fe  Fe326     1.0  0.95559  0.41422  0.85118  1.0000
  H   H3852     1.0  0.80360  0.14317  0.96827  1.0000
  Fe  Fe327     1.0  0.92252  0.41313  0.82871  1.0000
  S   S657      1.0  0.91116  0.42447  0.79932  1.0000
  S   S658      1.0  0.94122  0.39702  0.87969  1.0000
  S   S659      1.0  0.90488  0.39645  0.85547  1.0000
  H   H3853     1.0  0.74274  0.02448  0.91393  1.0000
  S   S660      1.0  0.95405  0.36485  0.67655  1.0000
  C   C4786     1.0  0.94706  0.24580  0.95260  1.0000
  C   C4787     1.0  0.77701  0.46456  0.90128  1.0000
  S   S661      1.0  0.97658  0.39642  0.69059  1.0000
  C   C4788     1.0  0.88437  0.45314  0.90118  1.0000
  H   H3854     1.0  0.75979  0.43004  0.70568  1.0000
  C   C4789     1.0  0.95437  0.16544  0.96099  1.0000
  Fe  Fe328     1.0  0.94868  0.38288  0.70153  1.0000
  S   S662      1.0  0.94391  0.36779  0.73386  1.0000
  H   H3855     1.0  0.84608  0.18385  0.84306  1.0000
  C   C4790     1.0  0.74820  0.03735  0.75936  1.0000
  H   H3856     1.0  0.75634  0.00072  0.96482  1.0000
  C   C4791     1.0  0.84922  0.41098  0.65439  1.0000
  C   C4792     1.0  0.82572  0.44200  0.94845  1.0000
  C   C4793     1.0  0.95601  0.44229  0.76044  1.0000
  H   H3857     1.0  0.86895  0.44801  0.93171  1.0000
  C   C4794     1.0  0.92095  0.40917  0.78083  1.0000
  C   C4795     1.0  0.91762  0.41597  0.76097  1.0000
  C   C4796     1.0  0.92519  0.40363  0.74624  1.0000
  C   C4797     1.0  0.93573  0.38429  0.75147  1.0000
  C   C4798     1.0  0.93924  0.37769  0.77127  1.0000
  C   C4799     1.0  0.93202  0.39015  0.78583  1.0000
  H   H3858     1.0  0.90912  0.43073  0.75697  1.0000
  H   H3859     1.0  0.92242  0.40886  0.73100  1.0000
  H   H3860     1.0  0.94753  0.36294  0.77549  1.0000
  H   H3861     1.0  0.93460  0.38476  0.80105  1.0000
  C   C4800     1.0  0.83433  0.07562  0.70092  1.0000
  H   H3862     1.0  0.95511  0.45761  0.84503  1.0000
  C   C4801     1.0  0.96193  0.24113  0.93649  1.0000
  C   C4802     1.0  0.96873  0.46238  0.84576  1.0000
  S   S663      1.0  0.92847  0.40857  0.68623  1.0000
  H   H3863     1.0  0.82750  0.00024  0.87909  1.0000
  C   C4803     1.0  0.91511  0.22690  0.79177  1.0000
  C   C4804     1.0  0.90877  0.21859  0.91036  1.0000
  C   C4805     1.0  0.88856  0.22272  0.91914  1.0000
  C   C4806     1.0  0.88298  0.21952  0.94017  1.0000
  C   C4807     1.0  0.89775  0.21244  0.95235  1.0000
  C   C4808     1.0  0.91794  0.20884  0.94351  1.0000
  C   C4809     1.0  0.92345  0.21183  0.92259  1.0000
  H   H3864     1.0  0.87731  0.22837  0.90963  1.0000
  H   H3865     1.0  0.86736  0.22235  0.94692  1.0000
  H   H3866     1.0  0.92941  0.20366  0.95285  1.0000
  H   H3867     1.0  0.93907  0.20869  0.91594  1.0000
  C   C4810     1.0  0.94855  0.32528  0.86022  1.0000
  C   C4811     1.0  0.94532  0.30576  0.86864  1.0000
  C   C4812     1.0  0.95628  0.28938  0.85992  1.0000
  C   C4813     1.0  0.97086  0.29221  0.84289  1.0000
  C   C4814     1.0  0.97368  0.31185  0.83394  1.0000
  C   C4815     1.0  0.96264  0.32842  0.84270  1.0000
  H   H3868     1.0  0.93421  0.30326  0.88198  1.0000
  H   H3869     1.0  0.95322  0.27458  0.86637  1.0000
  C   C4816     1.0  0.96986  0.99489  0.73250  1.0000
  H   H3870     1.0  0.96505  0.34350  0.83598  1.0000
  H   H3871     1.0  0.84657  0.07681  0.66969  1.0000
  C   C4817     1.0  0.90689  0.13203  0.65185  1.0000
  S   S664      1.0  0.74491  0.08506  0.97738  1.0000
  Fe  Fe329     1.0  0.98638  0.12066  0.70528  1.0000
  H   H3872     1.0  0.74308  0.00075  0.87331  1.0000
  H   H3873     1.0  0.84753  0.45498  0.65000  1.0000
  H   H3874     1.0  0.84545  0.46372  0.88920  1.0000
  C   C4818     1.0  0.98626  0.16433  0.81441  1.0000
  S   S665      1.0  0.82344  0.42015  0.66066  1.0000
  C   C4819     1.0  0.90538  0.14962  0.92577  1.0000
  C   C4820     1.0  0.89670  0.03951  0.76184  1.0000
  C   C4821     1.0  0.90607  0.03242  0.74406  1.0000
  C   C4822     1.0  0.92300  0.03985  0.73260  1.0000
  C   C4823     1.0  0.93098  0.05423  0.73898  1.0000
  C   C4824     1.0  0.92170  0.06145  0.75675  1.0000
  C   C4825     1.0  0.90455  0.05410  0.76815  1.0000
  H   H3875     1.0  0.90065  0.02079  0.73935  1.0000
  H   H3876     1.0  0.93023  0.03405  0.71900  1.0000
  H   H3877     1.0  0.92780  0.07254  0.76179  1.0000
  H   H3878     1.0  0.89743  0.05964  0.78193  1.0000
  C   C4826     1.0  0.76718  0.04290  0.75526  1.0000
  H   H3879     1.0  0.83377  0.17579  0.87939  1.0000
  C   C4827     1.0  0.87271  0.45918  0.91876  1.0000
  H   H3880     1.0  0.77431  0.03584  0.90135  1.0000
  P   P158      1.0  0.93972  0.47940  0.73950  1.0000
  C   C4828     1.0  0.98686  0.14271  0.78995  1.0000
  C   C4829     1.0  0.76961  0.03944  0.86285  1.0000
  H   H3881     1.0  0.91904  0.14683  0.95192  1.0000
  C   C4830     1.0  0.93146  0.22643  0.80111  1.0000
  H   H3882     1.0  0.85694  0.48399  0.93336  1.0000
  C   C4831     1.0  0.78555  0.28383  0.97484  1.0000
  H   H3883     1.0  0.74583  0.01526  0.65576  1.0000
  H   H3884     1.0  0.93587  0.23621  0.95855  1.0000
  H   H3885     1.0  0.96822  0.45873  0.71017  1.0000
  H   H3886     1.0  0.78114  0.04039  0.93357  1.0000
  H   H3887     1.0  0.77996  0.00966  0.66452  1.0000
  C   C4832     1.0  0.86169  0.40872  0.66879  1.0000
  S   S666      1.0  0.89196  0.20762  0.97867  1.0000
  C   C4833     1.0  0.74559  0.01958  0.75405  1.0000
  H   H3888     1.0  0.85885  0.05248  0.73978  1.0000
  H   H3889     1.0  0.94483  0.15154  0.66175  1.0000
  H   H3890     1.0  0.85532  0.41227  0.68361  1.0000
  H   H3891     1.0  0.89182  0.40015  0.67535  1.0000
  C   C4834     1.0  0.95583  0.45523  0.74190  1.0000
  H   H3892     1.0  0.96693  0.41287  0.77565  1.0000
  H   H3893     1.0  0.82145  0.43142  0.84211  1.0000
  H   H3894     1.0  0.90645  0.30216  0.71116  1.0000
  C   C4835     1.0  0.85632  0.05806  0.72444  1.0000
  C   C4836     1.0  0.76731  0.00630  0.67605  1.0000
  H   H3895     1.0  0.96318  0.22452  0.79765  1.0000
  H   H3896     1.0  0.83535  0.10971  0.92969  1.0000
  H   H3897     1.0  0.79872  0.12051  0.93018  1.0000
  C   C4837     1.0  0.80862  0.13157  0.92692  1.0000
  C   C4838     1.0  0.82920  0.12554  0.92684  1.0000
  C   C4839     1.0  0.84179  0.13993  0.92324  1.0000
  C   C4840     1.0  0.83380  0.16049  0.91984  1.0000
  P   P159      1.0  0.84987  0.17924  0.91509  1.0000
  C   C4841     1.0  0.83612  0.20093  0.92577  1.0000
  C   C4842     1.0  0.87174  0.16905  0.92697  1.0000
  C   C4843     1.0  0.97253  0.19129  0.73915  1.0000
  C   C4844     1.0  0.84004  0.45636  0.87927  1.0000
  C   C4845     1.0  0.81558  0.45382  0.96285  1.0000
  C   C4846     1.0  0.74703  0.98880  0.82158  1.0000
  C   C4847     1.0  0.88838  0.15753  0.91680  1.0000
  C   C4848     1.0  0.83766  0.22048  0.91558  1.0000
  C   C4849     1.0  0.82736  0.23709  0.92434  1.0000
  C   C4850     1.0  0.81328  0.21490  0.95322  1.0000
  C   C4851     1.0  0.82370  0.19830  0.94457  1.0000
  C   C4852     1.0  0.85796  0.18596  0.88837  1.0000
  C   C4853     1.0  0.84728  0.18234  0.87442  1.0000
  C   C4854     1.0  0.85421  0.18693  0.85377  1.0000
  C   C4855     1.0  0.87178  0.19518  0.84693  1.0000
  C   C4856     1.0  0.88233  0.19903  0.86074  1.0000
  C   C4857     1.0  0.87542  0.19450  0.88135  1.0000
  H   H3898     1.0  0.75114  0.48250  0.78482  1.0000
  H   H3899     1.0  0.85766  0.13492  0.92327  1.0000
  C   C4858     1.0  0.97961  0.46154  0.66528  1.0000
  H   H3900     1.0  0.95699  0.29599  0.73023  1.0000
  H   H3901     1.0  0.75328  0.42383  0.91088  1.0000
  H   H3902     1.0  0.75878  0.06951  0.84904  1.0000
  H   H3903     1.0  0.88829  0.15472  0.90187  1.0000
  H   H3904     1.0  0.84695  0.22297  0.90099  1.0000
  H   H3905     1.0  0.82890  0.25214  0.91657  1.0000
  C   C4859     1.0  0.77858  0.99292  0.79890  1.0000
  H   H3906     1.0  0.87733  0.19840  0.83096  1.0000
  H   H3907     1.0  0.89607  0.20526  0.85558  1.0000
  H   H3908     1.0  0.88393  0.19735  0.89183  1.0000
  C   C4860     1.0  0.98111  0.20883  0.73492  1.0000
  H   H3909     1.0  0.96245  0.22772  0.93023  1.0000
  S   S667      1.0  0.98017  0.08812  0.75865  1.0000
  C   C4861     1.0  0.98669  0.05638  0.67064  1.0000
  H   H3910     1.0  0.87589  0.25068  0.96322  1.0000
  H   H3911     1.0  0.98748  0.24956  0.91590  1.0000
  C   C4862     1.0  0.76212  0.00682  0.74528  1.0000
  C   C4863     1.0  0.83856  0.00191  0.82851  1.0000
  H   H3912     1.0  0.86936  0.01979  0.68239  1.0000
  H   H3913     1.0  0.90368  0.44891  0.70066  1.0000
  C   C4864     1.0  0.97878  0.41658  0.74397  1.0000
  C   C4865     1.0  0.74664  0.01573  0.86852  1.0000
  C   C4866     1.0  0.96228  0.35395  0.92311  1.0000
  H   H3914     1.0  0.79692  0.44938  0.86652  1.0000
  C   C4867     1.0  0.91936  0.02219  0.67201  1.0000
  C   C4868     1.0  0.95081  0.22521  0.78994  1.0000
  H   H3915     1.0  0.79389  0.00351  0.73340  1.0000
  C   C4869     1.0  0.75524  0.43942  0.90792  1.0000
  H   H3916     1.0  0.80383  0.21268  0.96782  1.0000
  C   C4870     1.0  0.96649  0.26444  0.74047  1.0000
  H   H3917     1.0  0.89591  0.24748  0.85303  1.0000
  S   S668      1.0  0.87058  0.00433  0.73147  1.0000
  H   H3918     1.0  0.91266  0.14050  0.67849  1.0000
  H   H3919     1.0  0.85475  0.48049  0.97811  1.0000
  C   C4871     1.0  0.78350  0.03071  0.74579  1.0000
  C   C4872     1.0  0.79808  0.01063  0.93984  1.0000
  H   H3920     1.0  0.80735  0.24712  0.95007  1.0000
  C   C4873     1.0  0.97565  0.27108  0.93637  1.0000
  C   C4874     1.0  0.96744  0.42303  0.76142  1.0000
  C   C4875     1.0  0.91798  0.13962  0.66270  1.0000
  C   C4876     1.0  0.81521  0.23430  0.94318  1.0000
  C   C4877     1.0  0.74809  0.00950  0.67114  1.0000
  C   C4878     1.0  0.91180  0.07642  0.68285  1.0000
  H   H3921     1.0  0.90543  0.22639  0.76400  1.0000
  C   C4879     1.0  0.95399  0.22437  0.76930  1.0000
  C   C4880     1.0  0.92784  0.08659  0.68119  1.0000
  C   C4881     1.0  0.75406  0.99431  0.71092  1.0000
  H   H3922     1.0  0.95264  0.48272  0.80076  1.0000
  C   C4882     1.0  0.91891  0.31747  0.98276  1.0000
  H   H3923     1.0  0.92982  0.03262  0.66714  1.0000
  Fe  Fe330     1.0  0.93647  0.39189  0.66003  1.0000
  C   C4883     1.0  0.95787  0.16802  0.79712  1.0000
  H   H3924     1.0  0.95136  0.26135  0.74429  1.0000
  C   C4884     1.0  0.75512  0.36289  0.66233  1.0000
  H   H3925     1.0  0.92451  0.46802  0.91603  1.0000
  H   H3926     1.0  0.96762  0.32465  0.97319  1.0000
  H   H3927     1.0  0.98896  0.18875  0.97147  1.0000
  H   H3928     1.0  0.91158  0.46122  0.77183  1.0000
  S   S669      1.0  0.98581  0.27135  0.83297  1.0000
  C   C4885     1.0  0.86575  0.47962  0.91967  1.0000
  H   H3929     1.0  0.98639  0.17580  0.69367  1.0000
  C   C4886     1.0  0.82662  0.43823  0.85262  1.0000
  C   C4887     1.0  0.84718  0.43709  0.85205  1.0000
  C   C4888     1.0  0.85386  0.44624  0.86531  1.0000
  H   H3930     1.0  0.94562  0.47831  0.88345  1.0000
  C   C4889     1.0  0.81941  0.45692  0.88047  1.0000
  C   C4890     1.0  0.81276  0.44827  0.86665  1.0000
  H   H3931     1.0  0.93863  0.36671  0.97606  1.0000
  P   P160      1.0  0.97883  0.22369  0.75444  1.0000
  H   H3932     1.0  0.89822  0.46323  0.87094  1.0000
  H   H3933     1.0  0.82567  0.07139  0.73317  1.0000
  C   C4891     1.0  0.92686  0.00174  0.67695  1.0000
  C   C4892     1.0  0.90361  0.46176  0.70759  1.0000
  H   H3934     1.0  0.78516  0.99703  0.69951  1.0000
  C   C4893     1.0  0.78320  0.02356  0.90977  1.0000
  H   H3935     1.0  0.85797  0.42928  0.84124  1.0000
  H   H3936     1.0  0.98342  0.17165  0.94563  1.0000
  C   C4894     1.0  0.74881  0.45750  0.68725  1.0000
  Fe  Fe331     1.0  0.95695  0.42080  0.67332  1.0000
  C   C4895     1.0  0.76526  0.02000  0.87017  1.0000
  P   P161      1.0  0.80182  0.47070  0.89809  1.0000
  S   S670      1.0  0.95646  0.11901  0.72462  1.0000
  H   H3937     1.0  0.78411  0.04290  0.86348  1.0000
  H   H3938     1.0  0.87518  0.47726  0.69979  1.0000
  H   H3939     1.0  0.76862  0.35709  0.66883  1.0000
  H   H3940     1.0  0.89290  0.12710  0.65927  1.0000
  C   C4896     1.0  0.89133  0.26528  0.82426  1.0000
  C   C4897     1.0  0.90190  0.25781  0.84025  1.0000
  C   C4898     1.0  0.91997  0.26409  0.84008  1.0000
  C   C4899     1.0  0.92765  0.27763  0.82379  1.0000
  C   C4900     1.0  0.91755  0.28464  0.80726  1.0000
  C   C4901     1.0  0.89896  0.27888  0.80797  1.0000
  P   P162      1.0  0.92613  0.30395  0.78736  1.0000
  C   C4902     1.0  0.91571  0.32712  0.79682  1.0000
  C   C4903     1.0  0.95303  0.30236  0.78151  1.0000
  C   C4904     1.0  0.96101  0.31925  0.77057  1.0000
  H   H3941     1.0  0.88980  0.16714  0.97014  1.0000
  C   C4905     1.0  0.98271  0.47223  0.78710  1.0000
  C   C4906     1.0  0.95412  0.31899  0.98102  1.0000
  C   C4907     1.0  0.96615  0.28457  0.78693  1.0000
  C   C4908     1.0  0.89851  0.33952  0.79063  1.0000
  C   C4909     1.0  0.89060  0.35726  0.79846  1.0000
  C   C4910     1.0  0.89940  0.36237  0.81298  1.0000
  C   C4911     1.0  0.91612  0.34976  0.81968  1.0000
  C   C4912     1.0  0.92430  0.33226  0.81157  1.0000
  C   C4913     1.0  0.91886  0.30351  0.76364  1.0000
  C   C4914     1.0  0.91580  0.28550  0.75900  1.0000
  C   C4915     1.0  0.91114  0.28506  0.74021  1.0000
  C   C4916     1.0  0.91352  0.32032  0.73007  1.0000
  C   C4917     1.0  0.91806  0.32082  0.74887  1.0000
  H   H3942     1.0  0.87701  0.26087  0.82474  1.0000
  H   H3943     1.0  0.92786  0.25870  0.85279  1.0000
  H   H3944     1.0  0.94125  0.28290  0.82437  1.0000
  H   H3945     1.0  0.89010  0.28524  0.79619  1.0000
  H   H3946     1.0  0.95119  0.33282  0.76551  1.0000
  C   C4918     1.0  0.77124  0.27110  0.98091  1.0000
  C   C4919     1.0  0.89633  0.27187  0.95264  1.0000
  H   H3947     1.0  0.78724  0.00197  0.78700  1.0000
  H   H3948     1.0  0.96055  0.27106  0.79479  1.0000
  H   H3949     1.0  0.89116  0.33562  0.77979  1.0000
  H   H3950     1.0  0.87771  0.36712  0.79322  1.0000
  H   H3951     1.0  0.89344  0.37623  0.81887  1.0000
  H   H3952     1.0  0.92288  0.35368  0.83102  1.0000
  H   H3953     1.0  0.93727  0.32266  0.81690  1.0000
  H   H3954     1.0  0.91744  0.27170  0.76971  1.0000
  H   H3955     1.0  0.91299  0.33382  0.71881  1.0000
  H   H3956     1.0  0.92113  0.33475  0.75173  1.0000
  H   H3957     1.0  0.96777  0.16595  0.72778  1.0000
  S   S671      1.0  0.95540  0.14484  0.76967  1.0000
  C   C4920     1.0  0.87973  0.26468  0.96490  1.0000
  H   H3958     1.0  0.93943  0.22469  0.74404  1.0000
  C   C4921     1.0  0.90467  0.47962  0.79488  1.0000
  C   C4922     1.0  0.80323  0.00093  0.84022  1.0000
  C   C4923     1.0  0.89304  0.99449  0.68520  1.0000
  C   C4924     1.0  0.89838  0.34197  0.94896  1.0000
  H   H3959     1.0  0.93652  0.33494  0.95862  1.0000
  Fe  Fe332     1.0  0.97165  0.12172  0.74993  1.0000
  C   C4925     1.0  0.88935  0.16424  0.95532  1.0000
  H   H3960     1.0  0.82220  0.18336  0.95261  1.0000
  C   C4926     1.0  0.94665  0.26279  0.96096  1.0000
  C   C4927     1.0  0.89857  0.02893  0.67384  1.0000
  C   C4928     1.0  0.90204  0.36126  0.94924  1.0000
  C   C4929     1.0  0.90262  0.37571  0.93181  1.0000
  C   C4930     1.0  0.89946  0.37105  0.91396  1.0000
  C   C4931     1.0  0.89560  0.35201  0.91354  1.0000
  C   C4932     1.0  0.89484  0.33757  0.93098  1.0000
  H   H3961     1.0  0.85998  0.18123  0.95459  1.0000
  C   C4933     1.0  0.93968  0.16755  0.97797  1.0000
  H   H3962     1.0  0.90870  0.27115  0.73674  1.0000
  S   S672      1.0  0.76534  0.13546  0.96339  1.0000
  C   C4934     1.0  0.82726  0.99325  0.68598  1.0000
  H   H3963     1.0  0.83660  0.42889  0.95262  1.0000
  H   H3964     1.0  0.93468  0.00353  0.77369  1.0000
  C   C4935     1.0  0.95303  0.33981  0.91802  1.0000
  H   H3965     1.0  0.78856  0.00087  0.83680  1.0000
  H   H3966     1.0  0.91828  0.14105  0.91768  1.0000
  C   C4936     1.0  0.86856  0.06110  0.68848  1.0000
  C   C4937     1.0  0.90585  0.15294  0.94503  1.0000
  C   C4938     1.0  0.97438  0.17953  0.72428  1.0000
  C   C4939     1.0  0.83766  0.06878  0.72071  1.0000
  C   C4940     1.0  0.84131  0.00127  0.84824  1.0000
  C   C4941     1.0  0.98171  0.31878  0.76596  1.0000
  H   H3967     1.0  0.90389  0.36528  0.96310  1.0000
  H   H3968     1.0  0.90508  0.39073  0.93208  1.0000
  H   H3969     1.0  0.89976  0.38230  0.90050  1.0000
  H   H3970     1.0  0.89317  0.34850  0.89959  1.0000
  H   H3971     1.0  0.89105  0.32329  0.93026  1.0000
  H   H3972     1.0  0.95525  0.36962  0.92146  1.0000
  C   C4942     1.0  0.82658  0.02593  0.66501  1.0000
  C   C4943     1.0  0.97396  0.02729  0.69127  1.0000
  H   H3973     1.0  0.78727  0.43245  0.90601  1.0000
  H   H3974     1.0  0.81966  0.08338  0.69806  1.0000
  P   P163      1.0  0.88847  0.05530  0.66802  1.0000
  C   C4944     1.0  0.88238  0.40192  0.66411  1.0000
  H   H3975     1.0  0.91003  0.39507  0.97660  1.0000
  C   C4945     1.0  0.97173  0.04437  0.67650  1.0000
  H   H3976     1.0  0.93527  0.26622  0.97367  1.0000
  H   H3977     1.0  0.95290  0.09806  0.66170  1.0000
  H   H3978     1.0  0.93071  0.09134  0.69436  1.0000
  H   H3979     1.0  0.95946  0.18610  0.81901  1.0000
  H   H3980     1.0  0.81744  0.00199  0.80929  1.0000
  S   S673      1.0  0.95620  0.45369  0.67239  1.0000
  C   C4946     1.0  0.97199  0.17327  0.95880  1.0000
  P   P164      1.0  0.89604  0.32434  0.97225  1.0000
  C   C4947     1.0  0.96765  0.15224  0.78666  1.0000
  H   H3981     1.0  0.78461  0.15657  0.92358  1.0000
  H   H3982     1.0  0.80662  0.18213  0.91670  1.0000
  C   C4948     1.0  0.90994  0.30248  0.72577  1.0000
  C   C4949     1.0  0.98089  0.31357  0.92589  1.0000
  H   H3983     1.0  0.75183  0.01537  0.79997  1.0000
  C   C4950     1.0  0.77444  0.44436  0.90511  1.0000
  C   C4951     1.0  0.81316  0.16639  0.91950  1.0000
  H   H3984     1.0  0.82974  0.43755  0.91788  1.0000
  C   C4952     1.0  0.93741  0.22514  0.75997  1.0000
  C   C4953     1.0  0.87162  0.05405  0.70841  1.0000
  C   C4954     1.0  0.82193  0.44714  0.92865  1.0000
  H   H3985     1.0  0.86979  0.44545  0.86478  1.0000
  C   C4955     1.0  0.79796  0.47608  0.93768  1.0000
  H   H3986     1.0  0.88581  0.04525  0.71156  1.0000
  H   H3987     1.0  0.93149  0.44935  0.71758  1.0000
  C   C4956     1.0  0.98072  0.34794  0.92984  1.0000
  H   H3988     1.0  0.80094  0.01279  0.95414  1.0000
  H   H3989     1.0  0.94286  0.99663  0.67598  1.0000
  Fe  Fe333     1.0  0.98054  0.38045  0.66428  1.0000
  C   C4957     1.0  0.87236  0.17229  0.94636  1.0000
  H   H3990     1.0  0.90260  0.07358  0.69742  1.0000
  C   C4958     1.0  0.74092  0.47471  0.90385  1.0000
  C   C4959     1.0  0.84970  0.07181  0.68483  1.0000
  C   C4960     1.0  0.96963  0.28407  0.73239  1.0000
  C   C4961     1.0  0.91955  0.46215  0.71721  1.0000
  H   H3991     1.0  0.95804  0.04867  0.67022  1.0000
  C   C4962     1.0  0.91370  0.98790  0.68352  1.0000
  C   C4963     1.0  0.96714  0.17408  0.81092  1.0000
  H   H3992     1.0  0.76922  0.05676  0.75915  1.0000
  H   H3993     1.0  0.93888  0.34454  0.91252  1.0000
  C   C4964     1.0  0.90127  0.28992  0.95500  1.0000
  C   C4965     1.0  0.79021  0.00511  0.90291  1.0000
  C   C4966     1.0  0.91422  0.47462  0.77621  1.0000
  P   P165      1.0  0.78429  0.00055  0.87990  1.0000
  H   H3994     1.0  0.96189  0.01864  0.69612  1.0000
  C   C4967     1.0  0.79217  0.15265  0.97696  1.0000
  H   H3995     1.0  0.91154  0.47692  0.65899  1.0000
  H   H3996     1.0  0.96458  0.18653  0.75404  1.0000
  C   C4968     1.0  0.90824  0.06975  0.66603  1.0000
  H   H3997     1.0  0.98467  0.31421  0.82048  1.0000
  H   H3998     1.0  0.79500  0.28394  0.96026  1.0000
  C   C4969     1.0  0.80585  0.00022  0.86010  1.0000
  C   C4970     1.0  0.82503  0.00045  0.86401  1.0000
  H   H3999     1.0  0.82615  0.04195  0.66345  1.0000
  C   C4971     1.0  0.80529  0.99229  0.93304  1.0000
  C   C4972     1.0  0.96904  0.48293  0.84391  1.0000
  H   H4000     1.0  0.94302  0.17550  0.79462  1.0000
  C   C4973     1.0  0.78107  0.01264  0.74094  1.0000
  C   C4974     1.0  0.98072  0.48170  0.66470  1.0000
  H   H4001     1.0  0.98816  0.42478  0.71206  1.0000
  H   H4002     1.0  0.98695  0.40138  0.74463  1.0000
  C   C4975     1.0  0.80170  0.47080  0.95745  1.0000
  Fe  Fe334     1.0  0.98540  0.19625  0.84987  1.0000
  C   C4976     1.0  0.96060  0.00222  0.75032  1.0000
  C   C4977     1.0  0.96074  0.27548  0.95274  1.0000
  C   C4978     1.0  0.97622  0.25365  0.92841  1.0000
  C   C4979     1.0  0.96801  0.44895  0.72461  1.0000
  H   H4003     1.0  0.75891  0.45394  0.67374  1.0000
  C   C4980     1.0  0.86825  0.27534  0.97968  1.0000
  H   H4004     1.0  0.98472  0.06996  0.65968  1.0000
  Fe  Fe335     1.0  0.83797  0.00579  0.73198  1.0000
  C   C4981     1.0  0.74918  0.44396  0.70524  1.0000
  H   H4005     1.0  0.90536  0.26337  0.94134  1.0000
  C   C4982     1.0  0.93643  0.32484  0.97278  1.0000
  H   H4006     1.0  0.97912  0.22537  0.97352  1.0000
  H   H4007     1.0  0.96750  0.01175  0.75665  1.0000
  C   C4983     1.0  0.81954  0.00168  0.82454  1.0000
  C   C4984     1.0  0.92440  0.48382  0.91003  1.0000
  C   C4985     1.0  0.75852  0.00048  0.80626  1.0000
  H   H4008     1.0  0.79399  0.48010  0.96854  1.0000
  C   C4986     1.0  0.94194  0.99749  0.76017  1.0000
  C   C4987     1.0  0.88547  0.01491  0.68047  1.0000
  H   H4009     1.0  0.78696  0.09479  0.97489  1.0000
  H   H4010     1.0  0.98804  0.35901  0.93344  1.0000
  C   C4988     1.0  0.76003  0.47968  0.90126  1.0000
  C   C4989     1.0  0.94047  0.09020  0.66280  1.0000
  C   C4990     1.0  0.74075  0.00125  0.97169  1.0000
  H   H4011     1.0  0.89517  0.46980  0.80492  1.0000
  C   C4991     1.0  0.88931  0.30115  0.96933  1.0000
  C   C4992     1.0  0.98494  0.18507  0.70509  1.0000
  H   H4012     1.0  0.91431  0.29521  0.94549  1.0000
  H   H4013     1.0  0.85115  0.00264  0.81624  1.0000
  Fe  Fe336     1.0  0.98101  0.24102  0.85136  1.0000
  H   H4014     1.0  0.76590  0.45785  0.97619  1.0000
  C   C4993     1.0  0.77182  0.15137  0.97797  1.0000
  C   C4994     1.0  0.74283  0.46548  0.95783  1.0000
  H   H4015     1.0  0.85609  0.00155  0.85122  1.0000
  C   C4995     1.0  0.97489  0.18338  0.97345  1.0000
  H   H4016     1.0  0.82384  0.09202  0.97041  1.0000
  C   C4996     1.0  0.91973  0.47872  0.72624  1.0000
  H   H4017     1.0  0.95996  0.28875  0.95912  1.0000
  C   C4997     1.0  0.98603  0.44829  0.84825  1.0000
  S   S674      1.0  0.98593  0.42242  0.85008  1.0000
  C   C4998     1.0  0.93609  0.14586  0.65327  1.0000
  C   C4999     1.0  0.74995  0.46008  0.97615  1.0000
  H   H4018     1.0  0.97895  0.45830  0.78515  1.0000
  C   C5000     1.0  0.98280  0.24902  0.74358  1.0000
  C   C5001     1.0  0.80133  0.98951  0.91470  1.0000
  H   H4019     1.0  0.76948  0.26137  0.97102  1.0000
  C   C5002     1.0  0.88761  0.47776  0.70707  1.0000
  H   H4020     1.0  0.92587  0.16175  0.97967  1.0000
  H   H4021     1.0  0.81852  0.44991  0.97818  1.0000
  C   C5003     1.0  0.77024  0.99897  0.69589  1.0000
  C   C5004     1.0  0.87306  0.29342  0.98207  1.0000
  H   H4022     1.0  0.98760  0.33203  0.75764  1.0000
  H   H4023     1.0  0.98915  0.31273  0.88589  1.0000
  C   C5005     1.0  0.98690  0.28424  0.78256  1.0000
  C   C5006     1.0  0.98909  0.28844  0.72720  1.0000
  H   H4024     1.0  0.79897  0.30607  0.98311  1.0000
  C   C5007     1.0  0.82689  0.99671  0.65008  1.0000
  H   H4025     1.0  0.83088  0.51341  0.24909  1.0000
  H   H4026     1.0  0.89573  0.73459  0.02451  1.0000
  H   H4027     1.0  0.91526  0.96452  0.17803  1.0000
  H   H4028     1.0  0.93913  0.76928  0.02989  1.0000
  C   C5008     1.0  0.81653  0.49253  0.23963  1.0000
  C   C5009     1.0  0.94112  0.67245  0.98508  1.0000
  S   S675      1.0  0.77097  0.81212  0.01158  1.0000
  S   S676      1.0  0.84273  0.67211  0.03197  1.0000
  C   C5010     1.0  0.77728  0.96109  0.26423  1.0000
  Fe  Fe337     1.0  0.86793  0.68321  0.04030  1.0000
  S   S677      1.0  0.87491  0.67267  0.07186  1.0000
  Fe  Fe338     1.0  0.94243  0.69988  0.13342  1.0000
  S   S678      1.0  0.95831  0.66833  0.13171  1.0000
  S   S679      1.0  0.92648  0.71871  0.10843  1.0000
  Fe  Fe339     1.0  0.95722  0.70155  0.17251  1.0000
  C   C5011     1.0  0.87243  0.56225  0.29911  1.0000
  S   S680      1.0  0.95278  0.72377  0.19472  1.0000
  H   H4029     1.0  0.80860  0.91646  0.27846  1.0000
  Fe  Fe340     1.0  0.94700  0.66223  0.16474  1.0000
  S   S681      1.0  0.93555  0.63336  0.18026  1.0000
  H   H4030     1.0  0.96692  0.51707  0.11709  1.0000
  S   S682      1.0  0.92920  0.69327  0.16610  1.0000
  Fe  Fe341     1.0  0.83529  0.94373  0.23758  1.0000
  S   S683      1.0  0.86544  0.94960  0.22096  1.0000
  S   S684      1.0  0.81049  0.93433  0.22593  1.0000
  Fe  Fe342     1.0  0.84440  0.94939  0.27728  1.0000
  S   S685      1.0  0.87546  0.95566  0.26427  1.0000
  H   H4031     1.0  0.74379  0.85840  0.13388  1.0000
  Fe  Fe343     1.0  0.87799  0.93024  0.24732  1.0000
  S   S686      1.0  0.90835  0.91170  0.23870  1.0000
  S   S687      1.0  0.83000  0.97065  0.25291  1.0000
  S   S688      1.0  0.84818  0.92204  0.26279  1.0000
  H   H4032     1.0  0.90170  0.75814  0.08768  1.0000
  C   C5012     1.0  0.98266  0.58019  0.30357  1.0000
  S   S689      1.0  0.93841  0.82750  0.28914  1.0000
  Fe  Fe344     1.0  0.90059  0.54116  0.15466  1.0000
  S   S690      1.0  0.87264  0.53068  0.17303  1.0000
  S   S691      1.0  0.90329  0.57328  0.13926  1.0000
  Fe  Fe345     1.0  0.92417  0.49908  0.16065  1.0000
  H   H4033     1.0  0.89025  0.62801  0.08447  1.0000
  Fe  Fe346     1.0  0.88041  0.50367  0.15711  1.0000
  C   C5013     1.0  0.77242  0.96047  0.00474  1.0000
  Fe  Fe347     1.0  0.89296  0.51301  0.19463  1.0000
  S   S692      1.0  0.88371  0.51278  0.22836  1.0000
  S   S693      1.0  0.90653  0.51594  0.13666  1.0000
  S   S694      1.0  0.92023  0.52502  0.17705  1.0000
  H   H4034     1.0  0.80531  0.49182  0.02683  1.0000
  C   C5014     1.0  0.89224  0.91015  0.14542  1.0000
  S   S695      1.0  0.94515  0.52849  0.27950  1.0000
  H   H4035     1.0  0.78805  0.88032  0.08947  1.0000
  C   C5015     1.0  0.81995  0.91090  0.15154  1.0000
  H   H4036     1.0  0.97221  0.73763  0.27543  1.0000
  H   H4037     1.0  0.94568  0.58018  0.11481  1.0000
  C   C5016     1.0  0.90092  0.51696  0.24255  1.0000
  C   C5017     1.0  0.92113  0.51710  0.23431  1.0000
  C   C5018     1.0  0.93456  0.52012  0.24597  1.0000
  C   C5019     1.0  0.92785  0.52380  0.26573  1.0000
  C   C5020     1.0  0.90766  0.52356  0.27407  1.0000
  C   C5021     1.0  0.89429  0.52002  0.26257  1.0000
  H   H4038     1.0  0.92654  0.51459  0.21903  1.0000
  H   H4039     1.0  0.95019  0.51988  0.23949  1.0000
  H   H4040     1.0  0.90235  0.52612  0.28935  1.0000
  H   H4041     1.0  0.87871  0.51990  0.26914  1.0000
  C   C5022     1.0  0.91632  0.88799  0.25235  1.0000
  C   C5023     1.0  0.90268  0.87695  0.26537  1.0000
  C   C5024     1.0  0.90959  0.85810  0.27616  1.0000
  C   C5025     1.0  0.93015  0.85035  0.27415  1.0000
  C   C5026     1.0  0.94376  0.86118  0.26075  1.0000
  C   C5027     1.0  0.93683  0.87993  0.24981  1.0000
  H   H4042     1.0  0.88686  0.88303  0.26729  1.0000
  H   H4043     1.0  0.89901  0.84967  0.28638  1.0000
  H   H4044     1.0  0.95962  0.85523  0.25900  1.0000
  H   H4045     1.0  0.94742  0.88832  0.23955  1.0000
  C   C5028     1.0  0.95251  0.60886  0.07760  1.0000
  P   P166      1.0  0.94253  0.92279  0.29601  1.0000
  S   S696      1.0  0.97775  0.78045  0.29378  1.0000
  C   C5029     1.0  0.96025  0.74876  0.21821  1.0000
  H   H4046     1.0  0.94521  0.75650  0.21682  1.0000
  C   C5030     1.0  0.92790  0.61672  0.16765  1.0000
  C   C5031     1.0  0.92349  0.62226  0.14809  1.0000
  C   C5032     1.0  0.91630  0.60871  0.13938  1.0000
  C   C5033     1.0  0.91374  0.58945  0.15002  1.0000
  C   C5034     1.0  0.91898  0.58371  0.16921  1.0000
  C   C5035     1.0  0.92577  0.59736  0.17799  1.0000
  H   H4047     1.0  0.92512  0.63711  0.13987  1.0000
  H   H4048     1.0  0.91243  0.61331  0.12446  1.0000
  H   H4049     1.0  0.91706  0.56903  0.17763  1.0000
  H   H4050     1.0  0.92925  0.59302  0.19300  1.0000
  C   C5036     1.0  0.88914  0.68576  0.08177  1.0000
  C   C5037     1.0  0.89478  0.70385  0.07129  1.0000
  C   C5038     1.0  0.90630  0.71387  0.07952  1.0000
  C   C5039     1.0  0.91220  0.70584  0.09827  1.0000
  C   C5040     1.0  0.90654  0.68773  0.10874  1.0000
  C   C5041     1.0  0.89499  0.67776  0.10052  1.0000
  H   H4051     1.0  0.89016  0.71008  0.05691  1.0000
  H   H4052     1.0  0.91084  0.72774  0.07123  1.0000
  H   H4053     1.0  0.91099  0.68142  0.12322  1.0000
  H   H4054     1.0  0.89069  0.66373  0.10870  1.0000
  C   C5042     1.0  0.77965  0.78589  0.01322  1.0000
  C   C5043     1.0  0.80014  0.77893  0.00726  1.0000
  C   C5044     1.0  0.80766  0.75820  0.00862  1.0000
  C   C5045     1.0  0.79464  0.74422  0.01572  1.0000
  C   C5046     1.0  0.77413  0.75120  0.02164  1.0000
  C   C5047     1.0  0.76667  0.77191  0.02052  1.0000
  C   C5048     1.0  0.77055  0.88477  0.00067  1.0000
  H   H4055     1.0  0.82346  0.75306  0.00393  1.0000
  H   H4056     1.0  0.76397  0.74049  0.02715  1.0000
  C   C5049     1.0  0.96816  0.73196  0.20856  1.0000
  C   C5050     1.0  0.78978  0.96483  0.16597  1.0000
  C   C5051     1.0  0.78296  0.94732  0.17667  1.0000
  C   C5052     1.0  0.78945  0.93811  0.19499  1.0000
  C   C5053     1.0  0.80289  0.94624  0.20272  1.0000
  C   C5054     1.0  0.80980  0.96368  0.19199  1.0000
  C   C5055     1.0  0.86884  0.80175  0.09125  1.0000
  H   H4057     1.0  0.78406  0.92460  0.20319  1.0000
  H   H4058     1.0  0.92871  0.95058  0.22757  1.0000
  H   H4059     1.0  0.89808  0.79054  0.09961  1.0000
  Fe  Fe348     1.0  0.87988  0.70417  0.99748  1.0000
  C   C5056     1.0  0.83769  0.90874  0.15928  1.0000
  S   S697      1.0  0.85551  0.49262  0.14645  1.0000
  H   H4060     1.0  0.84174  0.89546  0.16999  1.0000
  H   H4061     1.0  0.78459  0.50518  0.00009  1.0000
  H   H4062     1.0  0.93510  0.64226  0.98955  1.0000
  C   C5057     1.0  0.78620  0.91470  0.04656  1.0000
  C   C5058     1.0  0.77258  0.90744  0.03820  1.0000
  C   C5059     1.0  0.76430  0.89060  0.04884  1.0000
  P   P167      1.0  0.76343  0.92126  0.01569  1.0000
  H   H4063     1.0  0.80382  0.91799  0.99299  1.0000
  C   C5060     1.0  0.77901  0.93995  0.00374  1.0000
  C   C5061     1.0  0.90466  0.56336  0.00628  1.0000
  C   C5062     1.0  0.74133  0.49025  0.24529  1.0000
  H   H4064     1.0  0.90868  0.93306  0.17051  1.0000
  H   H4065     1.0  0.95460  0.75839  0.09877  1.0000
  H   H4066     1.0  0.82986  0.51542  0.11630  1.0000
  C   C5063     1.0  0.95673  0.66065  0.02094  1.0000
  H   H4067     1.0  0.92783  0.75767  0.12857  1.0000
  C   C5064     1.0  0.96718  0.75869  0.15120  1.0000
  C   C5065     1.0  0.85625  0.62392  0.98480  1.0000
  C   C5066     1.0  0.76402  0.90566  0.99712  1.0000
  C   C5067     1.0  0.86234  0.96139  0.16893  1.0000
  C   C5068     1.0  0.91714  0.97688  0.26643  1.0000
  H   H4068     1.0  0.89029  0.97833  0.31589  1.0000
  H   H4069     1.0  0.92762  0.92297  0.10514  1.0000
  C   C5069     1.0  0.95059  0.73857  0.02604  1.0000
  C   C5070     1.0  0.96992  0.53237  0.11350  1.0000
  H   H4070     1.0  0.79199  0.92830  0.03935  1.0000
  H   H4071     1.0  0.75276  0.88551  0.04343  1.0000
  H   H4072     1.0  0.80033  0.57691  0.30807  1.0000
  C   C5071     1.0  0.97769  0.57199  0.10514  1.0000
  H   H4073     1.0  0.88515  0.52076  0.01047  1.0000
  C   C5072     1.0  0.77658  0.97516  0.24663  1.0000
  H   H4074     1.0  0.86028  0.49858  0.30455  1.0000
  H   H4075     1.0  0.96519  0.76856  0.23700  1.0000
  H   H4076     1.0  0.80565  0.91889  0.31416  1.0000
  C   C5073     1.0  0.98735  0.70783  0.00522  1.0000
  C   C5074     1.0  0.91869  0.91358  0.11647  1.0000
  C   C5075     1.0  0.95804  0.56807  0.11206  1.0000
  C   C5076     1.0  0.77228  0.80880  0.08555  1.0000
  C   C5077     1.0  0.74628  0.97917  0.27987  1.0000
  C   C5078     1.0  0.78606  0.80338  0.09891  1.0000
  H   H4077     1.0  0.94713  0.70174  0.98526  1.0000
  C   C5079     1.0  0.95806  0.75906  0.11329  1.0000
  P   P168      1.0  0.98257  0.59744  0.10161  1.0000
  C   C5080     1.0  0.91564  0.75387  0.02753  1.0000
  C   C5081     1.0  0.94255  0.64805  0.08594  1.0000
  C   C5082     1.0  0.93722  0.62238  0.06909  1.0000
  H   H4078     1.0  0.94100  0.92395  0.25398  1.0000
  Fe  Fe349     1.0  0.98397  0.67842  0.14037  1.0000
  H   H4079     1.0  0.92172  0.70504  0.02213  1.0000
  C   C5083     1.0  0.97295  0.68798  0.04509  1.0000
  C   C5084     1.0  0.92594  0.71894  0.02359  1.0000
  S   S698      1.0  0.75104  0.89834  0.12165  1.0000
  S   S699      1.0  0.82141  0.48681  0.31587  1.0000
  Fe  Fe350     1.0  0.74480  0.93218  0.11715  1.0000
  H   H4080     1.0  0.76414  0.86733  0.07488  1.0000
  C   C5085     1.0  0.82686  0.94229  0.13091  1.0000
  H   H4081     1.0  0.93592  0.75759  0.16222  1.0000
  H   H4082     1.0  0.93871  0.66324  0.08918  1.0000
  C   C5086     1.0  0.91096  0.73574  0.02524  1.0000
  Fe  Fe351     1.0  0.86429  0.66472  0.00445  1.0000
  Fe  Fe352     1.0  0.86148  0.97466  0.23864  1.0000
  H   H4083     1.0  0.84095  0.53079  0.21454  1.0000
  C   C5087     1.0  0.94291  0.75871  0.13010  1.0000
  H   H4084     1.0  0.87397  0.59432  0.98755  1.0000
  H   H4085     1.0  0.97544  0.56319  0.23905  1.0000
  C   C5088     1.0  0.93546  0.75525  0.02806  1.0000
  C   C5089     1.0  0.97155  0.75564  0.22973  1.0000
  C   C5090     1.0  0.95866  0.73221  0.30661  1.0000
  H   H4086     1.0  0.86564  0.51158  0.10103  1.0000
  C   C5091     1.0  0.80515  0.79264  0.09311  1.0000
  C   C5092     1.0  0.81080  0.78779  0.07365  1.0000
  C   C5093     1.0  0.77055  0.88037  0.06679  1.0000
  P   P169      1.0  0.83523  0.77352  0.06616  1.0000
  C   C5094     1.0  0.85500  0.77900  0.07694  1.0000
  C   C5095     1.0  0.83252  0.74736  0.07284  1.0000
  C   C5096     1.0  0.83993  0.73510  0.08959  1.0000
  C   C5097     1.0  0.83884  0.71460  0.09368  1.0000
  C   C5098     1.0  0.82966  0.70636  0.08161  1.0000
  C   C5099     1.0  0.82131  0.71865  0.06560  1.0000
  C   C5100     1.0  0.82276  0.73907  0.06118  1.0000
  C   C5101     1.0  0.84351  0.77944  0.03942  1.0000
  C   C5102     1.0  0.83788  0.79869  0.02872  1.0000
  C   C5103     1.0  0.85711  0.78824  0.99792  1.0000
  C   C5104     1.0  0.86328  0.76928  0.00860  1.0000
  C   C5105     1.0  0.85667  0.76499  0.02932  1.0000
  C   C5106     1.0  0.95674  0.68046  0.01066  1.0000
  S   S700      1.0  0.96901  0.71040  0.13965  1.0000
  H   H4087     1.0  0.78841  0.97331  0.23386  1.0000
  H   H4088     1.0  0.81544  0.78806  0.10383  1.0000
  H   H4089     1.0  0.84682  0.74114  0.09938  1.0000
  H   H4090     1.0  0.84546  0.70495  0.10598  1.0000
  H   H4091     1.0  0.82925  0.69037  0.08450  1.0000
  H   H4092     1.0  0.81410  0.71226  0.05630  1.0000
  H   H4093     1.0  0.81655  0.74827  0.04845  1.0000
  C   C5107     1.0  0.76703  0.89511  0.29663  1.0000
  C   C5108     1.0  0.90375  0.92226  0.13062  1.0000
  H   H4094     1.0  0.87304  0.75783  0.00076  1.0000
  H   H4095     1.0  0.86175  0.75039  0.03753  1.0000
  C   C5109     1.0  0.81114  0.61778  0.03454  1.0000
  C   C5110     1.0  0.80551  0.61030  0.01941  1.0000
  C   C5111     1.0  0.81504  0.59158  0.01462  1.0000
  C   C5112     1.0  0.83068  0.58062  0.02445  1.0000
  C   C5113     1.0  0.83691  0.58831  0.03923  1.0000
  C   C5114     1.0  0.82653  0.60669  0.04468  1.0000
  P   P170      1.0  0.85746  0.57425  0.05161  1.0000
  C   C5115     1.0  0.84848  0.55528  0.07164  1.0000
  C   C5116     1.0  0.87573  0.56238  0.03295  1.0000
  C   C5117     1.0  0.89128  0.57217  0.02145  1.0000
  H   H4096     1.0  0.91293  0.86465  0.13157  1.0000
  C   C5118     1.0  0.87374  0.54372  0.02890  1.0000
  C   C5119     1.0  0.82816  0.55737  0.08043  1.0000
  C   C5120     1.0  0.82145  0.54296  0.09641  1.0000
  C   C5121     1.0  0.83497  0.52647  0.10376  1.0000
  C   C5122     1.0  0.85520  0.52430  0.09510  1.0000
  C   C5123     1.0  0.86196  0.53862  0.07907  1.0000
  C   C5124     1.0  0.86876  0.59084  0.06180  1.0000
  C   C5125     1.0  0.87134  0.60990  0.05085  1.0000
  C   C5126     1.0  0.87921  0.62316  0.05892  1.0000
  C   C5127     1.0  0.88463  0.61751  0.07801  1.0000
  C   C5128     1.0  0.88248  0.59846  0.08891  1.0000
  C   C5129     1.0  0.87458  0.58515  0.08088  1.0000
  H   H4097     1.0  0.80381  0.63235  0.03820  1.0000
  H   H4098     1.0  0.79393  0.61908  0.01120  1.0000
  C   C5130     1.0  0.79844  0.93374  0.99387  1.0000
  H   H4099     1.0  0.83804  0.56634  0.02015  1.0000
  H   H4100     1.0  0.83050  0.61271  0.05648  1.0000
  H   H4101     1.0  0.89284  0.58684  0.02372  1.0000
  H   H4102     1.0  0.90179  0.92106  0.29013  1.0000
  H   H4103     1.0  0.86152  0.53607  0.03707  1.0000
  H   H4104     1.0  0.81752  0.57016  0.07510  1.0000
  H   H4105     1.0  0.80579  0.54463  0.10321  1.0000
  S   S701      1.0  0.74853  0.98529  0.05618  1.0000
  H   H4106     1.0  0.75634  0.88842  0.29160  1.0000
  H   H4107     1.0  0.87775  0.53686  0.07270  1.0000
  H   H4108     1.0  0.86689  0.61469  0.03620  1.0000
  H   H4109     1.0  0.88071  0.63800  0.05052  1.0000
  H   H4110     1.0  0.88667  0.59411  0.10374  1.0000
  H   H4111     1.0  0.87286  0.57063  0.08982  1.0000
  C   C5131     1.0  0.87403  0.60142  0.18872  1.0000
  C   C5132     1.0  0.86954  0.58257  0.18849  1.0000
  C   C5133     1.0  0.87170  0.56728  0.20500  1.0000
  C   C5134     1.0  0.87853  0.57070  0.22160  1.0000
  C   C5135     1.0  0.88308  0.58958  0.22197  1.0000
  C   C5136     1.0  0.88085  0.60494  0.20536  1.0000
  P   P171      1.0  0.89196  0.59349  0.24367  1.0000
  C   C5137     1.0  0.87642  0.58223  0.26568  1.0000
  C   C5138     1.0  0.91813  0.58272  0.24302  1.0000
  C   C5139     1.0  0.92929  0.58845  0.25530  1.0000
  C   C5140     1.0  0.94989  0.58138  0.25392  1.0000
  C   C5141     1.0  0.95952  0.56874  0.24009  1.0000
  C   C5142     1.0  0.94853  0.56306  0.22776  1.0000
  C   C5143     1.0  0.92786  0.56971  0.22945  1.0000
  C   C5144     1.0  0.85587  0.58341  0.26560  1.0000
  C   C5145     1.0  0.88464  0.57154  0.28258  1.0000
  C   C5146     1.0  0.88990  0.62009  0.24333  1.0000
  C   C5147     1.0  0.90443  0.63052  0.23072  1.0000
  C   C5148     1.0  0.90285  0.65122  0.22966  1.0000
  C   C5149     1.0  0.88682  0.66167  0.24136  1.0000
  C   C5150     1.0  0.87234  0.65140  0.25411  1.0000
  C   C5151     1.0  0.87382  0.63066  0.25508  1.0000
  H   H4112     1.0  0.87303  0.61306  0.17563  1.0000
  H   H4113     1.0  0.86496  0.57968  0.17527  1.0000
  H   H4114     1.0  0.86843  0.55261  0.20490  1.0000
  H   H4115     1.0  0.88045  0.55851  0.23408  1.0000
  H   H4116     1.0  0.88479  0.61948  0.20484  1.0000
  H   H4117     1.0  0.92210  0.59853  0.26583  1.0000
  H   H4118     1.0  0.95838  0.58574  0.26351  1.0000
  H   H4119     1.0  0.81074  0.58582  0.00279  1.0000
  H   H4120     1.0  0.95594  0.55322  0.21707  1.0000
  H   H4121     1.0  0.91968  0.56487  0.21988  1.0000
  H   H4122     1.0  0.84924  0.59137  0.25263  1.0000
  H   H4123     1.0  0.90051  0.56987  0.28285  1.0000
  H   H4124     1.0  0.91683  0.62270  0.22132  1.0000
  H   H4125     1.0  0.91397  0.65913  0.21949  1.0000
  H   H4126     1.0  0.88559  0.67776  0.24038  1.0000
  H   H4127     1.0  0.85986  0.65956  0.26306  1.0000
  H   H4128     1.0  0.86237  0.62302  0.26486  1.0000
  C   C5152     1.0  0.88617  0.78746  0.09307  1.0000
  H   H4129     1.0  0.78185  0.80736  0.11382  1.0000
  H   H4130     1.0  0.95622  0.59378  0.07411  1.0000
  H   H4131     1.0  0.76666  0.80693  0.05628  1.0000
  P   P172      1.0  0.96556  0.69877  0.02098  1.0000
  Fe  Fe353     1.0  0.97111  0.81373  0.28298  1.0000
  C   C5153     1.0  0.93441  0.88483  0.31420  1.0000
  S   S702      1.0  0.84746  0.50889  0.00572  1.0000
  H   H4132     1.0  0.84026  0.80902  0.08137  1.0000
  H   H4133     1.0  0.91270  0.53808  0.99045  1.0000
  S   S703      1.0  0.97402  0.66982  0.17372  1.0000
  C   C5154     1.0  0.89544  0.88937  0.14548  1.0000
  H   H4134     1.0  0.97890  0.94069  0.28615  1.0000
  H   H4135     1.0  0.78965  0.94869  0.26483  1.0000
  P   P173      1.0  0.87268  0.92121  0.16347  1.0000
  C   C5155     1.0  0.88911  0.88244  0.21308  1.0000
  C   C5156     1.0  0.87105  0.88264  0.22652  1.0000
  C   C5157     1.0  0.85354  0.89451  0.22081  1.0000
  C   C5158     1.0  0.85404  0.90603  0.20161  1.0000
  C   C5159     1.0  0.87193  0.90533  0.18776  1.0000
  C   C5160     1.0  0.88962  0.89389  0.19383  1.0000
  H   H4136     1.0  0.96940  0.59014  0.29921  1.0000
  H   H4137     1.0  0.98652  0.61550  0.17804  1.0000
  H   H4138     1.0  0.86211  0.97393  0.30100  1.0000
  H   H4139     1.0  0.96582  0.73997  0.02647  1.0000
  C   C5161     1.0  0.92739  0.90318  0.30267  1.0000
  C   C5162     1.0  0.98789  0.56110  0.29815  1.0000
  H   H4140     1.0  0.80189  0.91082  0.07161  1.0000
  H   H4141     1.0  0.75088  0.77704  0.02518  1.0000
  C   C5163     1.0  0.78266  0.90243  0.28274  1.0000
  H   H4142     1.0  0.91356  0.98455  0.23525  1.0000
  H   H4143     1.0  0.78411  0.90158  0.26691  1.0000
  H   H4144     1.0  0.75458  0.96948  0.21839  1.0000
  C   C5164     1.0  0.76216  0.96304  0.28087  1.0000
  C   C5165     1.0  0.81696  0.49656  0.20373  1.0000
  C   C5166     1.0  0.97079  0.68869  0.08056  1.0000
  H   H4145     1.0  0.83972  0.81768  0.99970  1.0000
  H   H4146     1.0  0.96193  0.65583  0.03522  1.0000
  H   H4147     1.0  0.76278  0.95202  0.29447  1.0000
  H   H4148     1.0  0.98306  0.81023  0.18054  1.0000
  H   H4149     1.0  0.90284  0.87392  0.21787  1.0000
  H   H4150     1.0  0.87076  0.87400  0.24151  1.0000
  H   H4151     1.0  0.83962  0.89519  0.23139  1.0000
  H   H4152     1.0  0.84049  0.91566  0.19765  1.0000
  C   C5167     1.0  0.84987  0.92369  0.15332  1.0000
  S   S704      1.0  0.78182  0.97722  0.14304  1.0000
  H   H4153     1.0  0.96575  0.58112  0.14343  1.0000
  C   C5168     1.0  0.80466  0.96805  0.98682  1.0000
  H   H4154     1.0  0.93907  0.54548  0.12196  1.0000
  C   C5169     1.0  0.79652  0.79250  0.06069  1.0000
  H   H4155     1.0  0.93367  0.88610  0.10591  1.0000
  C   C5170     1.0  0.94919  0.64688  0.01320  1.0000
  C   C5171     1.0  0.81445  0.92775  0.13751  1.0000
  H   H4156     1.0  0.82007  0.97013  0.19784  1.0000
  H   H4157     1.0  0.98362  0.50270  0.27467  1.0000
  C   C5172     1.0  0.92410  0.96179  0.28155  1.0000
  H   H4158     1.0  0.96384  0.69536  0.09377  1.0000
  H   H4159     1.0  0.81024  0.78963  0.00145  1.0000
  C   C5173     1.0  0.94144  0.65276  0.99525  1.0000
  H   H4160     1.0  0.87879  0.55377  0.31203  1.0000
  C   C5174     1.0  0.84384  0.57378  0.28199  1.0000
  H   H4161     1.0  0.97873  0.55624  0.28949  1.0000
  S   S705      1.0  0.87221  0.63349  0.99624  1.0000
  H   H4162     1.0  0.88636  0.87985  0.15648  1.0000
  C   C5175     1.0  0.85210  0.56324  0.29878  1.0000
  C   C5176     1.0  0.97263  0.89548  0.27738  1.0000
  C   C5177     1.0  0.91911  0.97295  0.24691  1.0000
  C   C5178     1.0  0.77746  0.80317  0.06653  1.0000
  H   H4163     1.0  0.84723  0.96049  0.16758  1.0000
  S   S706      1.0  0.80315  0.71800  0.01714  1.0000
  H   H4164     1.0  0.85409  0.95154  0.13319  1.0000
  C   C5179     1.0  0.85337  0.79762  0.08305  1.0000
  C   C5180     1.0  0.84457  0.80300  0.00801  1.0000
  H   H4165     1.0  0.87494  0.75104  0.07244  1.0000
  C   C5181     1.0  0.74885  0.98049  0.20643  1.0000
  H   H4166     1.0  0.95082  0.70805  0.06222  1.0000
  C   C5182     1.0  0.96267  0.61478  0.09070  1.0000
  C   C5183     1.0  0.74418  0.48731  0.21035  1.0000
  C   C5184     1.0  0.78205  0.49138  0.01023  1.0000
  C   C5185     1.0  0.89684  0.94601  0.17068  1.0000
  H   H4167     1.0  0.86740  0.81603  0.09619  1.0000
  C   C5186     1.0  0.87288  0.76513  0.07794  1.0000
  H   H4168     1.0  0.77266  0.94090  0.17084  1.0000
  Fe  Fe354     1.0  0.83598  0.70317  0.01407  1.0000
  C   C5187     1.0  0.98712  0.67309  0.08158  1.0000
  H   H4169     1.0  0.83153  0.52039  0.18548  1.0000
  S   S707      1.0  0.85965  0.71468  0.02462  1.0000
  C   C5188     1.0  0.86620  0.97919  0.17311  1.0000
  H   H4170     1.0  0.92024  0.65242  0.06684  1.0000
  S   S708      1.0  0.89004  0.67366  0.01412  1.0000
  H   H4171     1.0  0.74696  0.94577  0.04706  1.0000
  H   H4172     1.0  0.81308  0.49224  0.19085  1.0000
  S   S709      1.0  0.76860  0.95082  0.10241  1.0000
  Fe  Fe355     1.0  0.75915  0.96673  0.12919  1.0000
  H   H4173     1.0  0.82822  0.57414  0.28142  1.0000
  C   C5189     1.0  0.88823  0.76922  0.08631  1.0000
  H   H4174     1.0  0.96822  0.58871  0.17609  1.0000
  C   C5190     1.0  0.94597  0.72030  0.02359  1.0000
  H   H4175     1.0  0.92283  0.96529  0.29640  1.0000
  H   H4176     1.0  0.82235  0.95548  0.12023  1.0000
  H   H4177     1.0  0.86788  0.93182  0.31196  1.0000
  C   C5191     1.0  0.94852  0.68628  0.99284  1.0000
  C   C5192     1.0  0.91041  0.88073  0.13133  1.0000
  C   C5193     1.0  0.97299  0.72804  0.28991  1.0000
  C   C5194     1.0  0.96353  0.69599  0.06248  1.0000
  C   C5195     1.0  0.93454  0.93873  0.25763  1.0000
  H   H4178     1.0  0.96530  0.63949  0.10456  1.0000
  C   C5196     1.0  0.92773  0.95386  0.24255  1.0000
  C   C5197     1.0  0.90759  0.90705  0.29897  1.0000
  C   C5198     1.0  0.78412  0.88763  0.07497  1.0000
  C   C5199     1.0  0.90063  0.96379  0.17498  1.0000
  H   H4179     1.0  0.81027  0.89966  0.15663  1.0000
  Fe  Fe356     1.0  0.93570  0.53170  0.31233  1.0000
  C   C5200     1.0  0.82697  0.50864  0.23646  1.0000
  C   C5201     1.0  0.83256  0.51855  0.21696  1.0000
  H   H4180     1.0  0.92904  0.61762  0.05943  1.0000
  C   C5202     1.0  0.89495  0.89285  0.30691  1.0000
  C   C5203     1.0  0.93223  0.64197  0.07327  1.0000
  C   C5204     1.0  0.82736  0.51265  0.20063  1.0000
  C   C5205     1.0  0.97444  0.59245  0.14374  1.0000
  H   H4181     1.0  0.90389  0.89407  0.18392  1.0000
  C   C5206     1.0  0.95764  0.63451  0.09468  1.0000
  H   H4182     1.0  0.80002  0.78790  0.04606  1.0000
  C   C5207     1.0  0.98764  0.72212  0.21059  1.0000
  C   C5208     1.0  0.92208  0.89282  0.11687  1.0000
  C   C5209     1.0  0.90256  0.54478  0.00239  1.0000
  H   H4183     1.0  0.90393  0.76683  0.02881  1.0000
  C   C5210     1.0  0.80337  0.97282  0.17362  1.0000
  C   C5211     1.0  0.79187  0.90484  0.06491  1.0000
  C   C5212     1.0  0.95422  0.54836  0.11623  1.0000
  H   H4184     1.0  0.80041  0.92973  0.13195  1.0000
  C   C5213     1.0  0.79651  0.91085  0.28926  1.0000
  H   H4185     1.0  0.75746  0.81709  0.09000  1.0000
  C   C5214     1.0  0.84464  0.94016  0.13857  1.0000
  S   S710      1.0  0.82730  0.95181  0.30859  1.0000
  C   C5215     1.0  0.98258  0.75896  0.13441  1.0000
  H   H4186     1.0  0.82819  0.81031  0.03627  1.0000
  H   H4187     1.0  0.90113  0.93840  0.12992  1.0000
  Fe  Fe357     1.0  0.74354  0.97235  0.08939  1.0000
  C   C5216     1.0  0.96788  0.91372  0.28488  1.0000
  H   H4188     1.0  0.98540  0.79506  0.15024  1.0000
  C   C5217     1.0  0.93277  0.94255  0.27724  1.0000
  H   H4189     1.0  0.96145  0.88605  0.27891  1.0000
  H   H4190     1.0  0.93063  0.49084  0.29705  1.0000
  C   C5218     1.0  0.81120  0.94774  0.98542  1.0000
  C   C5219     1.0  0.94747  0.75864  0.14902  1.0000
  C   C5220     1.0  0.87771  0.94477  0.16736  1.0000
  H   H4191     1.0  0.77624  0.87734  0.01425  1.0000
  H   H4192     1.0  0.94888  0.63178  0.02138  1.0000
  C   C5221     1.0  0.97582  0.59665  0.16244  1.0000
  C   C5222     1.0  0.88533  0.98039  0.17615  1.0000
  H   H4193     1.0  0.97042  0.75778  0.16617  1.0000
  C   C5223     1.0  0.97779  0.75922  0.11539  1.0000
  H   H4194     1.0  0.75759  0.96594  0.01218  1.0000
  H   H4195     1.0  0.91639  0.57118  0.99728  1.0000
  C   C5224     1.0  0.78525  0.97441  0.99637  1.0000
  S   S711      1.0  0.85569  0.69476  0.98553  1.0000
  C   C5225     1.0  0.88711  0.53498  0.01370  1.0000
  C   C5226     1.0  0.98391  0.60301  0.12593  1.0000
  H   H4196     1.0  0.97506  0.48769  0.24860  1.0000
  C   C5227     1.0  0.98250  0.92614  0.28138  1.0000
  H   H4197     1.0  0.87971  0.89586  0.30390  1.0000
  C   C5228     1.0  0.98616  0.61174  0.16356  1.0000
  C   C5229     1.0  0.98946  0.67236  0.04621  1.0000
  H   H4198     1.0  0.77397  0.85679  0.98975  1.0000
  H   H4199     1.0  0.94683  0.74510  0.30501  1.0000
  C   C5230     1.0  0.76958  0.87299  0.98660  1.0000
  H   H4200     1.0  0.84288  0.55549  0.31141  1.0000
  C   C5231     1.0  0.79467  0.91228  0.30955  1.0000
  C   C5232     1.0  0.95254  0.98220  0.31507  1.0000
  C   C5233     1.0  0.98948  0.53611  0.10646  1.0000
  C   C5234     1.0  0.98849  0.71169  0.29189  1.0000
  H   H4201     1.0  0.75844  0.48728  0.99620  1.0000
  H   H4202     1.0  0.98922  0.75893  0.10221  1.0000
  C   C5235     1.0  0.73985  0.97408  0.19282  1.0000
  S   S712      1.0  0.95867  0.53055  0.33195  1.0000
  S   S713      1.0  0.79910  0.60685  0.47941  1.0000
  S   S714      1.0  0.78140  0.55553  0.48070  1.0000
  C   C5236     1.0  0.83515  0.54800  0.41262  1.0000
  H   H4203     1.0  0.93718  0.51152  0.40837  1.0000
  C   C5237     1.0  0.83050  0.60421  0.35912  1.0000
  C   C5238     1.0  0.78656  0.95581  0.60155  1.0000
  Fe  Fe358     1.0  0.85899  0.89057  0.45783  1.0000
  S   S715      1.0  0.82768  0.90248  0.47174  1.0000
  S   S716      1.0  0.88395  0.87129  0.47339  1.0000
  Fe  Fe359     1.0  0.85289  0.91211  0.41542  1.0000
  S   S717      1.0  0.82109  0.92586  0.42572  1.0000
  S   S718      1.0  0.87086  0.91601  0.38401  1.0000
  Fe  Fe360     1.0  0.83297  0.93163  0.45182  1.0000
  S   S719      1.0  0.82357  0.96184  0.46159  1.0000
  Fe  Fe361     1.0  0.81840  0.89558  0.44458  1.0000
  S   S720      1.0  0.79296  0.87822  0.44819  1.0000
  S   S721      1.0  0.86503  0.92043  0.44003  1.0000
  S   S722      1.0  0.84945  0.88122  0.43220  1.0000
  H   H4204     1.0  0.95238  0.81972  0.61851  1.0000
  Fe  Fe362     1.0  0.91889  0.80045  0.61058  1.0000
  S   S723      1.0  0.89584  0.78560  0.60261  1.0000
  H   H4205     1.0  0.74637  0.59508  0.54467  1.0000
  Fe  Fe363     1.0  0.93981  0.80778  0.56745  1.0000
  S   S724      1.0  0.91903  0.79335  0.55585  1.0000
  C   C5239     1.0  0.94285  0.52110  0.41595  1.0000
  Fe  Fe364     1.0  0.89511  0.81060  0.57591  1.0000
  S   S725      1.0  0.86743  0.82855  0.56420  1.0000
  Fe  Fe365     1.0  0.92180  0.76959  0.58312  1.0000
  S   S726      1.0  0.93033  0.73643  0.58051  1.0000
  S   S727      1.0  0.91568  0.82676  0.58567  1.0000
  S   S728      1.0  0.94494  0.78271  0.59309  1.0000
  Fe  Fe366     1.0  0.87642  0.61205  0.54686  1.0000
  S   S729      1.0  0.87982  0.61996  0.57608  1.0000
  S   S730      1.0  0.85362  0.59215  0.54723  1.0000
  Fe  Fe367     1.0  0.91274  0.63049  0.52476  1.0000
  S   S731      1.0  0.91988  0.63872  0.55218  1.0000
  S   S732      1.0  0.92944  0.64142  0.49448  1.0000
  Fe  Fe368     1.0  0.91265  0.60839  0.56759  1.0000
  S   S733      1.0  0.92612  0.58608  0.59238  1.0000
  Fe  Fe369     1.0  0.88675  0.64962  0.55843  1.0000
  S   S734      1.0  0.87294  0.67995  0.56750  1.0000
  S   S735      1.0  0.90893  0.59896  0.53928  1.0000
  S   S736      1.0  0.87995  0.64293  0.53001  1.0000
  C   C5240     1.0  0.81654  0.89057  0.34961  1.0000
  Fe  Fe370     1.0  0.94031  0.51041  0.35460  1.0000
  Fe  Fe371     1.0  0.90078  0.53558  0.34626  1.0000
  S   S737      1.0  0.76188  0.49312  0.32930  1.0000
  S   S738      1.0  0.86742  0.53580  0.35623  1.0000
  Fe  Fe372     1.0  0.93750  0.55572  0.34502  1.0000
  S   S739      1.0  0.94756  0.58345  0.35102  1.0000
  C   C5241     1.0  0.94299  0.51875  0.63371  1.0000
  S   S740      1.0  0.92032  0.53538  0.36891  1.0000
  C   C5242     1.0  0.96840  0.58262  0.36307  1.0000
  H   H4206     1.0  0.85537  0.54446  0.52548  1.0000
  C   C5243     1.0  0.77890  0.90516  0.32367  1.0000
  H   H4207     1.0  0.83935  0.92373  0.62020  1.0000
  H   H4208     1.0  0.98136  0.75222  0.37292  1.0000
  C   C5244     1.0  0.95486  0.63094  0.49194  1.0000
  C   C5245     1.0  0.96163  0.61380  0.50508  1.0000
  C   C5246     1.0  0.78813  0.54921  0.35390  1.0000
  H   H4209     1.0  0.87113  0.80290  0.64651  1.0000
  C   C5247     1.0  0.93839  0.51391  0.58236  1.0000
  C   C5248     1.0  0.96839  0.63959  0.47630  1.0000
  H   H4210     1.0  0.95123  0.60721  0.51731  1.0000
  H   H4211     1.0  0.77814  0.86936  0.37849  1.0000
  H   H4212     1.0  0.96322  0.65308  0.46639  1.0000
  C   C5249     1.0  0.76791  0.48952  0.56672  1.0000
  H   H4213     1.0  0.96954  0.80366  0.33639  1.0000
  C   C5250     1.0  0.77455  0.94942  0.33829  1.0000
  C   C5251     1.0  0.79081  0.55488  0.33306  1.0000
  H   H4214     1.0  0.96134  0.78280  0.54178  1.0000
  S   S741      1.0  0.77968  0.54598  0.42847  1.0000
  C   C5252     1.0  0.79829  0.90122  0.38062  1.0000
  C   C5253     1.0  0.91395  0.72103  0.57728  1.0000
  C   C5254     1.0  0.92180  0.70122  0.57433  1.0000
  C   C5255     1.0  0.90941  0.68865  0.57116  1.0000
  C   C5256     1.0  0.88892  0.69557  0.57130  1.0000
  C   C5257     1.0  0.88098  0.71533  0.57448  1.0000
  C   C5258     1.0  0.89348  0.72802  0.57742  1.0000
  H   H4215     1.0  0.93753  0.69549  0.57450  1.0000
  H   H4216     1.0  0.91576  0.67355  0.56879  1.0000
  H   H4217     1.0  0.86513  0.72081  0.57475  1.0000
  H   H4218     1.0  0.88730  0.74308  0.58007  1.0000
  H   H4219     1.0  0.79296  0.96275  0.40420  1.0000
  S   S742      1.0  0.91955  0.50903  0.33388  1.0000
  C   C5259     1.0  0.95731  0.57395  0.61359  1.0000
  C   C5260     1.0  0.95103  0.58488  0.59578  1.0000
  C   C5261     1.0  0.96463  0.59453  0.58110  1.0000
  H   H4220     1.0  0.88765  0.49143  0.59129  1.0000
  C   C5262     1.0  0.95059  0.65670  0.61415  1.0000
  H   H4221     1.0  0.94677  0.56663  0.62507  1.0000
  H   H4222     1.0  0.95995  0.60270  0.56722  1.0000
  H   H4223     1.0  0.91665  0.57361  0.50821  1.0000
  C   C5263     1.0  0.87886  0.85837  0.49819  1.0000
  C   C5264     1.0  0.89500  0.84911  0.50819  1.0000
  C   C5265     1.0  0.89160  0.83981  0.52839  1.0000
  C   C5266     1.0  0.87203  0.83899  0.53849  1.0000
  C   C5267     1.0  0.85592  0.84722  0.52815  1.0000
  C   C5268     1.0  0.85927  0.85723  0.50814  1.0000
  H   H4224     1.0  0.91020  0.84980  0.50056  1.0000
  H   H4225     1.0  0.90416  0.83367  0.53621  1.0000
  H   H4226     1.0  0.84082  0.84597  0.53571  1.0000
  H   H4227     1.0  0.84673  0.86394  0.50042  1.0000
  C   C5269     1.0  0.77046  0.89056  0.43957  1.0000
  C   C5270     1.0  0.94070  0.93054  0.31999  1.0000
  C   C5271     1.0  0.74593  0.53376  0.42183  1.0000
  C   C5272     1.0  0.77841  0.55443  0.56267  1.0000
  H   H4228     1.0  0.96465  0.97140  0.32075  1.0000
  C   C5273     1.0  0.76823  0.91072  0.43050  1.0000
  H   H4229     1.0  0.77680  0.50187  0.38203  1.0000
  H   H4230     1.0  0.78131  0.53614  0.36071  1.0000
  C   C5274     1.0  0.75000  0.63609  0.38642  1.0000
  H   H4231     1.0  0.78035  0.91901  0.42872  1.0000
  C   C5275     1.0  0.85122  0.94740  0.51043  1.0000
  C   C5276     1.0  0.84502  0.94653  0.49242  1.0000
  C   C5277     1.0  0.83353  0.96334  0.48276  1.0000
  H   H4232     1.0  0.85962  0.93425  0.51813  1.0000
  H   H4233     1.0  0.84879  0.93275  0.48622  1.0000
  C   C5278     1.0  0.83953  0.94180  0.32944  1.0000
  C   C5279     1.0  0.85965  0.93272  0.32692  1.0000
  C   C5280     1.0  0.86904  0.92474  0.34382  1.0000
  C   C5281     1.0  0.85843  0.92598  0.36327  1.0000
  C   C5282     1.0  0.83834  0.93521  0.36578  1.0000
  C   C5283     1.0  0.82890  0.94305  0.34890  1.0000
  C   C5284     1.0  0.88119  0.56415  0.48493  1.0000
  H   H4234     1.0  0.88448  0.91732  0.34185  1.0000
  H   H4235     1.0  0.83003  0.93623  0.38069  1.0000
  H   H4236     1.0  0.81333  0.95006  0.35094  1.0000
  C   C5285     1.0  0.76424  0.64161  0.36975  1.0000
  H   H4237     1.0  0.80289  0.55528  0.57743  1.0000
  C   C5286     1.0  0.78695  0.58498  0.56861  1.0000
  C   C5287     1.0  0.85511  0.52137  0.34540  1.0000
  C   C5288     1.0  0.83576  0.51772  0.35443  1.0000
  C   C5289     1.0  0.82538  0.50690  0.34571  1.0000
  C   C5290     1.0  0.96370  0.72003  0.61900  1.0000
  H   H4238     1.0  0.82871  0.52325  0.36822  1.0000
  H   H4239     1.0  0.81050  0.50416  0.35280  1.0000
  H   H4240     1.0  0.86133  0.86250  0.59712  1.0000
  H   H4241     1.0  0.76735  0.95624  0.47371  1.0000
  H   H4242     1.0  0.85377  0.58739  0.59448  1.0000
  C   C5291     1.0  0.81471  0.60193  0.49797  1.0000
  C   C5292     1.0  0.81293  0.58628  0.51429  1.0000
  C   C5293     1.0  0.82529  0.58322  0.52901  1.0000
  C   C5294     1.0  0.83928  0.59589  0.52773  1.0000
  C   C5295     1.0  0.84139  0.61123  0.51119  1.0000
  C   C5296     1.0  0.82910  0.61425  0.49640  1.0000
  H   H4243     1.0  0.80195  0.57664  0.51565  1.0000
  H   H4244     1.0  0.82390  0.57109  0.54153  1.0000
  H   H4245     1.0  0.85228  0.62092  0.50992  1.0000
  H   H4246     1.0  0.83062  0.62633  0.48378  1.0000
  C   C5297     1.0  0.74651  0.94453  0.54518  1.0000
  C   C5298     1.0  0.83247  0.90891  0.58957  1.0000
  C   C5299     1.0  0.85541  0.90188  0.55934  1.0000
  C   C5300     1.0  0.86289  0.88310  0.56951  1.0000
  C   C5301     1.0  0.85545  0.87732  0.58981  1.0000
  H   H4247     1.0  0.78227  0.49831  0.44672  1.0000
  C   C5302     1.0  0.97293  0.72158  0.63482  1.0000
  C   C5303     1.0  0.76827  0.89621  0.63942  1.0000
  H   H4248     1.0  0.86109  0.90628  0.54359  1.0000
  H   H4249     1.0  0.87418  0.87277  0.56159  1.0000
  C   C5304     1.0  0.88027  0.81585  0.42802  1.0000
  C   C5305     1.0  0.88254  0.79629  0.43871  1.0000
  C   C5306     1.0  0.90155  0.78623  0.44217  1.0000
  C   C5307     1.0  0.91831  0.79573  0.43495  1.0000
  C   C5308     1.0  0.91612  0.81542  0.42423  1.0000
  C   C5309     1.0  0.89697  0.82538  0.42073  1.0000
  C   C5310     1.0  0.92162  0.93685  0.33057  1.0000
  C   C5311     1.0  0.98292  0.70432  0.64546  1.0000
  C   C5312     1.0  0.82012  0.57580  0.43035  1.0000
  C   C5313     1.0  0.83319  0.88580  0.37851  1.0000
  C   C5314     1.0  0.82927  0.98131  0.49054  1.0000
  C   C5315     1.0  0.95997  0.93802  0.54486  1.0000
  C   C5316     1.0  0.85087  0.49674  0.56570  1.0000
  H   H4250     1.0  0.78460  0.90760  0.38951  1.0000
  C   C5317     1.0  0.96486  0.81287  0.46341  1.0000
  C   C5318     1.0  0.75447  0.88000  0.44193  1.0000
  H   H4251     1.0  0.83777  0.56012  0.58995  1.0000
  H   H4252     1.0  0.86553  0.82369  0.42536  1.0000
  H   H4253     1.0  0.86953  0.78899  0.44428  1.0000
  H   H4254     1.0  0.90335  0.77099  0.45024  1.0000
  H   H4255     1.0  0.93299  0.78762  0.43746  1.0000
  H   H4256     1.0  0.89483  0.84046  0.41229  1.0000
  H   H4257     1.0  0.95702  0.70041  0.60152  1.0000
  C   C5319     1.0  0.76200  0.88879  0.62463  1.0000
  C   C5320     1.0  0.93320  0.66886  0.62235  1.0000
  C   C5321     1.0  0.78640  0.61013  0.37814  1.0000
  C   C5322     1.0  0.76803  0.96948  0.34073  1.0000
  P   P174      1.0  0.95684  0.50259  0.59840  1.0000
  C   C5323     1.0  0.76663  0.96778  0.42654  1.0000
  H   H4258     1.0  0.83809  0.65209  0.55585  1.0000
  C   C5324     1.0  0.96972  0.82411  0.35636  1.0000
  H   H4259     1.0  0.77407  0.58978  0.40383  1.0000
  H   H4260     1.0  0.88291  0.91290  0.64060  1.0000
  H   H4261     1.0  0.81662  0.58223  0.44407  1.0000
  C   C5325     1.0  0.75104  0.95340  0.58907  1.0000
  H   H4262     1.0  0.92746  0.85739  0.37840  1.0000
  H   H4263     1.0  0.94769  0.87594  0.64944  1.0000
  H   H4264     1.0  0.80540  0.60199  0.41316  1.0000
  C   C5326     1.0  0.76257  0.87539  0.37754  1.0000
  H   H4265     1.0  0.86446  0.86599  0.64614  1.0000
  H   H4266     1.0  0.97121  0.50156  0.41711  1.0000
  H   H4267     1.0  0.95170  0.53052  0.62689  1.0000
  H   H4268     1.0  0.75296  0.89049  0.32735  1.0000
  H   H4269     1.0  0.98615  0.68122  0.47435  1.0000
  S   S743      1.0  0.74540  0.58815  0.50170  1.0000
  C   C5327     1.0  0.85175  0.49580  0.54542  1.0000
  H   H4270     1.0  0.79142  0.55616  0.38209  1.0000
  H   H4271     1.0  0.94872  0.72366  0.33817  1.0000
  C   C5328     1.0  0.97874  0.80664  0.53088  1.0000
  C   C5329     1.0  0.95106  0.70368  0.51445  1.0000
  C   C5330     1.0  0.94145  0.68905  0.51047  1.0000
  C   C5331     1.0  0.92058  0.69103  0.51453  1.0000
  C   C5332     1.0  0.90916  0.70773  0.52229  1.0000
  C   C5333     1.0  0.91852  0.72277  0.52547  1.0000
  C   C5334     1.0  0.93941  0.72094  0.52129  1.0000
  C   C5335     1.0  0.77119  0.59649  0.55906  1.0000
  C   C5336     1.0  0.81534  0.89405  0.38965  1.0000
  C   C5337     1.0  0.86427  0.62115  0.33889  1.0000
  C   C5338     1.0  0.83227  0.62360  0.36127  1.0000
  C   C5339     1.0  0.89080  0.89875  0.63656  1.0000
  C   C5340     1.0  0.97431  0.68377  0.62447  1.0000
  H   H4272     1.0  0.82432  0.53690  0.63080  1.0000
  C   C5341     1.0  0.74797  0.62879  0.58060  1.0000
  H   H4273     1.0  0.98727  0.95006  0.53308  1.0000
  C   C5342     1.0  0.76258  0.56574  0.55338  1.0000
  H   H4274     1.0  0.96311  0.66974  0.54368  1.0000
  C   C5343     1.0  0.94192  0.80320  0.38324  1.0000
  C   C5344     1.0  0.80560  0.49784  0.48595  1.0000
  H   H4275     1.0  0.83201  0.55244  0.38157  1.0000
  C   C5345     1.0  0.80309  0.88421  0.62623  1.0000
  H   H4276     1.0  0.95004  0.67579  0.50472  1.0000
  H   H4277     1.0  0.91331  0.67931  0.51215  1.0000
  H   H4278     1.0  0.89312  0.70866  0.52639  1.0000
  H   H4279     1.0  0.90964  0.73557  0.53181  1.0000
  H   H4280     1.0  0.94635  0.73277  0.52391  1.0000
  C   C5346     1.0  0.90805  0.53187  0.55944  1.0000
  H   H4281     1.0  0.96679  0.61474  0.35709  1.0000
  C   C5347     1.0  0.85356  0.51293  0.53088  1.0000
  C   C5348     1.0  0.96690  0.82947  0.63914  1.0000
  H   H4282     1.0  0.82608  0.65231  0.52409  1.0000
  H   H4283     1.0  0.80024  0.95720  0.60632  1.0000
  C   C5349     1.0  0.84901  0.63212  0.35098  1.0000
  C   C5350     1.0  0.88782  0.89352  0.61883  1.0000
  C   C5351     1.0  0.84037  0.89032  0.60013  1.0000
  H   H4284     1.0  0.77549  0.90817  0.57173  1.0000
  C   C5352     1.0  0.95981  0.72002  0.32533  1.0000
  H   H4285     1.0  0.77387  0.61626  0.51662  1.0000
  C   C5353     1.0  0.76143  0.62855  0.51786  1.0000
  C   C5354     1.0  0.97901  0.72463  0.36395  1.0000
  H   H4286     1.0  0.83236  0.48772  0.63307  1.0000
  C   C5355     1.0  0.79895  0.57215  0.32415  1.0000
  H   H4287     1.0  0.83555  0.54761  0.44396  1.0000
  H   H4288     1.0  0.84346  0.53293  0.41245  1.0000
  H   H4289     1.0  0.97172  0.63475  0.43207  1.0000
  C   C5356     1.0  0.78871  0.89393  0.64027  1.0000
  C   C5357     1.0  0.79452  0.50280  0.54241  1.0000
  C   C5358     1.0  0.83302  0.89805  0.64299  1.0000
  H   H4290     1.0  0.88175  0.56681  0.51557  1.0000
  H   H4291     1.0  0.74868  0.93580  0.41673  1.0000
  C   C5359     1.0  0.94042  0.67747  0.35030  1.0000
  H   H4292     1.0  0.75202  0.85130  0.39970  1.0000
  H   H4293     1.0  0.96388  0.58184  0.41254  1.0000
  C   C5360     1.0  0.83740  0.91754  0.63600  1.0000
  C   C5361     1.0  0.74015  0.94929  0.46765  1.0000
  C   C5362     1.0  0.86402  0.51401  0.32760  1.0000
  C   C5363     1.0  0.94469  0.64399  0.38060  1.0000
  C   C5364     1.0  0.93603  0.93691  0.35989  1.0000
  C   C5365     1.0  0.91928  0.93980  0.35047  1.0000
  H   H4294     1.0  0.97337  0.73935  0.40941  1.0000
  C   C5366     1.0  0.77171  0.60441  0.39444  1.0000
  H   H4295     1.0  0.79494  0.63984  0.52478  1.0000
  H   H4296     1.0  0.84769  0.87777  0.34984  1.0000
  C   C5367     1.0  0.80522  0.92812  0.52984  1.0000
  C   C5368     1.0  0.75276  0.63761  0.50085  1.0000
  C   C5369     1.0  0.81421  0.53151  0.62370  1.0000
  C   C5370     1.0  0.94299  0.50300  0.62349  1.0000
  Fe  Fe373     1.0  0.76467  0.56201  0.45460  1.0000
  H   H4297     1.0  0.75608  0.86439  0.44894  1.0000
  C   C5371     1.0  0.98364  0.68548  0.64032  1.0000
  H   H4298     1.0  0.78126  0.53821  0.56388  1.0000
  C   C5372     1.0  0.75712  0.89355  0.36487  1.0000
  C   C5373     1.0  0.74794  0.95890  0.37267  1.0000
  H   H4299     1.0  0.90437  0.94365  0.35876  1.0000
  C   C5374     1.0  0.85905  0.49228  0.61106  1.0000
  C   C5375     1.0  0.82877  0.81068  0.47148  1.0000
  C   C5376     1.0  0.83601  0.82881  0.46481  1.0000
  C   C5377     1.0  0.85375  0.83119  0.47023  1.0000
  C   C5378     1.0  0.86422  0.81557  0.48241  1.0000
  C   C5379     1.0  0.85711  0.79725  0.48915  1.0000
  C   C5380     1.0  0.83916  0.79500  0.48372  1.0000
  P   P175      1.0  0.86895  0.77815  0.50726  1.0000
  C   C5381     1.0  0.85853  0.78419  0.53199  1.0000
  C   C5382     1.0  0.86363  0.75374  0.50608  1.0000
  C   C5383     1.0  0.86484  0.74789  0.48738  1.0000
  C   C5384     1.0  0.86099  0.72894  0.48641  1.0000
  C   C5385     1.0  0.85577  0.71574  0.50408  1.0000
  C   C5386     1.0  0.85432  0.72152  0.52274  1.0000
  C   C5387     1.0  0.85835  0.74036  0.52378  1.0000
  C   C5388     1.0  0.83916  0.79538  0.53564  1.0000
  C   C5389     1.0  0.83060  0.79897  0.55504  1.0000
  C   C5390     1.0  0.84123  0.79135  0.57096  1.0000
  C   C5391     1.0  0.86049  0.78030  0.56745  1.0000
  C   C5392     1.0  0.86919  0.77674  0.54805  1.0000
  C   C5393     1.0  0.89581  0.77775  0.50221  1.0000
  C   C5394     1.0  0.90391  0.79202  0.50871  1.0000
  C   C5395     1.0  0.92463  0.79184  0.50500  1.0000
  C   C5396     1.0  0.93747  0.77727  0.49494  1.0000
  C   C5397     1.0  0.92957  0.76309  0.48826  1.0000
  C   C5398     1.0  0.90885  0.76326  0.49193  1.0000
  H   H4300     1.0  0.81479  0.80902  0.46754  1.0000
  H   H4301     1.0  0.82771  0.84114  0.45570  1.0000
  H   H4302     1.0  0.85928  0.84532  0.46525  1.0000
  H   H4303     1.0  0.87759  0.81813  0.48681  1.0000
  H   H4304     1.0  0.83281  0.78142  0.48943  1.0000
  H   H4305     1.0  0.86890  0.75793  0.47357  1.0000
  H   H4306     1.0  0.86211  0.72440  0.47196  1.0000
  H   H4307     1.0  0.85059  0.71114  0.53649  1.0000
  H   H4308     1.0  0.85748  0.74422  0.53846  1.0000
  H   H4309     1.0  0.83057  0.80139  0.52361  1.0000
  H   H4310     1.0  0.81582  0.80787  0.55771  1.0000
  H   H4311     1.0  0.83482  0.79450  0.58592  1.0000
  H   H4312     1.0  0.86881  0.77492  0.57976  1.0000
  H   H4313     1.0  0.88413  0.76806  0.54567  1.0000
  H   H4314     1.0  0.89421  0.80320  0.51685  1.0000
  H   H4315     1.0  0.93075  0.80282  0.51028  1.0000
  H   H4316     1.0  0.95356  0.77684  0.49254  1.0000
  H   H4317     1.0  0.93958  0.75166  0.48065  1.0000
  H   H4318     1.0  0.90324  0.75178  0.48705  1.0000
  C   C5399     1.0  0.98640  0.70897  0.48466  1.0000
  H   H4319     1.0  0.75596  0.65793  0.57942  1.0000
  C   C5400     1.0  0.76813  0.51062  0.39316  1.0000
  C   C5401     1.0  0.91566  0.54342  0.56977  1.0000
  S   S744      1.0  0.91577  0.55864  0.32346  1.0000
  H   H4320     1.0  0.81031  0.50285  0.53699  1.0000
  H   H4321     1.0  0.87795  0.90365  0.60949  1.0000
  C   C5402     1.0  0.81932  0.91091  0.52686  1.0000
  H   H4322     1.0  0.87886  0.51669  0.32044  1.0000
  H   H4323     1.0  0.95393  0.63166  0.64923  1.0000
  H   H4324     1.0  0.96351  0.55487  0.44321  1.0000
  C   C5403     1.0  0.83080  0.55631  0.43029  1.0000
  H   H4325     1.0  0.85410  0.54634  0.56082  1.0000
  C   C5404     1.0  0.93114  0.48823  0.63250  1.0000
  C   C5405     1.0  0.75889  0.58666  0.55168  1.0000
  C   C5406     1.0  0.92990  0.85386  0.40999  1.0000
  H   H4326     1.0  0.98627  0.73931  0.48915  1.0000
  H   H4327     1.0  0.91282  0.66834  0.34839  1.0000
  H   H4328     1.0  0.97843  0.48872  0.33709  1.0000
  C   C5407     1.0  0.74820  0.98016  0.43164  1.0000
  H   H4329     1.0  0.84073  0.80832  0.63063  1.0000
  P   P176      1.0  0.77008  0.94878  0.54974  1.0000
  C   C5408     1.0  0.92576  0.86385  0.42668  1.0000
  H   H4330     1.0  0.91676  0.63850  0.37515  1.0000
  C   C5409     1.0  0.76854  0.95712  0.61505  1.0000
  C   C5410     1.0  0.96358  0.86374  0.58522  1.0000
  C   C5411     1.0  0.89171  0.56561  0.46521  1.0000
  C   C5412     1.0  0.91079  0.57125  0.46071  1.0000
  C   C5413     1.0  0.92000  0.57329  0.47651  1.0000
  P   P177      1.0  0.92363  0.57562  0.43501  1.0000
  C   C5414     1.0  0.93854  0.59503  0.43269  1.0000
  C   C5415     1.0  0.93856  0.55189  0.42978  1.0000
  C   C5416     1.0  0.80498  0.58340  0.33605  1.0000
  H   H4331     1.0  0.93408  0.68033  0.63069  1.0000
  H   H4332     1.0  0.96224  0.71126  0.55110  1.0000
  H   H4333     1.0  0.78804  0.54243  0.64396  1.0000
  C   C5417     1.0  0.93102  0.53912  0.42057  1.0000
  C   C5418     1.0  0.93086  0.61150  0.44277  1.0000
  C   C5419     1.0  0.79662  0.87699  0.61130  1.0000
  C   C5420     1.0  0.76676  0.53257  0.41735  1.0000
  H   H4334     1.0  0.81333  0.50726  0.49156  1.0000
  C   C5421     1.0  0.90623  0.58544  0.41753  1.0000
  C   C5422     1.0  0.88726  0.59640  0.42366  1.0000
  C   C5423     1.0  0.87333  0.60240  0.41045  1.0000
  C   C5424     1.0  0.87850  0.59815  0.39087  1.0000
  C   C5425     1.0  0.89780  0.58849  0.38426  1.0000
  C   C5426     1.0  0.91168  0.58233  0.39748  1.0000
  C   C5427     1.0  0.86262  0.81788  0.64335  1.0000
  C   C5428     1.0  0.79404  0.56046  0.36590  1.0000
  H   H4335     1.0  0.93503  0.57686  0.47360  1.0000
  P   P178      1.0  0.76541  0.62339  0.55826  1.0000
  P   P179      1.0  0.77588  0.90778  0.34991  1.0000
  C   C5429     1.0  0.91429  0.66626  0.61990  1.0000
  H   H4336     1.0  0.91333  0.96641  0.55168  1.0000
  H   H4337     1.0  0.91609  0.54308  0.41676  1.0000
  H   H4338     1.0  0.91587  0.61302  0.45141  1.0000
  C   C5430     1.0  0.75368  0.61744  0.39866  1.0000
  C   C5431     1.0  0.97705  0.57278  0.61683  1.0000
  H   H4339     1.0  0.88305  0.60007  0.43868  1.0000
  H   H4340     1.0  0.85844  0.61017  0.41548  1.0000
  H   H4341     1.0  0.86759  0.60236  0.38081  1.0000
  H   H4342     1.0  0.90202  0.58555  0.36893  1.0000
  H   H4343     1.0  0.92657  0.57483  0.39209  1.0000
  H   H4344     1.0  0.79396  0.51965  0.39976  1.0000
  C   C5432     1.0  0.81738  0.64700  0.53839  1.0000
  C   C5433     1.0  0.79960  0.63991  0.53887  1.0000
  H   H4345     1.0  0.86602  0.56096  0.48814  1.0000
  C   C5434     1.0  0.97533  0.70348  0.32751  1.0000
  C   C5435     1.0  0.84022  0.91479  0.56934  1.0000
  H   H4346     1.0  0.96777  0.92269  0.54664  1.0000
  C   C5436     1.0  0.77486  0.97070  0.51131  1.0000
  H   H4347     1.0  0.79289  0.63282  0.35218  1.0000
  C   C5437     1.0  0.77616  0.87911  0.61062  1.0000
  C   C5438     1.0  0.96944  0.52769  0.43070  1.0000
  P   P180      1.0  0.97515  0.65951  0.61759  1.0000
  C   C5439     1.0  0.89451  0.95005  0.60798  1.0000
  C   C5440     1.0  0.87449  0.95267  0.60557  1.0000
  C   C5441     1.0  0.86944  0.94530  0.59005  1.0000
  C   C5442     1.0  0.88441  0.93527  0.57690  1.0000
  C   C5443     1.0  0.90460  0.93256  0.57921  1.0000
  C   C5444     1.0  0.90953  0.94015  0.59480  1.0000
  P   P181      1.0  0.92435  0.92264  0.56050  1.0000
  C   C5445     1.0  0.93998  0.89987  0.57052  1.0000
  C   C5446     1.0  0.91362  0.91715  0.54062  1.0000
  C   C5447     1.0  0.90927  0.89786  0.54170  1.0000
  C   C5448     1.0  0.90165  0.89327  0.52611  1.0000
  C   C5449     1.0  0.89788  0.90791  0.50949  1.0000
  C   C5450     1.0  0.90160  0.92731  0.50857  1.0000
  C   C5451     1.0  0.90936  0.93198  0.52409  1.0000
  C   C5452     1.0  0.95219  0.88759  0.55724  1.0000
  H   H4348     1.0  0.92765  0.85596  0.32976  1.0000
  Fe  Fe374     1.0  0.75107  0.55522  0.49984  1.0000
  C   C5453     1.0  0.74535  0.92748  0.53736  1.0000
  C   C5454     1.0  0.93995  0.89392  0.59130  1.0000
  C   C5455     1.0  0.93904  0.94242  0.55023  1.0000
  H   H4349     1.0  0.92801  0.85588  0.44145  1.0000
  H   H4350     1.0  0.97259  0.65225  0.38223  1.0000
  C   C5456     1.0  0.75025  0.92020  0.42369  1.0000
  C   C5457     1.0  0.91762  0.88523  0.38937  1.0000
  H   H4351     1.0  0.94956  0.88164  0.31747  1.0000
  H   H4352     1.0  0.89843  0.95643  0.61958  1.0000
  H   H4353     1.0  0.86296  0.96115  0.61519  1.0000
  H   H4354     1.0  0.85401  0.94819  0.58757  1.0000
  H   H4355     1.0  0.88013  0.93050  0.56451  1.0000
  H   H4356     1.0  0.92507  0.93908  0.59628  1.0000
  H   H4357     1.0  0.91185  0.88625  0.55451  1.0000
  H   H4358     1.0  0.89852  0.87835  0.52702  1.0000
  H   H4359     1.0  0.89179  0.90427  0.49751  1.0000
  H   H4360     1.0  0.89809  0.93887  0.49598  1.0000
  H   H4361     1.0  0.91176  0.94719  0.52315  1.0000
  H   H4362     1.0  0.87731  0.62767  0.33103  1.0000
  H   H4363     1.0  0.95252  0.89171  0.54115  1.0000
  C   C5458     1.0  0.78834  0.48942  0.55968  1.0000
  H   H4364     1.0  0.98510  0.60647  0.41319  1.0000
  H   H4365     1.0  0.93061  0.90275  0.60203  1.0000
  C   C5459     1.0  0.76769  0.93387  0.35294  1.0000
  C   C5460     1.0  0.92576  0.66508  0.35593  1.0000
  S   S745      1.0  0.74147  0.53202  0.52626  1.0000
  C   C5461     1.0  0.85452  0.53102  0.53664  1.0000
  C   C5462     1.0  0.85367  0.53202  0.55691  1.0000
  C   C5463     1.0  0.96233  0.62395  0.43185  1.0000
  C   C5464     1.0  0.86018  0.57192  0.59941  1.0000
  C   C5465     1.0  0.85124  0.55635  0.59671  1.0000
  H   H4366     1.0  0.97284  0.85996  0.55428  1.0000
  H   H4367     1.0  0.80063  0.87778  0.56608  1.0000
  C   C5466     1.0  0.79871  0.89957  0.36051  1.0000
  C   C5467     1.0  0.95748  0.92737  0.32964  1.0000
  C   C5468     1.0  0.75370  0.50283  0.55642  1.0000
  C   C5469     1.0  0.77782  0.52073  0.40322  1.0000
  C   C5470     1.0  0.78039  0.52720  0.62274  1.0000
  H   H4368     1.0  0.77357  0.98129  0.32934  1.0000
  H   H4369     1.0  0.86734  0.95796  0.39104  1.0000
  H   H4370     1.0  0.85299  0.70097  0.50337  1.0000
  H   H4371     1.0  0.96167  0.63146  0.59826  1.0000
  C   C5471     1.0  0.80189  0.89190  0.55612  1.0000
  H   H4372     1.0  0.84554  0.57777  0.34621  1.0000
  H   H4373     1.0  0.80087  0.95289  0.57130  1.0000
  H   H4374     1.0  0.78507  0.52626  0.51865  1.0000
  C   C5472     1.0  0.84613  0.96508  0.51876  1.0000
  C   C5473     1.0  0.97379  0.72977  0.39855  1.0000
  H   H4375     1.0  0.91384  0.89164  0.43783  1.0000
  C   C5474     1.0  0.85187  0.51485  0.57165  1.0000
  Fe  Fe375     1.0  0.77463  0.58882  0.48014  1.0000
  C   C5475     1.0  0.95206  0.82097  0.63401  1.0000
  S   S746      1.0  0.75979  0.59556  0.45254  1.0000
  C   C5476     1.0  0.75458  0.97424  0.35782  1.0000
  H   H4376     1.0  0.93847  0.69010  0.33835  1.0000
  C   C5477     1.0  0.74730  0.51215  0.39721  1.0000
  H   H4377     1.0  0.90979  0.55932  0.56912  1.0000
  H   H4378     1.0  0.79669  0.59206  0.57449  1.0000
  H   H4379     1.0  0.95579  0.73342  0.61086  1.0000
  C   C5478     1.0  0.78684  0.95347  0.58174  1.0000
  C   C5479     1.0  0.94864  0.64146  0.60417  1.0000
  H   H4380     1.0  0.93410  0.93897  0.37541  1.0000
  C   C5480     1.0  0.97708  0.51667  0.59469  1.0000
  H   H4381     1.0  0.82018  0.91879  0.59688  1.0000
  H   H4382     1.0  0.83428  0.92924  0.56123  1.0000
  C   C5481     1.0  0.78805  0.49275  0.46070  1.0000
  C   C5482     1.0  0.75982  0.51595  0.53894  1.0000
  H   H4383     1.0  0.77171  0.95440  0.43658  1.0000
  H   H4384     1.0  0.76116  0.65590  0.36004  1.0000
  H   H4385     1.0  0.80124  0.51898  0.45886  1.0000
  H   H4386     1.0  0.80699  0.94198  0.51957  1.0000
  C   C5483     1.0  0.85867  0.85361  0.64314  1.0000
  H   H4387     1.0  0.86977  0.97880  0.35764  1.0000
  H   H4388     1.0  0.78003  0.92140  0.48833  1.0000
  C   C5484     1.0  0.74781  0.86498  0.38951  1.0000
  C   C5485     1.0  0.93060  0.53446  0.58132  1.0000
  H   H4389     1.0  0.97224  0.92157  0.32226  1.0000
  C   C5486     1.0  0.93029  0.50225  0.57239  1.0000
  H   H4390     1.0  0.88467  0.56296  0.45345  1.0000
  H   H4391     1.0  0.97240  0.84960  0.59086  1.0000
  H   H4392     1.0  0.83162  0.91148  0.51438  1.0000
  C   C5487     1.0  0.75833  0.94469  0.47513  1.0000
  C   C5488     1.0  0.96209  0.51547  0.42087  1.0000
  H   H4393     1.0  0.88464  0.57967  0.60989  1.0000
  C   C5489     1.0  0.81332  0.63937  0.57466  1.0000
  H   H4394     1.0  0.81884  0.63894  0.58846  1.0000
  C   C5490     1.0  0.84616  0.59310  0.34739  1.0000
  H   H4395     1.0  0.81335  0.50572  0.58647  1.0000
  H   H4396     1.0  0.98195  0.76044  0.51881  1.0000
  C   C5491     1.0  0.75413  0.63531  0.53631  1.0000
  H   H4397     1.0  0.78742  0.62641  0.58964  1.0000
  C   C5492     1.0  0.97677  0.81297  0.42211  1.0000
  C   C5493     1.0  0.85985  0.53622  0.60225  1.0000
  C   C5494     1.0  0.78026  0.51603  0.53200  1.0000
  H   H4398     1.0  0.98702  0.59128  0.51190  1.0000
  C   C5495     1.0  0.84551  0.82098  0.63441  1.0000
  C   C5496     1.0  0.88599  0.54763  0.61407  1.0000
  H   H4399     1.0  0.81465  0.89488  0.40532  1.0000
  C   C5497     1.0  0.78775  0.90906  0.55921  1.0000
  C   C5498     1.0  0.97528  0.70481  0.37029  1.0000
  H   H4400     1.0  0.77126  0.87337  0.59916  1.0000
  C   C5499     1.0  0.81767  0.89288  0.53998  1.0000
  C   C5500     1.0  0.76905  0.95244  0.57527  1.0000
  C   C5501     1.0  0.98862  0.63072  0.47338  1.0000
  H   H4401     1.0  0.82878  0.87974  0.53772  1.0000
  C   C5502     1.0  0.82422  0.64676  0.55626  1.0000
  S   S747      1.0  0.85343  0.96532  0.54178  1.0000
  C   C5503     1.0  0.86909  0.83419  0.64784  1.0000
  C   C5504     1.0  0.87757  0.56758  0.60804  1.0000
  C   C5505     1.0  0.82159  0.52123  0.60733  1.0000
  C   C5506     1.0  0.91252  0.65119  0.60975  1.0000
  P   P182      1.0  0.84821  0.51630  0.59816  1.0000
  H   H4402     1.0  0.74614  0.89059  0.62401  1.0000
  C   C5507     1.0  0.79870  0.50451  0.46760  1.0000
  H   H4403     1.0  0.93601  0.54360  0.58956  1.0000
  C   C5508     1.0  0.80813  0.51389  0.59888  1.0000
  H   H4404     1.0  0.89539  0.87113  0.59937  1.0000
  C   C5509     1.0  0.97020  0.71006  0.40503  1.0000
  H   H4405     1.0  0.84659  0.88088  0.38536  1.0000
  H   H4406     1.0  0.92827  0.62686  0.59447  1.0000
  H   H4407     1.0  0.89640  0.53892  0.55057  1.0000
  C   C5510     1.0  0.97470  0.60064  0.36386  1.0000
  C   C5511     1.0  0.78838  0.63273  0.55734  1.0000
  C   C5512     1.0  0.97101  0.69760  0.39099  1.0000
  C   C5513     1.0  0.77553  0.97056  0.53159  1.0000
  H   H4408     1.0  0.77158  0.95774  0.50674  1.0000
  P   P183      1.0  0.82964  0.88242  0.62601  1.0000
  H   H4409     1.0  0.81730  0.88830  0.33439  1.0000
  H   H4410     1.0  0.94646  0.63081  0.39207  1.0000
  H   H4411     1.0  0.98307  0.73056  0.34817  1.0000
  C   C5514     1.0  0.87721  0.53198  0.61120  1.0000
  C   C5515     1.0  0.89745  0.87516  0.61319  1.0000
  H   H4412     1.0  0.90840  0.93868  0.32367  1.0000
  C   C5516     1.0  0.78765  0.51681  0.60659  1.0000
  S   S748      1.0  0.91758  0.80409  0.64288  1.0000
  C   C5517     1.0  0.78920  0.92723  0.54596  1.0000
  C   C5518     1.0  0.94967  0.79763  0.36439  1.0000
  C   C5519     1.0  0.98432  0.59347  0.58437  1.0000
  P   P184      1.0  0.97807  0.69988  0.51094  1.0000
  C   C5520     1.0  0.95763  0.54570  0.43541  1.0000
  C   C5521     1.0  0.85344  0.50368  0.31861  1.0000
  H   H4413     1.0  0.98395  0.50922  0.37803  1.0000
  H   H4414     1.0  0.91482  0.98263  0.40428  1.0000
  C   C5522     1.0  0.89005  0.56734  0.50039  1.0000
  H   H4415     1.0  0.77747  0.51075  0.60012  1.0000
  C   C5523     1.0  0.80305  0.57731  0.35699  1.0000
  C   C5524     1.0  0.82851  0.55904  0.39512  1.0000
  C   C5525     1.0  0.79550  0.63235  0.57523  1.0000
  C   C5526     1.0  0.98184  0.60480  0.50202  1.0000
  C   C5527     1.0  0.94274  0.62584  0.44238  1.0000
  H   H4416     1.0  0.95170  0.87127  0.61455  1.0000
  C   C5528     1.0  0.76559  0.92496  0.48335  1.0000
  C   C5529     1.0  0.97889  0.56448  0.37168  1.0000
  H   H4417     1.0  0.80745  0.86980  0.60010  1.0000
  C   C5530     1.0  0.83487  0.84041  0.62990  1.0000
  C   C5531     1.0  0.91766  0.88429  0.42469  1.0000
  C   C5532     1.0  0.79366  0.53458  0.63128  1.0000
  C   C5533     1.0  0.87842  0.96789  0.38648  1.0000
  H   H4418     1.0  0.93115  0.79490  0.39330  1.0000
  H   H4419     1.0  0.96988  0.53639  0.56735  1.0000
  H   H4420     1.0  0.94498  0.78521  0.36007  1.0000
  H   H4421     1.0  0.96809  0.92811  0.35688  1.0000
  C   C5534     1.0  0.95182  0.87598  0.59855  1.0000
  C   C5535     1.0  0.91532  0.51128  0.56078  1.0000
  P   P185      1.0  0.97709  0.68844  0.35212  1.0000
  H   H4422     1.0  0.88413  0.51674  0.61602  1.0000
  C   C5536     1.0  0.95747  0.67313  0.35972  1.0000
  H   H4423     1.0  0.89956  0.54435  0.62066  1.0000
  C   C5537     1.0  0.92792  0.64832  0.37103  1.0000
  C   C5538     1.0  0.98219  0.64169  0.53975  1.0000
  C   C5539     1.0  0.90962  0.57143  0.49623  1.0000
  C   C5540     1.0  0.97663  0.71601  0.54568  1.0000
  H   H4424     1.0  0.89787  0.64932  0.60764  1.0000
  C   C5541     1.0  0.95645  0.81912  0.42970  1.0000
  H   H4425     1.0  0.75836  0.91612  0.53456  1.0000
  C   C5542     1.0  0.83381  0.88411  0.35849  1.0000
  C   C5543     1.0  0.96383  0.86960  0.56458  1.0000
  C   C5544     1.0  0.79053  0.56404  0.57036  1.0000
  C   C5545     1.0  0.92949  0.96258  0.54775  1.0000
  H   H4426     1.0  0.93693  0.63813  0.45076  1.0000
  H   H4427     1.0  0.76825  0.95951  0.63022  1.0000
  H   H4428     1.0  0.75858  0.63230  0.48664  1.0000
  H   H4429     1.0  0.88962  0.95969  0.41454  1.0000
  C   C5546     1.0  0.97994  0.53215  0.57825  1.0000
  C   C5547     1.0  0.94807  0.81930  0.38882  1.0000
  C   C5548     1.0  0.81735  0.57840  0.39518  1.0000
  H   H4430     1.0  0.98171  0.56447  0.63067  1.0000
  C   C5549     1.0  0.81359  0.58690  0.41281  1.0000
  P   P186      1.0  0.80922  0.59279  0.37243  1.0000
  H   H4431     1.0  0.97354  0.63323  0.55223  1.0000
  H   H4432     1.0  0.90919  0.50232  0.55297  1.0000
  C   C5550     1.0  0.95944  0.65625  0.37495  1.0000
  H   H4433     1.0  0.97867  0.83464  0.62755  1.0000
  C   C5551     1.0  0.83411  0.49999  0.32765  1.0000
  C   C5552     1.0  0.96215  0.82963  0.37526  1.0000
  H   H4434     1.0  0.82086  0.63205  0.37102  1.0000
  C   C5553     1.0  0.98343  0.63935  0.63695  1.0000
  C   C5554     1.0  0.83531  0.98214  0.50867  1.0000
  C   C5555     1.0  0.96986  0.60799  0.42124  1.0000
  H   H4435     1.0  0.98434  0.52329  0.43459  1.0000
  H   H4436     1.0  0.93497  0.82281  0.45695  1.0000
  C   C5556     1.0  0.95514  0.93082  0.34943  1.0000
  S   S749      1.0  0.96399  0.82271  0.54689  1.0000
  C   C5557     1.0  0.95787  0.59382  0.42124  1.0000
  H   H4437     1.0  0.97400  0.55057  0.37150  1.0000
  H   H4438     1.0  0.93348  0.98088  0.34368  1.0000
  H   H4439     1.0  0.91695  0.84742  0.62130  1.0000
  C   C5558     1.0  0.90973  0.86183  0.62548  1.0000
  C   C5559     1.0  0.92552  0.86474  0.39134  1.0000
  H   H4440     1.0  0.82196  0.84240  0.62261  1.0000
  C   C5560     1.0  0.97631  0.66242  0.53481  1.0000
  C   C5561     1.0  0.91286  0.86703  0.64311  1.0000
  P   P187      1.0  0.93795  0.82689  0.41306  1.0000
  C   C5562     1.0  0.90359  0.88562  0.64879  1.0000
  H   H4441     1.0  0.75311  0.55829  0.54750  1.0000
  C   C5563     1.0  0.92968  0.63870  0.60207  1.0000
  C   C5564     1.0  0.89106  0.96881  0.39970  1.0000
  C   C5565     1.0  0.96351  0.80810  0.35095  1.0000
  C   C5566     1.0  0.78230  0.62858  0.36548  1.0000
  H   H4442     1.0  0.89060  0.49458  0.39753  1.0000
  H   H4443     1.0  0.91379  0.89343  0.37509  1.0000
  C   C5567     1.0  0.75082  0.95581  0.60883  1.0000
  C   C5568     1.0  0.97820  0.73703  0.37802  1.0000
  H   H4444     1.0  0.96732  0.84192  0.37931  1.0000
  C   C5569     1.0  0.91365  0.89499  0.40605  1.0000
  H   H4445     1.0  0.90097  0.67606  0.62569  1.0000
  C   C5570     1.0  0.93690  0.81408  0.64895  1.0000
  C   C5571     1.0  0.75458  0.90970  0.48441  1.0000
  H   H4446     1.0  0.76451  0.52931  0.62877  1.0000
  C   C5572     1.0  0.95057  0.81867  0.45056  1.0000
  H   H4447     1.0  0.96041  0.81305  0.47941  1.0000
  H   H4448     1.0  0.90677  0.91068  0.40465  1.0000
  C   C5573     1.0  0.92192  0.87043  0.32161  1.0000
  C   C5574     1.0  0.96442  0.70125  0.61378  1.0000
  H   H4449     1.0  0.85377  0.51230  0.51523  1.0000
  H   H4450     1.0  0.96856  0.68232  0.39641  1.0000
  C   C5575     1.0  0.74654  0.64705  0.58739  1.0000
  C   C5576     1.0  0.84134  0.85693  0.63429  1.0000
  C   C5577     1.0  0.97397  0.78774  0.53135  1.0000
  H   H4451     1.0  0.76057  0.89427  0.49002  1.0000
  H   H4452     1.0  0.81095  0.59693  0.32892  1.0000
  H   H4453     1.0  0.89252  0.86328  0.32370  1.0000
  H   H4454     1.0  0.85024  0.64715  0.35254  1.0000
  H   H4455     1.0  0.96700  0.70433  0.42097  1.0000
  C   C5578     1.0  0.77881  0.97243  0.40802  1.0000
  C   C5579     1.0  0.86291  0.60159  0.33723  1.0000
  C   C5580     1.0  0.98395  0.72629  0.55755  1.0000
  H   H4456     1.0  0.97491  0.72989  0.57157  1.0000
  H   H4457     1.0  0.78511  0.94629  0.32504  1.0000
  C   C5581     1.0  0.98767  0.71236  0.52692  1.0000
  H   H4458     1.0  0.87488  0.59288  0.32820  1.0000
  H   H4459     1.0  0.74247  0.61296  0.41135  1.0000
  H   H4460     1.0  0.97222  0.73617  0.63890  1.0000
  C   C5582     1.0  0.98577  0.77500  0.51845  1.0000
  H   H4461     1.0  0.97013  0.98555  0.52877  1.0000
  C   C5583     1.0  0.98706  0.67346  0.51824  1.0000
  C   C5584     1.0  0.75456  0.93884  0.37032  1.0000
  C   C5585     1.0  0.90212  0.87454  0.31817  1.0000
  H   H4462     1.0  0.78629  0.54599  0.32388  1.0000
  C   C5586     1.0  0.90525  0.98168  0.39389  1.0000
  C   C5587     1.0  0.96149  0.97354  0.53473  1.0000
  H   H4463     1.0  0.84224  0.94462  0.64422  1.0000
  H   H4464     1.0  0.98060  0.83207  0.34593  1.0000
  H   H4465     1.0  0.98197  0.81277  0.40624  1.0000
  H   H4466     1.0  0.74925  0.92726  0.38211  1.0000
  C   C5588     1.0  0.98498  0.80686  0.45568  1.0000
  C   C5589     1.0  0.97112  0.95355  0.53715  1.0000
  C   C5590     1.0  0.87992  0.97979  0.36742  1.0000
  C   C5591     1.0  0.94068  0.97804  0.54003  1.0000
  H   H4467     1.0  0.98113  0.88468  0.64478  1.0000
  S   S750      1.0  0.82610  0.98543  0.62946  1.0000
  C   C5592     1.0  0.98905  0.72910  0.47839  1.0000
  C   C5593     1.0  0.76517  0.89640  0.31699  1.0000
  C   C5594     1.0  0.83920  0.92947  0.64959  1.0000
  H   H4468     1.0  0.98935  0.49894  0.62048  1.0000
  C   C5595     1.0  0.98917  0.69647  0.47012  1.0000
  H   H4469     1.0  0.93528  0.48620  0.57374  1.0000
  H   H4470     1.0  0.93424  0.57012  0.84019  1.0000
  C   C5596     1.0  0.90138  0.55182  0.82072  1.0000
  S   S751      1.0  0.94522  0.70618  0.89337  1.0000
  H   H4471     1.0  0.94401  0.51420  0.86872  1.0000
  H   H4472     1.0  0.82200  0.50115  0.90691  1.0000
  C   C5597     1.0  0.91297  0.55139  0.85774  1.0000
  C   C5598     1.0  0.96963  0.66143  0.92863  1.0000
  C   C5599     1.0  0.93179  0.63285  0.92681  1.0000
  H   H4473     1.0  0.82697  0.87586  0.66958  1.0000
  H   H4474     1.0  0.90229  0.49386  0.93436  1.0000
  H   H4475     1.0  0.79309  0.90003  0.65176  1.0000
  C   C5600     1.0  0.92237  0.56204  0.83997  1.0000
  C   C5601     1.0  0.89223  0.54089  0.83828  1.0000
  C   C5602     1.0  0.91655  0.56226  0.82154  1.0000
  H   H4476     1.0  0.82278  0.53658  0.89192  1.0000
  H   H4477     1.0  0.89736  0.65353  0.96317  1.0000
  C   C5603     1.0  0.97897  0.67049  0.93991  1.0000
  C   C5604     1.0  0.94128  0.97835  0.73445  1.0000
  C   C5605     1.0  0.77550  0.97667  0.88595  1.0000
  S   S752      1.0  0.83901  0.97261  0.74138  1.0000
  H   H4478     1.0  0.77287  0.58937  0.93111  1.0000
  Fe  Fe376     1.0  0.97247  0.85749  0.73685  1.0000
  S   S753      1.0  0.94375  0.86796  0.75715  1.0000
  S   S754      1.0  0.86563  0.97566  0.77554  1.0000
  S   S755      1.0  0.89741  0.95374  0.72550  1.0000
  Fe  Fe377     1.0  0.82292  0.56458  0.95337  1.0000
  S   S756      1.0  0.81295  0.55151  0.93020  1.0000
  S   S757      1.0  0.81763  0.59820  0.95233  1.0000
  H   H4479     1.0  0.91942  0.97209  0.68778  1.0000
  S   S758      1.0  0.82696  0.50722  0.95634  1.0000
  H   H4480     1.0  0.93372  0.64649  0.95212  1.0000
  Fe  Fe378     1.0  0.84141  0.52897  0.93183  1.0000
  S   S759      1.0  0.86141  0.52005  0.90356  1.0000
  Fe  Fe379     1.0  0.79938  0.53064  0.95638  1.0000
  C   C5606     1.0  0.87100  0.58837  0.92161  1.0000
  S   S760      1.0  0.85259  0.54396  0.95269  1.0000
  H   H4481     1.0  0.86201  0.79143  0.98182  1.0000
  C   C5607     1.0  0.91848  0.62799  0.91616  1.0000
  C   C5608     1.0  0.91998  0.48884  0.65175  1.0000
  C   C5609     1.0  0.97174  0.90862  0.66231  1.0000
  H   H4482     1.0  0.96734  0.67072  0.83636  1.0000
  H   H4483     1.0  0.90866  0.82207  0.73147  1.0000
  H   H4484     1.0  0.96352  0.53341  0.87950  1.0000
  H   H4485     1.0  0.87665  0.56570  0.88096  1.0000
  H   H4486     1.0  0.93895  0.51447  0.75918  1.0000
  H   H4487     1.0  0.79164  0.96530  0.85894  1.0000
  H   H4488     1.0  0.85951  0.59721  0.93092  1.0000
  C   C5610     1.0  0.96858  0.89340  0.65316  1.0000
  Fe  Fe380     1.0  0.83289  0.97951  0.77300  1.0000
  H   H4489     1.0  0.98673  0.91178  0.66103  1.0000
  C   C5611     1.0  0.80325  0.93868  0.72275  1.0000
  H   H4490     1.0  0.88563  0.49923  0.87236  1.0000
  H   H4491     1.0  0.93367  0.96918  0.72835  1.0000
  C   C5612     1.0  0.93095  0.89211  0.74902  1.0000
  C   C5613     1.0  0.91131  0.89847  0.75838  1.0000
  C   C5614     1.0  0.90087  0.91765  0.75178  1.0000
  C   C5615     1.0  0.91007  0.93037  0.73569  1.0000
  C   C5616     1.0  0.92971  0.92408  0.72657  1.0000
  C   C5617     1.0  0.94014  0.90509  0.73325  1.0000
  H   H4492     1.0  0.90412  0.88847  0.77059  1.0000
  H   H4493     1.0  0.88567  0.92243  0.75886  1.0000
  H   H4494     1.0  0.93697  0.93404  0.71440  1.0000
  H   H4495     1.0  0.95540  0.90063  0.72635  1.0000
  C   C5618     1.0  0.97900  0.55849  0.87278  1.0000
  C   C5619     1.0  0.81395  0.52811  0.88647  1.0000
  H   H4496     1.0  0.75539  0.92588  0.89951  1.0000
  H   H4497     1.0  0.91202  0.50456  0.67703  1.0000
  C   C5620     1.0  0.93668  0.81581  0.66902  1.0000
  C   C5621     1.0  0.95158  0.82426  0.67415  1.0000
  H   H4498     1.0  0.87514  0.50662  0.71578  1.0000
  H   H4499     1.0  0.78087  0.95865  0.70766  1.0000
  H   H4500     1.0  0.92497  0.81055  0.68063  1.0000
  H   H4501     1.0  0.95133  0.82550  0.68964  1.0000
  C   C5622     1.0  0.95998  0.98295  0.72462  1.0000
  C   C5623     1.0  0.91549  0.71696  0.95679  1.0000
  C   C5624     1.0  0.93325  0.72435  0.94779  1.0000
  C   C5625     1.0  0.94292  0.72048  0.92862  1.0000
  C   C5626     1.0  0.93460  0.70960  0.91818  1.0000
  C   C5627     1.0  0.91702  0.70193  0.92731  1.0000
  C   C5628     1.0  0.90760  0.70540  0.94667  1.0000
  H   H4502     1.0  0.93944  0.73325  0.95558  1.0000
  H   H4503     1.0  0.95642  0.72651  0.92168  1.0000
  H   H4504     1.0  0.74110  0.96973  0.97303  1.0000
  H   H4505     1.0  0.95218  0.74272  0.85427  1.0000
  H   H4506     1.0  0.78388  0.49746  0.86537  1.0000
  C   C5629     1.0  0.82716  0.98471  0.66909  1.0000
  H   H4507     1.0  0.92381  0.57058  0.80792  1.0000
  H   H4508     1.0  0.75546  0.54404  0.89320  1.0000
  H   H4509     1.0  0.82691  0.98400  0.70065  1.0000
  H   H4510     1.0  0.90068  0.52959  0.92028  1.0000
  P   P188      1.0  0.75834  0.98511  0.73646  1.0000
  H   H4511     1.0  0.74712  0.96047  0.84152  1.0000
  C   C5630     1.0  0.83269  0.90264  0.67726  1.0000
  H   H4512     1.0  0.83091  0.89688  0.69325  1.0000
  H   H4513     1.0  0.78711  0.48932  0.93380  1.0000
  C   C5631     1.0  0.75583  0.96961  0.82973  1.0000
  H   H4514     1.0  0.94056  0.59175  0.92774  1.0000
  C   C5632     1.0  0.98057  0.62885  0.94750  1.0000
  C   C5633     1.0  0.83237  0.60780  0.96523  1.0000
  C   C5634     1.0  0.95538  0.49726  0.72554  1.0000
  C   C5635     1.0  0.90756  0.49704  0.80065  1.0000
  H   H4515     1.0  0.78249  0.94709  0.82860  1.0000
  C   C5636     1.0  0.93532  0.51000  0.88337  1.0000
  C   C5637     1.0  0.94969  0.66941  0.86601  1.0000
  C   C5638     1.0  0.90363  0.49480  0.72554  1.0000
  C   C5639     1.0  0.87025  0.49422  0.90296  1.0000
  H   H4516     1.0  0.75289  0.93068  0.97547  1.0000
  C   C5640     1.0  0.76223  0.97232  0.90396  1.0000
  C   C5641     1.0  0.97175  0.50481  0.79745  1.0000
  C   C5642     1.0  0.91982  0.50959  0.78757  1.0000
  H   H4517     1.0  0.92444  0.92227  0.68608  1.0000
  H   H4518     1.0  0.80348  0.55296  0.86463  1.0000
  C   C5643     1.0  0.80324  0.53728  0.87091  1.0000
  C   C5644     1.0  0.89044  0.91268  0.68031  1.0000
  C   C5645     1.0  0.76208  0.53357  0.92326  1.0000
  C   C5646     1.0  0.78731  0.97362  0.80694  1.0000
  C   C5647     1.0  0.93171  0.51939  0.65290  1.0000
  H   H4519     1.0  0.91053  0.69347  0.91932  1.0000
  H   H4520     1.0  0.95732  0.60763  0.86708  1.0000
  C   C5648     1.0  0.77586  0.96205  0.82237  1.0000
  H   H4521     1.0  0.92413  0.62138  0.90267  1.0000
  C   C5649     1.0  0.97890  0.64518  0.85688  1.0000
  H   H4522     1.0  0.89395  0.69959  0.95353  1.0000
  C   C5650     1.0  0.89810  0.54059  0.85666  1.0000
  H   H4523     1.0  0.83806  0.93143  0.68060  1.0000
  C   C5651     1.0  0.96510  0.56756  0.92413  1.0000
  C   C5652     1.0  0.98674  0.48961  0.84440  1.0000
  C   C5653     1.0  0.86619  0.58200  0.90539  1.0000
  H   H4524     1.0  0.92023  0.56750  0.91755  1.0000
  C   C5654     1.0  0.86762  0.92709  0.70751  1.0000
  C   C5655     1.0  0.94128  0.58264  0.87450  1.0000
  C   C5656     1.0  0.89777  0.63200  0.92265  1.0000
  C   C5657     1.0  0.92963  0.50444  0.76898  1.0000
  C   C5658     1.0  0.97124  0.50065  0.73381  1.0000
  C   C5659     1.0  0.97745  0.57937  0.86926  1.0000
  C   C5660     1.0  0.88093  0.57063  0.89321  1.0000
  C   C5661     1.0  0.93311  0.89917  0.66712  1.0000
  C   C5662     1.0  0.80374  0.94299  0.75668  1.0000
  H   H4525     1.0  0.96171  0.67078  0.91715  1.0000
  C   C5663     1.0  0.83949  0.63606  0.97766  1.0000
  C   C5664     1.0  0.88206  0.48816  0.88540  1.0000
  C   C5665     1.0  0.91116  0.51876  0.91231  1.0000
  C   C5666     1.0  0.75526  0.95394  0.90896  1.0000
  C   C5667     1.0  0.96539  0.66248  0.85157  1.0000
  H   H4526     1.0  0.76138  0.87276  0.95801  1.0000
  H   H4527     1.0  0.94092  0.50437  0.69916  1.0000
  H   H4528     1.0  0.92205  0.52312  0.79199  1.0000
  H   H4529     1.0  0.80994  0.93831  0.77050  1.0000
  C   C5668     1.0  0.96754  0.48635  0.79542  1.0000
  H   H4530     1.0  0.93945  0.68314  0.86208  1.0000
  C   C5669     1.0  0.79238  0.52617  0.86340  1.0000
  S   S761      1.0  0.97558  0.82781  0.72654  1.0000
  C   C5670     1.0  0.97657  0.61187  0.66418  1.0000
  C   C5671     1.0  0.97338  0.82302  0.83803  1.0000
  C   C5672     1.0  0.78821  0.95941  0.75508  1.0000
  H   H4531     1.0  0.78245  0.96713  0.76784  1.0000
  C   C5673     1.0  0.92290  0.52476  0.89372  1.0000
  H   H4532     1.0  0.80895  0.93057  0.71029  1.0000
  C   C5674     1.0  0.81139  0.93274  0.74048  1.0000
  S   S762      1.0  0.90347  0.72253  0.98059  1.0000
  H   H4533     1.0  0.98101  0.61277  0.95095  1.0000
  P   P189      1.0  0.90854  0.89208  0.67150  1.0000
  C   C5675     1.0  0.94784  0.79087  0.76194  1.0000
  S   S763      1.0  0.76938  0.52018  0.96219  1.0000
  C   C5676     1.0  0.98335  0.51463  0.72335  1.0000
  C   C5677     1.0  0.75688  0.90280  0.96461  1.0000
  H   H4534     1.0  0.91627  0.80233  0.76378  1.0000
  C   C5678     1.0  0.86590  0.94594  0.69533  1.0000
  H   H4535     1.0  0.77603  0.53934  0.92015  1.0000
  H   H4536     1.0  0.75128  0.90968  0.95076  1.0000
  H   H4537     1.0  0.74471  0.95079  0.92265  1.0000
  H   H4538     1.0  0.96628  0.83900  0.78932  1.0000
  C   C5679     1.0  0.76256  0.88197  0.96868  1.0000
  H   H4539     1.0  0.98802  0.62192  0.88020  1.0000
  H   H4540     1.0  0.95557  0.55617  0.92786  1.0000
  C   C5680     1.0  0.96680  0.83104  0.65921  1.0000
  H   H4541     1.0  0.95468  0.77000  0.82519  1.0000
  C   C5681     1.0  0.92400  0.64206  0.94385  1.0000
  H   H4542     1.0  0.78408  0.53325  0.85132  1.0000
  C   C5682     1.0  0.94271  0.56162  0.87801  1.0000
  C   C5683     1.0  0.77436  0.94414  0.87794  1.0000
  H   H4543     1.0  0.96271  0.52875  0.68071  1.0000
  C   C5684     1.0  0.75463  0.57173  0.95411  1.0000
  C   C5685     1.0  0.95857  0.59144  0.87016  1.0000
  C   C5686     1.0  0.78743  0.95483  0.72124  1.0000
  H   H4544     1.0  0.93459  0.67721  0.97147  1.0000
  C   C5687     1.0  0.76124  0.93990  0.89590  1.0000
  C   C5688     1.0  0.87975  0.91048  0.70004  1.0000
  C   C5689     1.0  0.90526  0.57170  0.91386  1.0000
  C   C5690     1.0  0.93646  0.91442  0.67637  1.0000
  H   H4545     1.0  0.80681  0.97513  0.90972  1.0000
  H   H4546     1.0  0.96798  0.81366  0.85182  1.0000
  H   H4547     1.0  0.95828  0.93048  0.68152  1.0000
  C   C5691     1.0  0.90068  0.56557  0.89722  1.0000
  C   C5692     1.0  0.79214  0.50594  0.87155  1.0000
  C   C5693     1.0  0.88886  0.93181  0.66832  1.0000
  H   H4548     1.0  0.89668  0.55223  0.80649  1.0000
  C   C5694     1.0  0.95246  0.50733  0.70624  1.0000
  H   H4549     1.0  0.88141  0.89623  0.71007  1.0000
  H   H4550     1.0  0.81487  0.63754  0.96202  1.0000
  C   C5695     1.0  0.91196  0.49838  0.92040  1.0000
  H   H4551     1.0  0.92680  0.59226  0.87463  1.0000
  C   C5696     1.0  0.96466  0.78822  0.77122  1.0000
  C   C5697     1.0  0.84899  0.59564  0.97264  1.0000
  C   C5698     1.0  0.92936  0.80043  0.77083  1.0000
  C   C5699     1.0  0.92774  0.80758  0.78886  1.0000
  C   C5700     1.0  0.94468  0.80523  0.79810  1.0000
  C   C5701     1.0  0.96308  0.79529  0.78927  1.0000
  P   P190      1.0  0.94280  0.81417  0.82149  1.0000
  C   C5702     1.0  0.92069  0.83330  0.82391  1.0000
  C   C5703     1.0  0.94113  0.79380  0.84258  1.0000
  C   C5704     1.0  0.94810  0.77375  0.83988  1.0000
  C   C5705     1.0  0.94684  0.75819  0.85635  1.0000
  C   C5706     1.0  0.93886  0.76248  0.87562  1.0000
  C   C5707     1.0  0.93213  0.78237  0.87849  1.0000
  C   C5708     1.0  0.93329  0.79799  0.86207  1.0000
  C   C5709     1.0  0.90222  0.82808  0.83418  1.0000
  C   C5710     1.0  0.88499  0.84273  0.83558  1.0000
  C   C5711     1.0  0.88596  0.86262  0.82650  1.0000
  C   C5712     1.0  0.90414  0.86784  0.81590  1.0000
  C   C5713     1.0  0.92141  0.85326  0.81450  1.0000
  C   C5714     1.0  0.96460  0.82538  0.82074  1.0000
  H   H4552     1.0  0.76711  0.56396  0.96158  1.0000
  S   S764      1.0  0.98703  0.51555  0.84071  1.0000
  Fe  Fe381     1.0  0.97827  0.70701  0.88322  1.0000
  P   P191      1.0  0.95841  0.62911  0.91730  1.0000
  C   C5715     1.0  0.75040  0.53622  0.90803  1.0000
  C   C5716     1.0  0.83684  0.92205  0.67016  1.0000
  H   H4553     1.0  0.97840  0.68664  0.93681  1.0000
  H   H4554     1.0  0.85701  0.95886  0.70139  1.0000
  H   H4555     1.0  0.91330  0.81500  0.79541  1.0000
  H   H4556     1.0  0.97616  0.79295  0.79640  1.0000
  H   H4557     1.0  0.97898  0.78076  0.76434  1.0000
  C   C5717     1.0  0.78156  0.96241  0.87298  1.0000
  H   H4558     1.0  0.93802  0.75036  0.88834  1.0000
  H   H4559     1.0  0.92612  0.78563  0.89350  1.0000
  H   H4560     1.0  0.92826  0.81334  0.86460  1.0000
  H   H4561     1.0  0.90105  0.81267  0.84089  1.0000
  H   H4562     1.0  0.87083  0.83861  0.84360  1.0000
  H   H4563     1.0  0.87259  0.87395  0.82749  1.0000
  H   H4564     1.0  0.90489  0.88319  0.80853  1.0000
  H   H4565     1.0  0.93512  0.85769  0.80574  1.0000
  C   C5718     1.0  0.96133  0.64191  0.89143  1.0000
  P   P192      1.0  0.92011  0.55082  0.88179  1.0000
  H   H4566     1.0  0.86029  0.92558  0.72306  1.0000
  C   C5719     1.0  0.81343  0.50797  0.89495  1.0000
  H   H4567     1.0  0.92253  0.85644  0.65236  1.0000
  Fe  Fe382     1.0  0.87132  0.97155  0.74321  1.0000
  C   C5720     1.0  0.94942  0.88854  0.65571  1.0000
  S   S765      1.0  0.80701  0.54550  0.97947  1.0000
  H   H4568     1.0  0.94922  0.78553  0.74785  1.0000
  C   C5721     1.0  0.75550  0.52366  0.94252  1.0000
  H   H4569     1.0  0.76134  0.49533  0.89959  1.0000
  H   H4570     1.0  0.77876  0.93334  0.86770  1.0000
  H   H4571     1.0  0.91767  0.98220  0.75974  1.0000
  C   C5722     1.0  0.90834  0.87008  0.69078  1.0000
  H   H4572     1.0  0.96015  0.51558  0.80442  1.0000
  H   H4573     1.0  0.85270  0.58001  0.97090  1.0000
  H   H4574     1.0  0.88752  0.62835  0.91438  1.0000
  C   C5723     1.0  0.82768  0.62804  0.96774  1.0000
  C   C5724     1.0  0.98010  0.52488  0.70432  1.0000
  Fe  Fe383     1.0  0.83588  0.52380  0.97715  1.0000
  C   C5725     1.0  0.92083  0.86654  0.70539  1.0000
  C   C5726     1.0  0.92079  0.84932  0.72008  1.0000
  C   C5727     1.0  0.90837  0.83554  0.72028  1.0000
  C   C5728     1.0  0.89567  0.83911  0.70601  1.0000
  C   C5729     1.0  0.89549  0.85641  0.69141  1.0000
  H   H4575     1.0  0.85090  0.58567  0.90246  1.0000
  C   C5730     1.0  0.96175  0.54960  0.87720  1.0000
  C   C5731     1.0  0.90331  0.64618  0.95017  1.0000
  S   S766      1.0  0.81235  0.96326  0.79818  1.0000
  C   C5732     1.0  0.94763  0.65918  0.88580  1.0000
  C   C5733     1.0  0.97260  0.83710  0.80295  1.0000
  H   H4576     1.0  0.93560  0.66525  0.89680  1.0000
  H   H4577     1.0  0.89082  0.53219  0.87019  1.0000
  C   C5734     1.0  0.83061  0.89074  0.66377  1.0000
  H   H4578     1.0  0.87519  0.96302  0.66640  1.0000
  H   H4579     1.0  0.90032  0.50076  0.81524  1.0000
  H   H4580     1.0  0.95561  0.49367  0.84168  1.0000
  H   H4581     1.0  0.88046  0.53274  0.83778  1.0000
  H   H4582     1.0  0.93066  0.87696  0.70555  1.0000
  H   H4583     1.0  0.93052  0.84663  0.73127  1.0000
  H   H4584     1.0  0.88613  0.82834  0.70613  1.0000
  H   H4585     1.0  0.88553  0.85894  0.68049  1.0000
  C   C5735     1.0  0.89047  0.58306  0.92600  1.0000
  C   C5736     1.0  0.97073  0.64053  0.93197  1.0000
  H   H4586     1.0  0.81386  0.98015  0.94200  1.0000
  H   H4587     1.0  0.96604  0.60308  0.67406  1.0000
  H   H4588     1.0  0.82627  0.94277  0.97806  1.0000
  C   C5737     1.0  0.96480  0.52112  0.69569  1.0000
  C   C5738     1.0  0.96893  0.60269  0.91862  1.0000
  C   C5739     1.0  0.95664  0.58783  0.92387  1.0000
  H   H4589     1.0  0.82353  0.92013  0.74180  1.0000
  C   C5740     1.0  0.77997  0.96551  0.73733  1.0000
  C   C5741     1.0  0.97706  0.63502  0.87672  1.0000
  C   C5742     1.0  0.88762  0.49428  0.71605  1.0000
  C   C5743     1.0  0.92035  0.50435  0.66198  1.0000
  C   C5744     1.0  0.95569  0.91913  0.67390  1.0000
  C   C5745     1.0  0.87633  0.94828  0.67566  1.0000
  H   H4590     1.0  0.82696  0.96882  0.67081  1.0000
  H   H4591     1.0  0.89393  0.58768  0.93894  1.0000
  C   C5746     1.0  0.89020  0.64103  0.93969  1.0000
  H   H4592     1.0  0.90338  0.50763  0.73255  1.0000
  C   C5747     1.0  0.75789  0.58599  0.93685  1.0000
  H   H4593     1.0  0.98089  0.70329  0.97692  1.0000
  H   H4594     1.0  0.87415  0.64421  0.94476  1.0000
  H   H4595     1.0  0.96670  0.97714  0.71088  1.0000
  H   H4596     1.0  0.75702  0.98327  0.91400  1.0000
  C   C5748     1.0  0.92734  0.48655  0.76341  1.0000
  H   H4597     1.0  0.74387  0.98273  0.77984  1.0000
  H   H4598     1.0  0.81469  0.97883  0.98069  1.0000
  H   H4599     1.0  0.97412  0.49261  0.74842  1.0000
  H   H4600     1.0  0.74439  0.60690  0.91368  1.0000
  H   H4601     1.0  0.88283  0.98385  0.69099  1.0000
  C   C5749     1.0  0.80219  0.49685  0.88778  1.0000
  H   H4602     1.0  0.93193  0.53148  0.66077  1.0000
  H   H4603     1.0  0.96723  0.49211  0.66863  1.0000
  C   C5750     1.0  0.75775  0.91461  0.97869  1.0000
  S   S767      1.0  0.98574  0.84198  0.66472  1.0000
  H   H4604     1.0  0.83578  0.65167  0.97956  1.0000
  C   C5751     1.0  0.74185  0.59584  0.92708  1.0000
  C   C5752     1.0  0.98585  0.56198  0.91919  1.0000
  C   C5753     1.0  0.86099  0.60375  0.98216  1.0000
  H   H4605     1.0  0.88253  0.83177  0.65452  1.0000
  S   S768      1.0  0.98369  0.87345  0.70616  1.0000
  C   C5754     1.0  0.98930  0.65875  0.95484  1.0000
  C   C5755     1.0  0.98951  0.83265  0.83766  1.0000
  C   C5756     1.0  0.93228  0.98557  0.75224  1.0000
  H   H4606     1.0  0.73997  0.51940  0.78081  1.0000
  C   C5757     1.0  0.93617  0.48963  0.89159  1.0000
  H   H4607     1.0  0.89786  0.93410  0.65354  1.0000
  Fe  Fe384     1.0  0.98922  0.84332  0.69658  1.0000
  C   C5758     1.0  0.98864  0.84683  0.80270  1.0000
  C   C5759     1.0  0.73956  0.48955  0.77588  1.0000
  H   H4608     1.0  0.75726  0.90382  0.65020  1.0000
  C   C5760     1.0  0.96978  0.62812  0.65003  1.0000
