data_image0
_chemical_formula_structural       CHC3H3CHC2HC2H4CH3CHCH2CH2CHFeHC2H2C3HC2H3SCH2C3PC2HC2SC2HCH2CPC2FeCFeCHC3HC4PH2S2HCHC2H3CHCS2H3SC2H2CHC4HC2SHFeCH2CFeC2FeSHSHS2C4H5CHC2H3CHC3H2CHCHCHCH4CHC5H2C3HCHC3H4FeHC2H3C4SH2CSC5H2CHC4HC2HC2H5CH2CH2CH4CSC2HC5HCH3CPHC5HC2PC3H4C2PC4HCHCFeHC2FeH3CHC5SCHC2HCH3CH2CHFeHCHC7H2CSC3HCH2CHCHC3SCH2CH4CHPC2HCH2CSCHC2HCHC2SCHCHFeCHCPHCHC2SHPHCPHCH2C2HC2HC4HCH2CHSH2C7HCHC2H3C2HSCH2FeHCHCH2CH4CHC2S2HC2HC2H3FeC2HC2HC2FeHC2HCH3CSCFeC5HCHC3HC3HCSC2H4C2H2CHC3HC2H2C2HCH2C2H3CH4PC5H2C2SH3C3H3C3HC2HSCHSHC4HCFeCHC2SCSC2HC2H2C2H2CFeCH3C3H2CFeCH2C7HCH2CHC2H3C8HCH2CHC2HPSFeC3H2CPH2C4H2CHCH4SC2H4CHCHC2H3CH2CSCH2C6H3CSCH3CH2SCHC2HC2HSHFeC2H3C2FeSC6HC2HC2SHCFeH4C2SHSC4FeCHCHSC2SCHC2FeHFeH4PCHCHCH2SCHC4H2SHSCHC2HCHCHC3HC3HCSH3S2HCH2FeH3CH2SHC2HC2HCHC3SH2C2HC2H2C4H3C2PH3SCH2C5HCFe2C3H3C7HCHCHPHCH2C3H2CSC2HCHSHC4H2CHCHFeHFeHSFeHPHC2H2C2H4CH5CHC4H2C6HCH2C2HCH3CH2SH2C11SHC2SHCH2C2SC3H2C2HCH2CHCHFeCS2CPSHC2HC2FeHCHSHSHCH3CHC2SH2FeCHCH2C2HC3HC2H3CHC2PHCH2C2H2C3SCHCHSCPH3SH3CHC2HC3H3SFeHC3HC3H2S2CHC2HCSHC5H3CHCHC3SC4FeC3H2C3HC3HC4HCFeH2CH4CH3CH2CSH2SH2C2FeHCH2SCHCHC2H2C4FeC2PCSHCHC2H2C4PC3H6C2H2C2HC2HCSH2C2H2S2C3FeCHCHSHCHC2FeC3SHCHCHC2HC3HPCH2CHC6FeC2SC3HCH3SHC3HCH3CHSHFeS2C3HCFeCH2CH3C2HC5PH3CHCHCHCHCHC2HPHC3HC3H2C3H2CHCHCH3FeHC4HC3H2C2HCHPH2CHCHCH2C3H2CHCH3C2HCHC7SCHCH2C5HC3H2C3H2CHC3H3CHC2HSHC5H3CH2CH2CSC3HCSHFeCFeCFeC3S2CSHSH5CH3C5FeCH2C3HCHC3H2SC4H2C2FeCHC2HCSCHFeH2SHCSC3HSCH2SHCSCH2C2SC4HC6H3CHCH4CHC5H3CFeHC5H2PH2C4H2CHPH2CSHC3PC2HCH3C3HC3H2CHCH5SC3H3CHSC5H2PCH3C2H3C2H2C3HC2H2C2H2CHSC3H3C7HCH3SHCPC5HC3H3C2H2CHC5FeC2HCHC2S2FeC2FeSHCHCHC2FeCH2CH2C2HCH2CFeC2H2C3H2C2H3CS2C2H2C3H2C2H4C2HCHCSFeC2HC2H2C2HC2SH2C3HPHCFeSC2HCSCH2CHC2H2C2HCHC6SC2HCH2CHCH2FeCHC2H3C4HCSCS2H2C3HC2SCHPHC2PCH4CHC3HFeHC2FeH2C3HCHCHC2HFeSC2HC3H3CHPHC2FeHC3HCHSHCFeC2H2CHC3H2CH3CSC3HSCHSHSC4FeH2CH3SC2HC3HC2PC2HSC3H2CH2C3SC4HC4H5C4FeC7HSH2C2H3CHPHCS2HFeC3H2CFeH2C2HCH2CHC2H3CH3SC2H4CH2CHCHCHC2HCHC2HCSCH3CHC6HCH2C3SH2C3HCHCH3C2SHFeCH2CFeHCSCHSHC3HCH3CPCHSHSC3H3CH2CH2C5HFe2CFeC3HSC2HPSH4C3H2CHSHC2HCSCHC4FeC3SCH5C2HSHFeH2C2H2C3SCPH3CSHC2H3SCSCH2C3HSCHFeCSFeCHCHSHCSHC2HSCH5C2HCHC4H2CH2CH2C4HC4HCH4C2HC3HFeSC3HC2SC2HFeCHCH3C2HC4H
_chemical_formula_sum              "C1200 H960 Fe80 S160 P40"
_cell_length_a       16.8983
_cell_length_b       49.745
_cell_length_c       43.0248
_cell_angle_alpha    74.9239
_cell_angle_beta     84.1394
_cell_angle_gamma    87.7116

_space_group_name_H-M_alt    "P 1"
_space_group_IT_number       1

loop_
  _space_group_symop_operation_xyz
  'x, y, z'

loop_
  _atom_site_type_symbol
  _atom_site_label
  _atom_site_symmetry_multiplicity
  _atom_site_fract_x
  _atom_site_fract_y
  _atom_site_fract_z
  _atom_site_occupancy
  C   C1        1.0  0.67303  0.24994  0.21708  1.0000
  H   H1        1.0  0.78545  0.10090  0.20672  1.0000
  C   C2        1.0  0.35816  0.15761  0.38099  1.0000
  C   C3        1.0  0.63241  0.22686  0.33412  1.0000
  C   C4        1.0  0.62629  0.09374  0.28027  1.0000
  H   H2        1.0  0.74135  0.03449  0.29296  1.0000
  H   H3        1.0  0.26803  0.02077  0.39354  1.0000
  H   H4        1.0  0.61385  0.20735  0.44074  1.0000
  C   C5        1.0  0.50950  0.15673  0.22252  1.0000
  H   H5        1.0  0.30550  0.07568  0.38060  1.0000
  C   C6        1.0  0.45364  0.09579  0.30321  1.0000
  C   C7        1.0  0.70699  0.20212  0.37811  1.0000
  H   H6        1.0  0.98246  0.02595  0.39263  1.0000
  C   C8        1.0  0.12874  0.08602  0.34138  1.0000
  C   C9        1.0  0.91449  0.16574  0.34922  1.0000
  H   H7        1.0  0.25493  0.08495  0.43494  1.0000
  H   H8        1.0  0.73902  0.17235  0.24210  1.0000
  H   H9        1.0  0.83340  0.20840  0.37117  1.0000
  H   H10       1.0  0.88838  0.13805  0.44269  1.0000
  C   C10       1.0  0.48959  0.26255  0.43803  1.0000
  H   H11       1.0  0.53762  0.25116  0.26379  1.0000
  H   H12       1.0  0.09574  0.07151  0.25371  1.0000
  H   H13       1.0  0.02570  0.18195  0.35612  1.0000
  C   C11       1.0  0.52480  0.14364  0.25451  1.0000
  H   H14       1.0  0.23248  0.15301  0.39428  1.0000
  C   C12       1.0  0.56408  0.09092  0.21127  1.0000
  H   H15       1.0  0.49778  0.22409  0.22713  1.0000
  H   H16       1.0  0.11437  0.13056  0.32382  1.0000
  C   C13       1.0  0.11009  0.02718  0.27186  1.0000
  H   H17       1.0  0.92159  0.17371  0.32320  1.0000
  H   H18       1.0  0.83157  0.23925  0.31672  1.0000
  C   C14       1.0  0.72079  0.21031  0.25704  1.0000
  H   H19       1.0  0.74536  0.03574  0.36367  1.0000
  Fe  Fe1       1.0  0.15334  0.26329  0.41943  1.0000
  H   H20       1.0  0.73965  0.20085  0.28087  1.0000
  C   C15       1.0  0.72117  0.19404  0.23497  1.0000
  C   C16       1.0  0.83749  0.14091  0.39799  1.0000
  H   H21       1.0  0.80314  0.11637  0.29547  1.0000
  H   H22       1.0  0.70943  0.18723  0.40122  1.0000
  C   C17       1.0  0.50703  0.09007  0.23765  1.0000
  C   C18       1.0  0.17922  0.05440  0.22229  1.0000
  C   C19       1.0  0.91987  0.02104  0.39766  1.0000
  H   H23       1.0  0.38793  0.13520  0.29352  1.0000
  C   C20       1.0  0.39755  0.19867  0.33842  1.0000
  C   C21       1.0  0.13661  0.06373  0.36853  1.0000
  H   H24       1.0  0.62039  0.10114  0.20958  1.0000
  H   H25       1.0  0.19088  0.07428  0.20500  1.0000
  H   H26       1.0  0.36678  0.05193  0.21736  1.0000
  S   S1        1.0  0.29244  0.24203  0.31952  1.0000
  C   C22       1.0  0.84196  0.13927  0.20585  1.0000
  H   H27       1.0  0.52815  0.20128  0.28310  1.0000
  H   H28       1.0  0.58029  0.19930  0.37810  1.0000
  C   C23       1.0  0.53157  0.16005  0.27619  1.0000
  C   C24       1.0  0.45561  0.24657  0.38333  1.0000
  C   C25       1.0  0.75989  0.10229  0.29174  1.0000
  P   P1        1.0  0.52802  0.10609  0.26904  1.0000
  C   C26       1.0  0.12070  0.11808  0.37521  1.0000
  C   C27       1.0  0.52275  0.18892  0.26617  1.0000
  H   H29       1.0  0.11349  0.13911  0.37791  1.0000
  C   C28       1.0  0.84581  0.15124  0.36428  1.0000
  C   C29       1.0  0.67469  0.23368  0.19493  1.0000
  S   S2        1.0  0.06591  0.23604  0.35331  1.0000
  C   C30       1.0  0.97276  0.17089  0.36793  1.0000
  C   C31       1.0  0.50606  0.20173  0.23458  1.0000
  H   H30       1.0  0.85248  0.13284  0.23117  1.0000
  C   C32       1.0  0.69845  0.20572  0.20390  1.0000
  H   H31       1.0  0.19647  0.19583  0.35434  1.0000
  H   H32       1.0  0.29604  0.12225  0.34265  1.0000
  C   C33       1.0  0.78648  0.02636  0.38130  1.0000
  P   P2        1.0  0.14272  0.03973  0.43514  1.0000
  C   C34       1.0  0.40132  0.06159  0.35157  1.0000
  C   C35       1.0  0.12107  0.11321  0.34471  1.0000
  Fe  Fe2       1.0  0.67392  0.12227  0.37535  1.0000
  C   C36       1.0  0.69655  0.23840  0.24826  1.0000
  Fe  Fe3       1.0  0.18981  0.25038  0.35362  1.0000
  C   C37       1.0  0.39328  0.11459  0.30943  1.0000
  H   H33       1.0  0.39030  0.07506  0.25960  1.0000
  C   C38       1.0  0.77717  0.21377  0.36089  1.0000
  C   C39       1.0  0.31776  0.20734  0.33742  1.0000
  C   C40       1.0  0.13861  0.06851  0.39930  1.0000
  H   H34       1.0  0.66912  0.13353  0.28339  1.0000
  C   C41       1.0  0.96297  0.16137  0.40171  1.0000
  C   C42       1.0  0.41799  0.17359  0.36021  1.0000
  C   C43       1.0  0.70307  0.23831  0.31637  1.0000
  C   C44       1.0  0.43515  0.07623  0.23947  1.0000
  P   P3        1.0  0.70076  0.26012  0.27580  1.0000
  H   H35       1.0  0.89573  0.17938  0.19757  1.0000
  H   H36       1.0  0.54167  0.15046  0.30117  1.0000
  S   S3        1.0  0.20125  0.22580  0.40460  1.0000
  S   S4        1.0  0.53614  0.07325  0.44225  1.0000
  H   H37       1.0  0.98569  0.06613  0.42127  1.0000
  C   C45       1.0  0.34465  0.08090  0.35846  1.0000
  H   H38       1.0  0.13955  0.04290  0.36524  1.0000
  C   C46       1.0  0.68310  0.11194  0.28484  1.0000
  C   C47       1.0  0.50021  0.18570  0.21265  1.0000
  H   H39       1.0  0.50041  0.05385  0.31979  1.0000
  H   H40       1.0  0.88799  0.04778  0.35262  1.0000
  H   H41       1.0  0.78508  0.12971  0.41002  1.0000
  C   C48       1.0  0.72469  0.05613  0.29045  1.0000
  H   H42       1.0  0.43935  0.24086  0.36226  1.0000
  C   C49       1.0  0.89617  0.14574  0.41663  1.0000
  S   S5        1.0  0.57866  0.02756  0.37747  1.0000
  S   S6        1.0  0.76835  0.14772  0.34124  1.0000
  H   H43       1.0  0.12460  0.10028  0.42587  1.0000
  H   H44       1.0  0.82296  0.26831  0.21957  1.0000
  H   H45       1.0  0.50281  0.14474  0.20534  1.0000
  S   S7        1.0  0.03254  0.16938  0.42559  1.0000
  C   C50       1.0  0.12579  0.05287  0.24974  1.0000
  C   C51       1.0  0.45563  0.06894  0.32405  1.0000
  H   H46       1.0  0.44334  0.21235  0.32428  1.0000
  H   H47       1.0  0.84017  0.06690  0.29966  1.0000
  C   C52       1.0  0.77566  0.23148  0.32997  1.0000
  H   H48       1.0  0.57581  0.23142  0.32416  1.0000
  C   C53       1.0  0.78074  0.07445  0.29439  1.0000
  C   C54       1.0  0.64799  0.06567  0.28320  1.0000
  C   C55       1.0  0.42120  0.06321  0.21540  1.0000
  C   C56       1.0  0.25828  0.18966  0.35566  1.0000
  H   H49       1.0  0.12771  0.08217  0.31778  1.0000
  C   C57       1.0  0.33980  0.10722  0.33715  1.0000
  C   C58       1.0  0.27850  0.16526  0.37808  1.0000
  S   S8        1.0  0.56247  0.10551  0.36410  1.0000
  H   H50       1.0  0.47975  0.16746  0.36227  1.0000
  Fe  Fe4       1.0  0.59570  0.06466  0.39683  1.0000
  C   C59       1.0  0.63452  0.20872  0.36485  1.0000
  H   H51       1.0  0.60600  0.05107  0.27972  1.0000
  H   H52       1.0  0.40522  0.04121  0.36820  1.0000
  C   C60       1.0  0.45309  0.22686  0.41330  1.0000
  Fe  Fe5       1.0  0.07580  0.21326  0.40491  1.0000
  C   C61       1.0  0.12838  0.09591  0.40240  1.0000
  C   C62       1.0  0.86678  0.03328  0.37509  1.0000
  Fe  Fe6       1.0  0.50671  0.11471  0.40954  1.0000
  S   S9        1.0  0.38038  0.12896  0.41219  1.0000
  H   H53       1.0  0.81797  0.24386  0.40105  1.0000
  S   S10       1.0  0.71242  0.08070  0.40414  1.0000
  H   H54       1.0  0.43677  0.20567  0.41477  1.0000
  S   S11       1.0  0.61423  0.13577  0.41786  1.0000
  S   S12       1.0  0.02777  0.24871  0.42457  1.0000
  C   C63       1.0  0.21577  0.03015  0.21659  1.0000
  C   C64       1.0  0.71915  0.26596  0.41878  1.0000
  C   C65       1.0  0.78559  0.24830  0.42220  1.0000
  C   C66       1.0  0.46921  0.23483  0.44104  1.0000
  H   H55       1.0  0.06733  0.02573  0.29282  1.0000
  H   H56       1.0  0.42205  0.26890  0.21072  1.0000
  H   H57       1.0  0.25509  0.03157  0.19474  1.0000
  H   H58       1.0  0.91034  0.09933  0.53748  1.0000
  H   H59       1.0  0.98084  0.09818  0.58521  1.0000
  C   C67       1.0  0.31844  0.19080  0.46748  1.0000
  H   H60       1.0  0.20393  0.08774  0.53063  1.0000
  C   C68       1.0  0.04878  0.03941  0.45976  1.0000
  C   C69       1.0  0.28157  0.14229  0.48103  1.0000
  H   H61       1.0  0.19464  0.21378  0.56023  1.0000
  H   H62       1.0  0.68657  0.02327  0.46391  1.0000
  H   H63       1.0  0.80552  0.06898  0.54239  1.0000
  C   C70       1.0  0.37973  0.26294  0.55203  1.0000
  H   H64       1.0  0.25512  0.02594  0.66790  1.0000
  C   C71       1.0  0.01454  0.09535  0.56349  1.0000
  C   C72       1.0  0.05961  0.19045  0.50324  1.0000
  C   C73       1.0  0.42863  0.22958  0.50975  1.0000
  H   H65       1.0  0.98867  0.15779  0.49657  1.0000
  H   H66       1.0  0.73808  0.18016  0.45349  1.0000
  C   C74       1.0  0.18645  0.19148  0.56680  1.0000
  H   H67       1.0  0.21467  0.04590  0.57621  1.0000
  C   C75       1.0  0.11307  0.18038  0.58140  1.0000
  H   H68       1.0  0.36514  0.08600  0.46718  1.0000
  C   C76       1.0  0.90847  0.05262  0.46445  1.0000
  H   H69       1.0  0.45181  0.04088  0.60471  1.0000
  C   C77       1.0  0.39033  0.18350  0.48150  1.0000
  H   H70       1.0  0.61903  0.02384  0.56244  1.0000
  H   H71       1.0  0.74974  0.14974  0.50812  1.0000
  H   H72       1.0  0.51958  0.17710  0.54043  1.0000
  H   H73       1.0  0.64190  0.14899  0.55181  1.0000
  C   C78       1.0  0.83862  0.26909  0.52620  1.0000
  H   H74       1.0  0.26176  0.25926  0.53904  1.0000
  C   C79       1.0  0.46013  0.25639  0.54665  1.0000
  C   C80       1.0  0.90039  0.03691  0.49653  1.0000
  C   C81       1.0  0.75348  0.21593  0.55030  1.0000
  C   C82       1.0  0.61961  0.19511  0.46521  1.0000
  C   C83       1.0  0.35179  0.13482  0.49581  1.0000
  H   H75       1.0  0.66497  0.24895  0.54796  1.0000
  H   H76       1.0  0.23109  0.07006  0.68326  1.0000
  C   C84       1.0  0.98799  0.17779  0.50228  1.0000
  C   C85       1.0  0.34803  0.23674  0.51481  1.0000
  C   C86       1.0  0.68984  0.17973  0.47222  1.0000
  H   H77       1.0  0.46245  0.26780  0.66587  1.0000
  C   C87       1.0  0.39361  0.05090  0.60349  1.0000
  H   H78       1.0  0.54762  0.23611  0.52065  1.0000
  C   C88       1.0  0.05007  0.06012  0.64034  1.0000
  C   C89       1.0  0.26835  0.06635  0.45313  1.0000
  C   C90       1.0  0.24843  0.17384  0.55996  1.0000
  H   H79       1.0  0.21149  0.17570  0.45458  1.0000
  H   H80       1.0  0.98496  0.09452  0.48667  1.0000
  H   H81       1.0  0.46142  0.14843  0.50615  1.0000
  H   H82       1.0  0.12263  0.11953  0.65159  1.0000
  Fe  Fe7       1.0  0.68130  0.03114  0.65702  1.0000
  H   H83       1.0  0.57502  0.10162  0.51721  1.0000
  C   C91       1.0  0.01630  0.09342  0.50776  1.0000
  C   C92       1.0  0.56701  0.17821  0.52122  1.0000
  H   H84       1.0  0.69060  0.09612  0.67869  1.0000
  H   H85       1.0  0.86727  0.22514  0.45365  1.0000
  H   H86       1.0  0.09083  0.02193  0.58688  1.0000
  C   C93       1.0  0.62895  0.21256  0.58491  1.0000
  C   C94       1.0  0.37774  0.07366  0.61659  1.0000
  C   C95       1.0  0.16515  0.13367  0.58406  1.0000
  C   C96       1.0  0.00531  0.05091  0.67016  1.0000
  S   S13       1.0  0.73048  0.09091  0.48555  1.0000
  H   H87       1.0  0.52888  0.09377  0.57586  1.0000
  H   H88       1.0  0.29217  0.10475  0.62462  1.0000
  C   C97       1.0  0.09099  0.08533  0.63283  1.0000
  S   S14       1.0  0.61016  0.06903  0.63338  1.0000
  C   C98       1.0  0.30338  0.08706  0.61443  1.0000
  C   C99       1.0  0.81395  0.23789  0.45244  1.0000
  C   C100      1.0  0.09773  0.09202  0.56192  1.0000
  C   C101      1.0  0.22527  0.04174  0.45821  1.0000
  C   C102      1.0  0.08877  0.10067  0.65612  1.0000
  H   H89       1.0  0.05254  0.04754  0.62321  1.0000
  H   H90       1.0  0.85730  0.06367  0.45363  1.0000
  C   C103      1.0  0.91580  0.19159  0.50680  1.0000
  H   H91       1.0  0.34575  0.02276  0.57984  1.0000
  C   C104      1.0  0.63632  0.16237  0.52784  1.0000
  C   C105      1.0  0.25981  0.05424  0.58706  1.0000
  C   C106      1.0  0.33430  0.04094  0.58918  1.0000
  C   C107      1.0  0.35378  0.04346  0.49438  1.0000
  H   H92       1.0  0.61343  0.04478  0.50373  1.0000
  C   C108      1.0  0.55690  0.19395  0.48958  1.0000
  C   C109      1.0  0.09885  0.08978  0.50612  1.0000
  H   H93       1.0  0.28582  0.13188  0.56197  1.0000
  C   C110      1.0  0.64842  0.02604  0.51190  1.0000
  C   C111      1.0  0.04032  0.02404  0.49230  1.0000
  H   H94       1.0  0.06432  0.19415  0.58584  1.0000
  H   H95       1.0  0.30480  0.18240  0.54801  1.0000
  H   H96       1.0  0.30393  0.23054  0.50165  1.0000
  H   H97       1.0  0.83078  0.17946  0.56258  1.0000
  H   H98       1.0  0.11482  0.22715  0.50828  1.0000
  C   C112      1.0  0.97419  0.09610  0.53646  1.0000
  H   H99       1.0  0.42368  0.08091  0.62821  1.0000
  H   H100      1.0  0.30502  0.21236  0.45598  1.0000
  C   C113      1.0  0.26493  0.17021  0.46690  1.0000
  H   H101      1.0  0.11540  0.18003  0.49883  1.0000
  H   H102      1.0  0.57344  0.22200  0.59198  1.0000
  C   C114      1.0  0.22757  0.02553  0.69189  1.0000
  H   H103      1.0  0.50048  0.26950  0.45901  1.0000
  H   H104      1.0  0.60887  0.17380  0.62110  1.0000
  H   H105      1.0  0.24137  0.12646  0.47931  1.0000
  H   H106      1.0  0.86105  0.18208  0.50440  1.0000
  C   C115      1.0  0.48469  0.23992  0.52551  1.0000
  S   S15       1.0  0.81418  0.02465  0.65352  1.0000
  C   C116      1.0  0.71046  0.26364  0.47595  1.0000
  C   C117      1.0  0.10206  0.15160  0.58965  1.0000
  H   H107      1.0  0.13131  0.08783  0.48382  1.0000
  C   C118      1.0  0.32370  0.25309  0.53612  1.0000
  C   C119      1.0  0.13965  0.08940  0.53292  1.0000
  C   C120      1.0  0.91451  0.21786  0.51337  1.0000
  C   C121      1.0  0.72203  0.17379  0.59307  1.0000
  C   C122      1.0  0.77425  0.18895  0.56782  1.0000
  H   H108      1.0  0.36546  0.11310  0.50631  1.0000
  C   C123      1.0  0.04290  0.09158  0.68578  1.0000
  H   H109      1.0  0.80881  0.25488  0.57803  1.0000
  H   H110      1.0  0.54679  0.26268  0.61709  1.0000
  H   H111      1.0  0.40361  0.04404  0.50817  1.0000
  C   C124      1.0  0.40629  0.15522  0.49580  1.0000
  P   P4        1.0  0.82092  0.23617  0.51781  1.0000
  H   H112      1.0  0.98801  0.25068  0.51887  1.0000
  C   C125      1.0  0.61511  0.09281  0.53541  1.0000
  C   C126      1.0  0.74545  0.07476  0.54951  1.0000
  C   C127      1.0  0.68083  0.22772  0.55957  1.0000
  C   C128      1.0  0.58928  0.08849  0.56850  1.0000
  C   C129      1.0  0.33169  0.06715  0.47140  1.0000
  H   H113      1.0  0.50359  0.26478  0.55822  1.0000
  C   C130      1.0  0.69357  0.08595  0.52606  1.0000
  C   C131      1.0  0.71940  0.07000  0.58225  1.0000
  P   P5        1.0  0.15052  0.09654  0.59457  1.0000
  C   C132      1.0  0.98691  0.23031  0.51451  1.0000
  C   C133      1.0  0.23766  0.14508  0.56823  1.0000
  C   C134      1.0  0.00130  0.06667  0.69280  1.0000
  H   H114      1.0  0.76013  0.06119  0.59997  1.0000
  H   H115      1.0  0.04430  0.14336  0.60029  1.0000
  H   H116      1.0  0.73802  0.15287  0.60614  1.0000
  H   H117      1.0  0.97383  0.03141  0.67585  1.0000
  C   C135      1.0  0.24465  0.07799  0.59872  1.0000
  C   C136      1.0  0.64918  0.18553  0.60148  1.0000
  P   P6        1.0  0.46134  0.21024  0.48042  1.0000
  C   C137      1.0  0.77646  0.24534  0.47978  1.0000
  C   C138      1.0  0.64149  0.07670  0.59193  1.0000
  C   C139      1.0  0.05913  0.21683  0.50895  1.0000
  C   C140      1.0  0.69731  0.16287  0.50327  1.0000
  H   H118      1.0  0.84290  0.03569  0.51055  1.0000
  C   C141      1.0  0.96635  0.02282  0.51046  1.0000
  H   H119      1.0  0.69131  0.25339  0.69211  1.0000
  C   C142      1.0  0.98215  0.05399  0.44617  1.0000
  Fe  Fe8       1.0  0.64975  0.09355  0.44655  1.0000
  H   H120      1.0  0.55790  0.08511  0.70843  1.0000
  C   C143      1.0  0.46147  0.23380  0.80347  1.0000
  C   C144      1.0  0.65532  0.13182  0.89338  1.0000
  Fe  Fe9       1.0  0.75113  0.05772  0.92333  1.0000
  H   H121      1.0  0.59854  0.07805  0.81411  1.0000
  H   H122      1.0  0.48901  0.09019  0.85062  1.0000
  H   H123      1.0  0.40333  0.12036  0.87444  1.0000
  C   C145      1.0  0.15150  0.02587  0.75264  1.0000
  H   H124      1.0  0.80119  0.04769  0.76087  1.0000
  C   C146      1.0  0.37697  0.14870  0.93847  1.0000
  C   C147      1.0  0.23214  0.06643  0.89212  1.0000
  C   C148      1.0  0.52944  0.26497  0.89468  1.0000
  C   C149      1.0  0.67964  0.26808  0.73537  1.0000
  C   C150      1.0  0.60420  0.06067  0.75212  1.0000
  S   S16       1.0  0.24139  0.23234  0.91759  1.0000
  C   C151      1.0  0.57230  0.21796  0.92000  1.0000
  H   H125      1.0  0.82112  0.26682  0.88215  1.0000
  C   C152      1.0  0.51158  0.25677  0.79385  1.0000
  C   C153      1.0  0.44810  0.10250  0.92087  1.0000
  H   H126      1.0  0.41480  0.26887  0.87578  1.0000
  C   C154      1.0  0.89198  0.09083  0.94471  1.0000
  H   H127      1.0  0.06490  0.08103  0.93658  1.0000
  H   H128      1.0  0.69219  0.24778  0.75093  1.0000
  H   H129      1.0  0.57947  0.18864  0.85265  1.0000
  C   C155      1.0  0.74770  0.05647  0.75021  1.0000
  H   H130      1.0  0.16429  0.07037  0.73732  1.0000
  H   H131      1.0  0.72636  0.13025  0.84943  1.0000
  C   C156      1.0  0.93778  0.14628  0.92078  1.0000
  H   H132      1.0  0.40334  0.23504  0.79457  1.0000
  Fe  Fe10      1.0  0.10950  0.23871  0.91584  1.0000
  H   H133      1.0  0.44680  0.19157  0.83241  1.0000
  C   C157      1.0  0.56296  0.06162  0.83033  1.0000
  H   H134      1.0  0.47607  0.08470  0.91418  1.0000
  C   C158      1.0  0.19215  0.11480  0.87384  1.0000
  C   C159      1.0  0.71020  0.14232  0.86682  1.0000
  C   C160      1.0  0.89022  0.26915  0.83669  1.0000
  C   C161      1.0  0.90799  0.13211  0.90027  1.0000
  C   C162      1.0  0.67301  0.17229  0.91346  1.0000
  C   C163      1.0  0.75420  0.07336  0.71854  1.0000
  C   C164      1.0  0.21339  0.05069  0.70040  1.0000
  H   H135      1.0  0.39462  0.21793  0.88912  1.0000
  H   H136      1.0  0.63891  0.25528  0.91619  1.0000
  C   C165      1.0  0.61082  0.07764  0.72045  1.0000
  S   S17       1.0  0.62735  0.04995  0.91363  1.0000
  C   C166      1.0  0.40750  0.12265  0.89848  1.0000
  C   C167      1.0  0.88298  0.10459  0.91255  1.0000
  C   C168      1.0  0.50096  0.06857  0.85107  1.0000
  H   H137      1.0  0.04051  0.10357  0.70358  1.0000
  C   C169      1.0  0.79704  0.04544  0.82502  1.0000
  H   H138      1.0  0.81469  0.18146  0.93645  1.0000
  H   H139      1.0  0.78137  0.06550  0.80978  1.0000
  C   C170      1.0  0.56099  0.20770  0.83614  1.0000
  H   H140      1.0  0.96680  0.05928  0.71598  1.0000
  C   C171      1.0  0.67275  0.04993  0.76726  1.0000
  H   H141      1.0  0.94642  0.26538  0.84733  1.0000
  C   C172      1.0  0.48612  0.20927  0.82464  1.0000
  C   C173      1.0  0.58609  0.25565  0.80603  1.0000
  C   C174      1.0  0.61082  0.23081  0.82702  1.0000
  S   S18       1.0  0.83489  0.08787  0.88881  1.0000
  C   C175      1.0  0.63621  0.14680  0.91650  1.0000
  H   H142      1.0  0.54563  0.05515  0.76431  1.0000
  H   H143      1.0  0.59231  0.13845  0.93650  1.0000
  C   C176      1.0  0.50350  0.20780  0.91165  1.0000
  H   H144      1.0  0.75379  0.20310  0.88293  1.0000
  H   H145      1.0  0.20226  0.13545  0.85797  1.0000
  H   H146      1.0  0.78868  0.17599  0.84273  1.0000
  H   H147      1.0  0.66836  0.22911  0.83625  1.0000
  C   C177      1.0  0.45715  0.04759  0.87341  1.0000
  H   H148      1.0  0.90071  0.06128  0.83923  1.0000
  P   P7        1.0  0.64234  0.19335  0.94103  1.0000
  C   C178      1.0  0.72671  0.18305  0.88629  1.0000
  C   C179      1.0  0.17578  0.05086  0.73082  1.0000
  H   H149      1.0  0.29429  0.09650  0.85272  1.0000
  C   C180      1.0  0.74572  0.16798  0.86321  1.0000
  H   H150      1.0  0.49344  0.18566  0.91757  1.0000
  H   H151      1.0  0.90176  0.14273  0.87531  1.0000
  C   C181      1.0  0.24411  0.09284  0.87100  1.0000
  S   S19       1.0  0.31173  0.16909  0.88109  1.0000
  C   C182      1.0  0.12764  0.11027  0.89748  1.0000
  H   H152      1.0  0.27299  0.04965  0.88970  1.0000
  C   C183      1.0  0.44745  0.22607  0.89547  1.0000
  C   C184      1.0  0.45973  0.25470  0.88739  1.0000
  H   H153      1.0  0.08771  0.12739  0.89972  1.0000
  C   C185      1.0  0.86472  0.04315  0.84178  1.0000
  H   H154      1.0  0.41181  0.05295  0.89051  1.0000
  C   C186      1.0  0.11528  0.08386  0.91853  1.0000
  C   C187      1.0  0.58589  0.24669  0.91077  1.0000
  S   S20       1.0  0.09364  0.19844  0.90301  1.0000
  C   C188      1.0  0.37004  0.14544  0.90760  1.0000
  H   H155      1.0  0.62803  0.11190  0.89624  1.0000
  C   C189      1.0  0.58000  0.03363  0.83116  1.0000
  H   H156      1.0  0.95324  0.16790  0.91162  1.0000
  Fe  Fe11      1.0  0.22301  0.19013  0.91030  1.0000
  C   C190      1.0  0.16837  0.06182  0.91643  1.0000
  H   H157      1.0  0.12051  0.02599  0.77593  1.0000
  C   C191      1.0  0.74984  0.02209  0.82837  1.0000
  P   P8        1.0  0.66349  0.02463  0.80607  1.0000
  H   H158      1.0  0.81225  0.07740  0.70522  1.0000
  C   C192      1.0  0.68577  0.08387  0.70363  1.0000
  H   H159      1.0  0.36655  0.16668  0.12343  1.0000
  C   C193      1.0  0.48698  0.25975  0.00046  1.0000
  C   C194      1.0  0.36103  0.12186  0.13496  1.0000
  S   S21       1.0  0.28743  0.21488  0.00957  1.0000
  H   H160      1.0  0.14730  0.09543  0.12336  1.0000
  P   P9        1.0  0.27145  0.07303  0.08416  1.0000
  H   H161      1.0  0.77004  0.26020  0.98678  1.0000
  C   C195      1.0  0.49207  0.03692  0.07333  1.0000
  P   P10       1.0  0.80120  0.16564  0.09747  1.0000
  H   H162      1.0  0.47681  0.19648  0.08108  1.0000
  C   C196      1.0  0.14267  0.03051  0.00973  1.0000
  H   H163      1.0  0.46802  0.05384  0.17075  1.0000
  H   H164      1.0  0.34477  0.07814  0.14054  1.0000
  C   C197      1.0  0.82855  0.13681  0.08000  1.0000
  C   C198      1.0  0.52005  0.18062  0.99110  1.0000
  H   H165      1.0  0.48750  0.19582  0.18811  1.0000
  C   C199      1.0  0.47820  0.06421  0.18921  1.0000
  C   C200      1.0  0.59391  0.17238  0.97820  1.0000
  H   H166      1.0  0.92801  0.09427  0.98995  1.0000
  C   C201      1.0  0.14548  0.07292  0.13150  1.0000
  C   C202      1.0  0.72588  0.20902  0.95222  1.0000
  C   C203      1.0  0.09968  0.03239  0.03866  1.0000
  C   C204      1.0  0.31991  0.15277  0.08569  1.0000
  H   H167      1.0  0.04988  0.21005  0.03991  1.0000
  C   C205      1.0  0.14031  0.09149  0.04916  1.0000
  H   H168      1.0  0.90636  0.24337  0.97541  1.0000
  H   H169      1.0  0.75603  0.15037  0.03979  1.0000
  C   C206      1.0  0.71398  0.05219  0.08779  1.0000
  H   H170      1.0  0.51391  0.16785  0.13399  1.0000
  S   S22       1.0  0.74203  0.05778  0.14784  1.0000
  H   H171      1.0  0.87893  0.07287  0.04533  1.0000
  H   H172      1.0  0.10499  0.08969  0.07189  1.0000
  C   C207      1.0  0.85600  0.23368  0.96916  1.0000
  C   C208      1.0  0.76038  0.04432  0.11394  1.0000
  C   C209      1.0  0.30712  0.10275  0.09507  1.0000
  C   C210      1.0  0.71369  0.23059  0.96780  1.0000
  C   C211      1.0  0.01712  0.03577  0.04026  1.0000
  C   C212      1.0  0.86653  0.16545  0.18687  1.0000
  C   C213      1.0  0.86693  0.09102  0.05445  1.0000
  H   H173      1.0  0.92813  0.20464  0.94915  1.0000
  C   C214      1.0  0.59201  0.13084  0.02300  1.0000
  H   H174      1.0  0.59371  0.07876  0.16689  1.0000
  C   C215      1.0  0.35487  0.26075  0.96603  1.0000
  C   C216      1.0  0.26503  0.08772  0.01725  1.0000
  H   H175      1.0  0.68852  0.04427  0.04277  1.0000
  H   H176      1.0  0.31162  0.17368  0.07060  1.0000
  H   H177      1.0  0.04410  0.07322  0.16630  1.0000
  C   C217      1.0  0.10233  0.10033  0.02091  1.0000
  C   C218      1.0  0.22185  0.08473  0.04765  1.0000
  H   H178      1.0  0.41738  0.13046  0.98525  1.0000
  S   S23       1.0  0.19798  0.16958  0.96307  1.0000
  C   C219      1.0  0.81942  0.02389  0.11434  1.0000
  H   H179      1.0  0.58053  0.21102  0.03511  1.0000
  H   H180      1.0  0.61916  0.11126  0.03496  1.0000
  Fe  Fe12      1.0  0.07102  0.18086  0.95646  1.0000
  H   H181      1.0  0.32841  0.08331  0.01527  1.0000
  C   C220      1.0  0.19579  0.02736  0.12834  1.0000
  H   H182      1.0  0.49092  0.19978  0.97922  1.0000
  C   C221      1.0  0.08690  0.06048  0.15579  1.0000
  H   H183      1.0  0.66844  0.06813  0.08735  1.0000
  H   H184      1.0  0.96467  0.16992  0.06615  1.0000
  C   C222      1.0  0.36061  0.24049  0.99512  1.0000
  H   H185      1.0  0.42848  0.22573  0.03589  1.0000
  H   H186      1.0  0.91097  0.11781  0.11526  1.0000
  H   H187      1.0  0.78940  0.10985  0.01799  1.0000
  H   H188      1.0  0.65411  0.23809  0.97334  1.0000
  C   C223      1.0  0.86231  0.19502  0.07645  1.0000
  H   H189      1.0  0.65293  0.15394  0.14135  1.0000
  C   C224      1.0  0.69783  0.17474  0.09221  1.0000
  C   C225      1.0  0.98928  0.21348  0.04920  1.0000
  S   S24       1.0  0.71242  0.06455  0.97207  1.0000
  S   S25       1.0  0.97594  0.15021  0.98011  1.0000
  H   H190      1.0  0.38517  0.11877  0.15804  1.0000
  C   C226      1.0  0.94078  0.19075  0.06426  1.0000
  C   C227      1.0  0.63024  0.14758  0.99457  1.0000
  H   H191      1.0  0.42432  0.17027  0.02865  1.0000
  C   C228      1.0  0.02014  0.03552  0.98395  1.0000
  C   C229      1.0  0.53821  0.19028  0.08412  1.0000
  H   H192      1.0  0.53767  0.25957  0.01394  1.0000
  H   H193      1.0  0.76244  0.11522  0.14900  1.0000
  H   H194      1.0  0.72057  0.19767  0.04192  1.0000
  Fe  Fe13      1.0  0.76132  0.01994  0.18829  1.0000
  C   C230      1.0  0.83353  0.22239  0.07370  1.0000
  C   C231      1.0  0.92169  0.10494  0.96510  1.0000
  H   H195      1.0  0.85858  0.26614  0.05492  1.0000
  C   C232      1.0  0.63851  0.16633  0.11800  1.0000
  C   C233      1.0  0.79596  0.13459  0.05203  1.0000
  H   H196      1.0  0.65688  0.24271  0.17084  1.0000
  C   C234      1.0  0.79126  0.12948  0.15937  1.0000
  C   C235      1.0  0.88166  0.24505  0.05790  1.0000
  Fe  Fe14      1.0  0.59086  0.05351  0.96406  1.0000
  H   H197      1.0  0.94127  0.07714  0.09339  1.0000
  C   C236      1.0  0.55911  0.17414  0.11394  1.0000
  C   C237      1.0  0.22671  0.09682  0.98895  1.0000
  H   H198      1.0  0.27599  0.02366  0.05913  1.0000
  C   C238      1.0  0.33858  0.09891  0.12493  1.0000
  H   H199      1.0  0.77377  0.22637  0.08342  1.0000
  H   H200      1.0  0.69845  0.19306  0.18686  1.0000
  H   H201      1.0  0.28281  0.25408  0.06858  1.0000
  C   C239      1.0  0.85364  0.17369  0.15408  1.0000
  S   S26       1.0  0.49274  0.07902  0.98198  1.0000
  C   C240      1.0  0.67609  0.19085  0.06224  1.0000
  Fe  Fe15      1.0  0.21202  0.21188  0.97034  1.0000
  C   C241      1.0  0.29865  0.12986  0.07532  1.0000
  C   C242      1.0  0.81495  0.11169  0.03942  1.0000
  C   C243      1.0  0.88329  0.11638  0.09419  1.0000
  C   C244      1.0  0.59665  0.19855  0.05827  1.0000
  C   C245      1.0  0.90175  0.09344  0.08161  1.0000
  H   H202      1.0  0.44535  0.07181  0.08991  1.0000
  C   C246      1.0  0.44987  0.10498  0.95244  1.0000
  H   H203      1.0  0.48766  0.12580  0.05713  1.0000
  C   C247      1.0  0.43052  0.05444  0.08102  1.0000
  C   C248      1.0  0.81629  0.15568  0.14003  1.0000
  C   C249      1.0  0.35165  0.04970  0.07640  1.0000
  H   H204      1.0  0.30235  0.26231  0.95348  1.0000
  C   C250      1.0  0.80357  0.19911  0.94660  1.0000
  C   C251      1.0  0.41505  0.12824  0.96104  1.0000
  C   C252      1.0  0.08344  0.03152  0.16665  1.0000
  H   H205      1.0  0.87569  0.06925  0.95393  1.0000
  C   C253      1.0  0.35099  0.14880  0.11545  1.0000
  S   S27       1.0  0.08154  0.22121  0.96921  1.0000
  C   C254      1.0  0.77882  0.24304  0.97581  1.0000
  C   C255      1.0  0.86827  0.21184  0.95441  1.0000
  H   H206      1.0  0.13010  0.03032  0.06014  1.0000
  H   H207      1.0  0.68722  0.14090  0.98490  1.0000
  H   H208      1.0  0.26034  0.09961  0.96552  1.0000
  H   H209      1.0  0.99677  0.25820  0.03362  1.0000
  C   C256      1.0  0.31574  0.03015  0.95685  1.0000
  C   C257      1.0  0.19957  0.05644  0.11708  1.0000
  H   H210      1.0  0.82042  0.26631  0.12137  1.0000
  H   H211      1.0  0.87329  0.19402  0.13981  1.0000
  C   C258      1.0  0.54927  0.07824  0.18705  1.0000
  H   H212      1.0  0.11565  0.11071  0.96904  1.0000
  C   C259      1.0  0.51787  0.13898  0.03545  1.0000
  C   C260      1.0  0.14530  0.10304  0.99084  1.0000
  C   C261      1.0  0.95954  0.24061  0.04576  1.0000
  H   H213      1.0  0.19743  0.25992  0.02362  1.0000
  C   C262      1.0  0.48217  0.16393  0.01953  1.0000
  C   C263      1.0  0.42546  0.24064  0.01286  1.0000
  H   H214      1.0  0.03922  0.10504  0.02240  1.0000
  H   H215      1.0  0.27453  0.13359  0.05215  1.0000
  C   C264      1.0  0.80409  0.12132  0.19212  1.0000
  C   C265      1.0  0.97764  0.03755  0.01282  1.0000
  H   H216      1.0  0.91373  0.04027  0.01384  1.0000
  C   C266      1.0  0.33595  0.02752  0.06342  1.0000
  H   H217      1.0  0.98813  0.03656  0.96309  1.0000
  H   H218      1.0  0.50847  0.25004  0.17090  1.0000
  C   C267      1.0  0.10298  0.03181  0.98217  1.0000
  C   C268      1.0  0.72541  0.03871  0.06262  1.0000
  H   H219      1.0  0.98369  0.03654  0.06288  1.0000
  H   H220      1.0  0.55279  0.04062  0.07681  1.0000
  H   H221      1.0  0.43660  0.03132  0.96817  1.0000
  C   C269      1.0  0.94348  0.13275  0.95337  1.0000
  H   H222      1.0  0.30692  0.05242  0.95321  1.0000
  H   H223      1.0  0.20637  0.02751  0.00936  1.0000
  H   H224      1.0  0.03884  0.02179  0.18573  1.0000
  H   H225      1.0  0.35434  0.16730  0.94489  1.0000
  P   P11       1.0  0.15706  0.02808  0.94503  1.0000
  C   C270      1.0  0.59232  0.41179  0.28534  1.0000
  C   C271      1.0  0.71194  0.33351  0.20592  1.0000
  C   C272      1.0  0.86239  0.35976  0.41614  1.0000
  C   C273      1.0  0.63259  0.33671  0.19906  1.0000
  C   C274      1.0  0.77385  0.44506  0.24992  1.0000
  H   H226      1.0  0.74059  0.35867  0.40582  1.0000
  H   H227      1.0  0.13084  0.39848  0.34128  1.0000
  C   C275      1.0  0.81696  0.29496  0.28531  1.0000
  C   C276      1.0  0.57620  0.36754  0.34094  1.0000
  S   S28       1.0  0.22790  0.38834  0.19520  1.0000
  H   H228      1.0  0.35552  0.41899  0.37888  1.0000
  H   H229      1.0  0.94875  0.29356  0.20639  1.0000
  H   H230      1.0  0.48149  0.49941  0.20575  1.0000
  C   C277      1.0  0.49475  0.28187  0.40783  1.0000
  C   C278      1.0  0.07342  0.49390  0.22801  1.0000
  C   C279      1.0  0.97016  0.37534  0.26133  1.0000
  H   H231      1.0  0.02116  0.37494  0.24400  1.0000
  H   H232      1.0  0.80356  0.34633  0.22946  1.0000
  H   H233      1.0  0.98773  0.35717  0.42130  1.0000
  C   C280      1.0  0.83955  0.27984  0.23593  1.0000
  C   C281      1.0  0.74388  0.43253  0.20171  1.0000
  C   C282      1.0  0.93659  0.30855  0.24922  1.0000
  H   H234      1.0  0.68632  0.35181  0.32259  1.0000
  C   C283      1.0  0.84862  0.45055  0.37446  1.0000
  C   C284      1.0  0.79616  0.47144  0.23118  1.0000
  H   H235      1.0  0.74968  0.31852  0.19711  1.0000
  S   S29       1.0  0.46518  0.36743  0.42014  1.0000
  C   C285      1.0  0.46680  0.31057  0.28138  1.0000
  H   H236      1.0  0.03296  0.42521  0.36881  1.0000
  S   S30       1.0  0.37200  0.39172  0.23962  1.0000
  H   H237      1.0  0.46351  0.38649  0.35172  1.0000
  C   C286      1.0  0.61096  0.28128  0.27545  1.0000
  C   C287      1.0  0.64297  0.36870  0.31857  1.0000
  C   C288      1.0  0.79094  0.28038  0.26440  1.0000
  C   C289      1.0  0.74806  0.42536  0.23522  1.0000
  H   H238      1.0  0.38185  0.33989  0.38280  1.0000
  C   C290      1.0  0.89192  0.31912  0.38185  1.0000
  Fe  Fe16      1.0  0.34965  0.36970  0.20203  1.0000
  C   C291      1.0  0.08741  0.48519  0.32318  1.0000
  H   H239      1.0  0.88763  0.50280  0.40803  1.0000
  C   C292      1.0  0.38295  0.43848  0.36541  1.0000
  C   C293      1.0  0.87898  0.46415  0.39517  1.0000
  S   S31       1.0  0.53511  0.44791  0.19704  1.0000
  C   C294      1.0  0.40613  0.50071  0.24842  1.0000
  S   S32       1.0  0.14946  0.28941  0.36836  1.0000
  C   C295      1.0  0.74257  0.34964  0.22404  1.0000
  C   C296      1.0  0.53910  0.27079  0.26996  1.0000
  H   H240      1.0  0.88590  0.38345  0.22588  1.0000
  C   C297      1.0  0.86430  0.49268  0.39150  1.0000
  C   C298      1.0  0.84036  0.37857  0.30604  1.0000
  H   H241      1.0  0.65403  0.27155  0.20981  1.0000
  H   H242      1.0  0.01369  0.32040  0.39213  1.0000
  C   C299      1.0  0.46754  0.28526  0.27313  1.0000
  C   C300      1.0  0.16780  0.48740  0.31171  1.0000
  H   H243      1.0  0.56942  0.35045  0.36256  1.0000
  H   H244      1.0  0.45313  0.49341  0.26388  1.0000
  C   C301      1.0  0.81863  0.50778  0.36711  1.0000
  Fe  Fe17      1.0  0.25434  0.41312  0.22949  1.0000
  C   C302      1.0  0.80305  0.46539  0.35014  1.0000
  H   H245      1.0  0.76725  0.32313  0.37473  1.0000
  H   H246      1.0  0.69868  0.27445  0.39508  1.0000
  H   H247      1.0  0.91311  0.46913  0.28067  1.0000
  C   C303      1.0  0.81509  0.33021  0.38535  1.0000
  C   C304      1.0  0.58411  0.35647  0.20973  1.0000
  C   C305      1.0  0.47691  0.27397  0.38053  1.0000
  H   H248      1.0  0.09363  0.51238  0.20992  1.0000
  H   H249      1.0  0.04161  0.36912  0.30133  1.0000
  C   C306      1.0  0.30371  0.31078  0.41687  1.0000
  Fe  Fe18      1.0  0.02597  0.27238  0.37274  1.0000
  C   C307      1.0  0.60940  0.30648  0.28451  1.0000
  H   H250      1.0  0.05268  0.46859  0.31990  1.0000
  H   H251      1.0  0.77943  0.45476  0.33416  1.0000
  C   C308      1.0  0.33101  0.50793  0.26102  1.0000
  C   C309      1.0  0.97098  0.46936  0.26737  1.0000
  C   C310      1.0  0.28643  0.51847  0.20712  1.0000
  C   C311      1.0  0.61487  0.37306  0.22722  1.0000
  C   C312      1.0  0.05134  0.50464  0.33839  1.0000
  C   C313      1.0  0.21343  0.50877  0.31639  1.0000
  C   C314      1.0  0.98191  0.37219  0.29370  1.0000
  H   H252      1.0  0.56229  0.47014  0.35051  1.0000
  C   C315      1.0  0.82727  0.38055  0.27374  1.0000
  H   H253      1.0  0.90967  0.31968  0.29419  1.0000
  H   H254      1.0  0.98848  0.50345  0.34600  1.0000
  C   C316      1.0  0.99770  0.49358  0.24452  1.0000
  H   H255      1.0  0.70438  0.50511  0.41686  1.0000
  C   C317      1.0  0.53756  0.32116  0.28710  1.0000
  C   C318      1.0  0.52723  0.50993  0.39625  1.0000
  H   H256      1.0  0.05728  0.47136  0.40956  1.0000
  H   H257      1.0  0.92711  0.37312  0.34066  1.0000
  H   H258      1.0  0.52241  0.35891  0.20444  1.0000
  C   C319      1.0  0.65208  0.39107  0.29079  1.0000
  C   C320      1.0  0.91724  0.37428  0.31589  1.0000
  C   C321      1.0  0.07719  0.41216  0.38236  1.0000
  C   C322      1.0  0.33891  0.45893  0.34517  1.0000
  C   C323      1.0  0.54675  0.48357  0.41502  1.0000
  C   C324      1.0  0.13194  0.39695  0.36688  1.0000
  C   C325      1.0  0.09672  0.44609  0.25800  1.0000
  C   C326      1.0  0.45505  0.48816  0.32998  1.0000
  H   H259      1.0  0.27785  0.45463  0.34310  1.0000
  C   C327      1.0  0.46308  0.44274  0.36771  1.0000
  H   H260      1.0  0.59591  0.42857  0.26335  1.0000
  H   H261      1.0  0.00049  0.42746  0.29263  1.0000
  C   C328      1.0  0.89340  0.37978  0.25131  1.0000
  H   H262      1.0  0.60082  0.47289  0.40869  1.0000
  C   C329      1.0  0.23248  0.51034  0.42964  1.0000
  C   C330      1.0  0.78740  0.49381  0.34663  1.0000
  H   H263      1.0  0.18139  0.47064  0.22224  1.0000
  P   P12       1.0  0.31755  0.51122  0.30193  1.0000
  S   S33       1.0  0.36982  0.32368  0.21115  1.0000
  Fe  Fe19      1.0  0.42308  0.42533  0.19773  1.0000
  C   C331      1.0  0.39240  0.34168  0.43175  1.0000
  C   C332      1.0  0.18442  0.47626  0.40479  1.0000
  C   C333      1.0  0.51660  0.38801  0.33502  1.0000
  H   H264      1.0  0.30772  0.48550  0.40344  1.0000
  H   H265      1.0  0.75080  0.50466  0.32794  1.0000
  C   C334      1.0  0.18680  0.37915  0.38461  1.0000
  P   P13       1.0  0.73056  0.39038  0.25923  1.0000
  H   H266      1.0  0.19405  0.47254  0.29897  1.0000
  H   H267      1.0  0.68425  0.50894  0.25450  1.0000
  C   C335      1.0  0.07786  0.40984  0.41547  1.0000
  C   C336      1.0  0.52469  0.41014  0.30728  1.0000
  C   C337      1.0  0.12269  0.47010  0.23464  1.0000
  C   C338      1.0  0.69416  0.36952  0.23500  1.0000
  H   H268      1.0  0.41214  0.27711  0.26883  1.0000
  H   H269      1.0  0.51003  0.30325  0.40583  1.0000
  C   C339      1.0  0.36078  0.33182  0.40801  1.0000
  H   H270      1.0  0.85940  0.42838  0.37764  1.0000
  C   C340      1.0  0.24757  0.49046  0.41169  1.0000
  H   H271      1.0  0.47760  0.42567  0.30233  1.0000
  H   H272      1.0  0.79247  0.38131  0.32362  1.0000
  H   H273      1.0  0.77879  0.43978  0.27569  1.0000
  H   H274      1.0  0.41115  0.32204  0.28289  1.0000
  S   S34       1.0  0.16030  0.41711  0.26910  1.0000
  C   C341      1.0  0.02050  0.44572  0.27416  1.0000
  C   C342      1.0  0.88932  0.30894  0.27766  1.0000
  H   H275      1.0  0.81660  0.48651  0.24246  1.0000
  H   H276      1.0  0.99322  0.31910  0.24374  1.0000
  H   H277      1.0  0.22782  0.36674  0.37280  1.0000
  H   H278      1.0  0.47786  0.28917  0.35731  1.0000
  C   C343      1.0  0.09070  0.50197  0.43282  1.0000
  H   H279      1.0  0.57620  0.38858  0.23467  1.0000
  C   C344      1.0  0.42223  0.50367  0.21532  1.0000
  H   H280      1.0  0.66313  0.31501  0.28934  1.0000
  C   C345      1.0  0.93952  0.34938  0.41167  1.0000
  C   C346      1.0  0.49949  0.46730  0.34947  1.0000
  H   H281      1.0  0.91218  0.45231  0.41462  1.0000
  H   H282      1.0  0.48417  0.50717  0.31632  1.0000
  H   H283      1.0  0.53627  0.34098  0.29308  1.0000
  C   C347      1.0  0.37398  0.48432  0.32791  1.0000
  H   H284      1.0  0.19586  0.46068  0.39132  1.0000
  H   H285      1.0  0.49737  0.42665  0.38307  1.0000
  C   C348      1.0  0.95407  0.32862  0.39515  1.0000
  S   S35       1.0  0.91066  0.29416  0.35994  1.0000
  C   C349      1.0  0.91152  0.29411  0.22828  1.0000
  H   H286      1.0  0.78324  0.29467  0.30821  1.0000
  H   H287      1.0  0.28192  0.30253  0.39855  1.0000
  C   C350      1.0  0.80008  0.35028  0.40290  1.0000
  C   C351      1.0  0.18747  0.37677  0.41771  1.0000
  C   C352      1.0  0.10615  0.48211  0.41522  1.0000
  C   C353      1.0  0.13389  0.39240  0.43335  1.0000
  C   C354      1.0  0.40694  0.51097  0.43228  1.0000
  C   C355      1.0  0.27095  0.51682  0.24014  1.0000
  H   H288      1.0  0.03310  0.42104  0.42712  1.0000
  H   H289      1.0  0.22860  0.36228  0.43132  1.0000
  H   H290      1.0  0.29752  0.39857  0.44407  1.0000
  C   C356      1.0  0.15352  0.51588  0.44026  1.0000
  S   S36       1.0  0.84392  0.38385  0.43925  1.0000
  C   C357      1.0  0.49722  0.47109  0.44249  1.0000
  H   H291      1.0  0.02995  0.50630  0.44111  1.0000
  H   H292      1.0  0.56633  0.51992  0.37517  1.0000
  H   H293      1.0  0.63373  0.28891  0.44261  1.0000
  C   C358      1.0  0.79413  0.47823  0.19772  1.0000
  H   H294      1.0  0.48721  0.51473  0.62796  1.0000
  H   H295      1.0  0.65578  0.29910  0.65631  1.0000
  S   S37       1.0  0.73700  0.50714  0.62239  1.0000
  C   C359      1.0  0.91532  0.43334  0.51368  1.0000
  H   H296      1.0  0.39088  0.47436  0.47249  1.0000
  C   C360      1.0  0.27543  0.42605  0.64164  1.0000
  C   C361      1.0  0.05315  0.43422  0.49172  1.0000
  H   H297      1.0  0.47482  0.45990  0.56693  1.0000
  C   C362      1.0  0.47308  0.48087  0.56995  1.0000
  C   C363      1.0  0.12353  0.35223  0.49790  1.0000
  H   H298      1.0  0.71012  0.44152  0.47189  1.0000
  S   S38       1.0  0.20480  0.27380  0.46101  1.0000
  H   H299      1.0  0.31845  0.40969  0.64970  1.0000
  Fe  Fe20      1.0  0.61721  0.34135  0.52118  1.0000
  C   C364      1.0  0.76795  0.42979  0.67955  1.0000
  C   C365      1.0  0.36307  0.41289  0.47626  1.0000
  H   H300      1.0  0.68365  0.27151  0.49579  1.0000
  H   H301      1.0  0.86879  0.34108  0.54273  1.0000
  H   H302      1.0  0.26012  0.47816  0.49314  1.0000
  C   C366      1.0  0.46291  0.50372  0.54369  1.0000
  C   C367      1.0  0.12925  0.31511  0.54730  1.0000
  Fe  Fe21      1.0  0.54521  0.36861  0.45837  1.0000
  S   S39       1.0  0.04959  0.51168  0.53776  1.0000
  C   C368      1.0  0.22262  0.40184  0.48710  1.0000
  C   C369      1.0  0.04808  0.40649  0.49020  1.0000
  C   C370      1.0  0.53210  0.28320  0.62023  1.0000
  C   C371      1.0  0.14262  0.34278  0.53002  1.0000
  C   C372      1.0  0.91481  0.39411  0.63160  1.0000
  C   C373      1.0  0.28065  0.45179  0.64883  1.0000
  H   H303      1.0  0.84207  0.46009  0.64511  1.0000
  C   C374      1.0  0.15931  0.44283  0.61313  1.0000
  C   C375      1.0  0.24936  0.49078  0.53726  1.0000
  H   H304      1.0  0.10819  0.44550  0.48419  1.0000
  C   C376      1.0  0.48442  0.28610  0.64781  1.0000
  C   C377      1.0  0.46602  0.31257  0.65240  1.0000
  S   S40       1.0  0.61737  0.30251  0.56183  1.0000
  H   H305      1.0  0.23024  0.47050  0.55191  1.0000
  C   C378      1.0  0.09044  0.33354  0.48356  1.0000
  Fe  Fe22      1.0  0.92349  0.51444  0.52603  1.0000
  H   H306      1.0  0.99135  0.46864  0.50551  1.0000
  H   H307      1.0  0.05178  0.29193  0.48923  1.0000
  H   H308      1.0  0.36140  0.27637  0.56778  1.0000
  H   H309      1.0  0.25854  0.34592  0.66800  1.0000
  C   C379      1.0  0.84248  0.38017  0.63836  1.0000
  C   C380      1.0  0.86303  0.29208  0.50066  1.0000
  S   S41       1.0  0.88547  0.47760  0.56620  1.0000
  H   H310      1.0  0.81674  0.41589  0.68705  1.0000
  S   S42       1.0  0.08429  0.43820  0.58992  1.0000
  C   C381      1.0  0.84629  0.51484  0.68347  1.0000
  C   C382      1.0  0.74009  0.50128  0.51173  1.0000
  C   C383      1.0  0.48308  0.48504  0.60011  1.0000
  C   C384      1.0  0.29115  0.41747  0.52624  1.0000
  Fe  Fe23      1.0  0.00888  0.47711  0.58043  1.0000
  C   C385      1.0  0.82758  0.27218  0.55790  1.0000
  H   H311      1.0  0.93241  0.40659  0.60736  1.0000
  C   C386      1.0  0.83865  0.29808  0.56378  1.0000
  H   H312      1.0  0.41600  0.42541  0.51381  1.0000
  S   S43       1.0  0.64760  0.33880  0.47003  1.0000
  C   C387      1.0  0.68210  0.27383  0.44561  1.0000
  C   C388      1.0  0.42777  0.48465  0.45113  1.0000
  S   S44       1.0  0.88546  0.51497  0.47792  1.0000
  C   C389      1.0  0.90913  0.40623  0.51097  1.0000
  H   H313      1.0  0.02027  0.40316  0.65062  1.0000
  C   C390      1.0  0.20542  0.33899  0.68407  1.0000
  C   C391      1.0  0.71697  0.45849  0.48259  1.0000
  Fe  Fe24      1.0  0.85638  0.50863  0.59490  1.0000
  H   H314      1.0  0.12506  0.48515  0.61124  1.0000
  Fe  Fe25      1.0  0.59410  0.40424  0.50083  1.0000
  H   H315      1.0  0.47819  0.49792  0.68248  1.0000
  H   H316      1.0  0.01217  0.47781  0.68667  1.0000
  H   H317      1.0  0.47995  0.35674  0.63224  1.0000
  H   H318      1.0  0.22976  0.49283  0.64341  1.0000
  P   P14       1.0  0.13385  0.38853  0.47643  1.0000
  C   C392      1.0  0.55981  0.30680  0.59660  1.0000
  H   H319      1.0  0.28221  0.30375  0.49792  1.0000
  C   C393      1.0  0.36187  0.41935  0.50606  1.0000
  H   H320      1.0  0.51296  0.45091  0.45736  1.0000
  C   C394      1.0  0.36476  0.33123  0.46425  1.0000
  H   H321      1.0  0.85307  0.39564  0.51797  1.0000
  H   H322      1.0  0.56242  0.35168  0.58279  1.0000
  S   S45       1.0  0.62130  0.40625  0.44827  1.0000
  C   C395      1.0  0.78475  0.47498  0.47312  1.0000
  H   H323      1.0  0.80312  0.38215  0.61949  1.0000
  C   C396      1.0  0.49472  0.33623  0.62903  1.0000
  C   C397      1.0  0.78226  0.45501  0.65608  1.0000
  C   C398      1.0  0.09596  0.29674  0.53278  1.0000
  C   C399      1.0  0.26734  0.49520  0.50392  1.0000
  H   H324      1.0  0.83044  0.46987  0.45623  1.0000
  H   H325      1.0  0.07512  0.34001  0.45895  1.0000
  S   S46       1.0  0.69855  0.37683  0.51627  1.0000
  H   H326      1.0  0.08584  0.27529  0.54603  1.0000
  S   S47       1.0  0.49202  0.39075  0.67935  1.0000
  C   C400      1.0  0.87416  0.31786  0.50670  1.0000
  H   H327      1.0  0.38774  0.33915  0.48264  1.0000
  C   C401      1.0  0.71955  0.47395  0.64793  1.0000
  C   C402      1.0  0.79642  0.49642  0.48754  1.0000
  H   H328      1.0  0.72017  0.50926  0.69210  1.0000
  C   C403      1.0  0.97504  0.39285  0.49912  1.0000
  H   H329      1.0  0.14438  0.30803  0.57202  1.0000
  C   C404      1.0  0.29392  0.40413  0.46681  1.0000
  H   H330      1.0  0.49238  0.46730  0.62033  1.0000
  C   C405      1.0  0.65979  0.46357  0.50634  1.0000
  C   C406      1.0  0.48000  0.51195  0.60437  1.0000
  C   C407      1.0  0.86169  0.32092  0.53820  1.0000
  H   H331      1.0  0.23847  0.50982  0.57721  1.0000
  C   C408      1.0  0.21482  0.42162  0.62356  1.0000
  C   C409      1.0  0.96416  0.39235  0.65625  1.0000
  C   C410      1.0  0.16535  0.46841  0.62026  1.0000
  H   H332      1.0  0.16706  0.35668  0.54201  1.0000
  C   C411      1.0  0.67151  0.48500  0.52095  1.0000
  S   S48       1.0  0.50950  0.36870  0.51004  1.0000
  H   H333      1.0  0.16786  0.40713  0.53320  1.0000
  H   H334      1.0  0.85562  0.49805  0.67179  1.0000
  H   H335      1.0  0.87264  0.29031  0.47595  1.0000
  S   S49       1.0  0.40583  0.31516  0.68731  1.0000
  S   S50       1.0  0.57376  0.44334  0.51737  1.0000
  H   H336      1.0  0.82732  0.30066  0.58809  1.0000
  C   C412      1.0  0.07626  0.30606  0.50098  1.0000
  H   H337      1.0  0.89143  0.33555  0.48678  1.0000
  H   H338      1.0  0.29034  0.42215  0.54955  1.0000
  Fe  Fe26      1.0  0.72078  0.37670  0.46418  1.0000
  H   H339      1.0  0.41824  0.41369  0.46084  1.0000
  H   H340      1.0  0.59422  0.48167  0.65548  1.0000
  H   H341      1.0  0.86404  0.44340  0.52327  1.0000
  C   C413      1.0  0.64261  0.46718  0.66209  1.0000
  H   H342      1.0  0.62356  0.33937  0.67937  1.0000
  H   H343      1.0  0.21097  0.40184  0.61776  1.0000
  S   S51       1.0  0.97618  0.50500  0.61357  1.0000
  H   H344      1.0  0.45757  0.50026  0.52017  1.0000
  C   C414      1.0  0.98700  0.44748  0.50368  1.0000
  C   C415      1.0  0.25333  0.51278  0.55158  1.0000
  H   H345      1.0  0.62892  0.48861  0.53997  1.0000
  C   C416      1.0  0.22177  0.40883  0.51682  1.0000
  C   C417      1.0  0.54099  0.33335  0.60094  1.0000
  H   H346      1.0  0.76382  0.35379  0.67495  1.0000
  C   C418      1.0  0.30554  0.31094  0.47294  1.0000
  H   H347      1.0  0.96864  0.37195  0.49683  1.0000
  C   C419      1.0  0.22600  0.47298  0.63790  1.0000
  C   C420      1.0  0.27599  0.30026  0.44938  1.0000
  C   C421      1.0  0.82042  0.36405  0.66963  1.0000
  S   S52       1.0  0.35396  0.45765  0.67197  1.0000
  H   H348      1.0  0.61084  0.51256  0.46167  1.0000
  H   H349      1.0  0.15796  0.38032  0.67897  1.0000
  C   C422      1.0  0.65880  0.29681  0.68192  1.0000
  C   C423      1.0  0.62808  0.44171  0.68480  1.0000
  H   H350      1.0  0.74974  0.51734  0.52368  1.0000
  C   C424      1.0  0.94075  0.37713  0.68800  1.0000
  C   C425      1.0  0.14868  0.35847  0.69061  1.0000
  H   H351      1.0  0.95034  0.43254  0.69299  1.0000
  H   H352      1.0  0.23997  0.29574  0.69413  1.0000
  C   C426      1.0  0.86972  0.36215  0.69436  1.0000
  C   C427      1.0  0.69077  0.42303  0.69386  1.0000
  C   C428      1.0  0.64443  0.31680  0.72787  1.0000
  C   C429      1.0  0.12620  0.30173  0.71940  1.0000
  H   H353      1.0  0.70563  0.34210  0.78307  1.0000
  H   H354      1.0  0.63334  0.44296  0.75454  1.0000
  H   H355      1.0  0.45422  0.49291  0.90594  1.0000
  C   C430      1.0  0.95545  0.34098  0.81636  1.0000
  C   C431      1.0  0.68295  0.44799  0.76609  1.0000
  P   P15       1.0  0.65058  0.28541  0.79205  1.0000
  H   H356      1.0  0.49744  0.29470  0.82840  1.0000
  H   H357      1.0  0.63148  0.33480  0.73708  1.0000
  H   H358      1.0  0.60465  0.35210  0.88196  1.0000
  S   S53       1.0  0.47194  0.34693  0.75108  1.0000
  C   C432      1.0  0.08975  0.35822  0.90078  1.0000
  H   H359      1.0  0.02336  0.45162  0.86661  1.0000
  H   H360      1.0  0.40420  0.47753  0.73487  1.0000
  C   C433      1.0  0.66163  0.29090  0.74858  1.0000
  C   C434      1.0  0.14616  0.44244  0.92489  1.0000
  C   C435      1.0  0.81647  0.46514  0.76190  1.0000
  C   C436      1.0  0.08527  0.40470  0.80910  1.0000
  C   C437      1.0  0.79151  0.39111  0.89094  1.0000
  H   H361      1.0  0.85104  0.34972  0.71844  1.0000
  C   C438      1.0  0.99400  0.34801  0.78505  1.0000
  Fe  Fe27      1.0  0.54092  0.38562  0.72699  1.0000
  Fe  Fe28      1.0  0.37684  0.37538  0.76504  1.0000
  C   C439      1.0  0.55254  0.46449  0.91808  1.0000
  C   C440      1.0  0.53714  0.36216  0.82188  1.0000
  C   C441      1.0  0.50774  0.48376  0.89684  1.0000
  H   H362      1.0  0.78647  0.37993  0.80254  1.0000
  H   H363      1.0  0.16533  0.42745  0.88183  1.0000
  H   H364      1.0  0.21589  0.43678  0.73094  1.0000
  C   C442      1.0  0.12277  0.40996  0.72676  1.0000
  C   C443      1.0  0.22606  0.39280  0.80955  1.0000
  C   C444      1.0  0.18227  0.44253  0.89413  1.0000
  C   C445      1.0  0.04901  0.40841  0.71515  1.0000
  C   C446      1.0  0.67757  0.44373  0.79963  1.0000
  C   C447      1.0  0.66192  0.39201  0.87150  1.0000
  C   C448      1.0  0.14654  0.38459  0.81403  1.0000
  H   H365      1.0  0.14499  0.48017  0.70569  1.0000
  C   C449      1.0  0.88130  0.37715  0.76607  1.0000
  H   H366      1.0  0.85047  0.34663  0.84678  1.0000
  C   C450      1.0  0.95607  0.36541  0.75946  1.0000
  H   H367      1.0  0.83728  0.35095  0.91377  1.0000
  P   P16       1.0  0.00617  0.37491  0.71912  1.0000
  H   H368      1.0  0.56839  0.43699  0.69572  1.0000
  C   C451      1.0  0.26177  0.48190  0.89463  1.0000
  H   H369      1.0  0.61935  0.48571  0.82622  1.0000
  H   H370      1.0  0.81644  0.28198  0.76360  1.0000
  C   C452      1.0  0.15786  0.43575  0.72271  1.0000
  C   C453      1.0  0.87754  0.48914  0.89722  1.0000
  C   C454      1.0  0.48191  0.37070  0.94429  1.0000
  H   H371      1.0  0.53852  0.28722  0.88905  1.0000
  H   H372      1.0  0.01524  0.31398  0.74117  1.0000
  C   C455      1.0  0.74478  0.27878  0.80916  1.0000
  S   S54       1.0  0.11236  0.50740  0.83418  1.0000
  C   C456      1.0  0.96412  0.45874  0.87317  1.0000
  C   C457      1.0  0.74708  0.27507  0.84256  1.0000
  H   H373      1.0  0.75580  0.51655  0.77480  1.0000
  C   C458      1.0  0.49719  0.33689  0.83103  1.0000
  H   H374      1.0  0.55239  0.51942  0.78162  1.0000
  S   S55       1.0  0.03828  0.27688  0.89443  1.0000
  H   H375      1.0  0.11789  0.27975  0.73061  1.0000
  C   C459      1.0  0.72938  0.40636  0.87477  1.0000
  C   C460      1.0  0.10328  0.43306  0.80038  1.0000
  C   C461      1.0  0.18261  0.44126  0.79742  1.0000
  C   C462      1.0  0.89818  0.44810  0.86352  1.0000
  H   H376      1.0  0.43813  0.33570  0.84380  1.0000
  H   H377      1.0  0.30618  0.49703  0.88214  1.0000
  C   C463      1.0  0.60082  0.47917  0.85180  1.0000
  H   H378      1.0  0.86006  0.46797  0.80542  1.0000
  C   C464      1.0  0.75266  0.45843  0.74734  1.0000
  H   H379      1.0  0.41016  0.43424  0.90612  1.0000
  Fe  Fe29      1.0  0.39676  0.41603  0.69905  1.0000
  H   H380      1.0  0.90789  0.43270  0.84967  1.0000
  Fe  Fe30      1.0  0.41752  0.35380  0.70440  1.0000
  H   H381      1.0  0.53571  0.40646  0.91094  1.0000
  S   S56       1.0  0.67250  0.39196  0.72396  1.0000
  Fe  Fe31      1.0  0.06775  0.50068  0.78970  1.0000
  H   H382      1.0  0.02403  0.39833  0.81142  1.0000
  P   P17       1.0  0.73532  0.44379  0.85835  1.0000
  H   H383      1.0  0.85244  0.39167  0.74701  1.0000
  C   C465      1.0  0.08095  0.34977  0.71209  1.0000
  C   C466      1.0  0.11786  0.46023  0.70841  1.0000
  H   H384      1.0  0.98477  0.32730  0.83597  1.0000
  H   H385      1.0  0.64296  0.38355  0.79720  1.0000
  C   C467      1.0  0.24406  0.42115  0.80140  1.0000
  C   C468      1.0  0.00847  0.43311  0.70122  1.0000
  H   H386      1.0  0.49741  0.50638  0.84737  1.0000
  H   H387      1.0  0.65485  0.43727  0.92285  1.0000
  H   H388      1.0  0.88157  0.29657  0.91189  1.0000
  H   H389      1.0  0.19694  0.46310  0.79079  1.0000
  C   C469      1.0  0.41087  0.41343  0.92200  1.0000
  H   H390      1.0  0.50870  0.38049  0.82742  1.0000
  H   H391      1.0  0.05300  0.35744  0.88181  1.0000
  H   H392      1.0  0.26817  0.46231  0.85521  1.0000
  H   H393      1.0  0.84251  0.40110  0.89580  1.0000
  H   H394      1.0  0.00467  0.48810  0.89695  1.0000
  C   C470      1.0  0.53949  0.51445  0.75969  1.0000
  H   H395      1.0  0.99455  0.37249  0.93002  1.0000
  C   C471      1.0  0.60644  0.31513  0.80458  1.0000
  C   C472      1.0  0.82085  0.45759  0.87107  1.0000
  C   C473      1.0  0.81123  0.47821  0.88820  1.0000
  C   C474      1.0  0.81059  0.46151  0.79531  1.0000
  H   H396      1.0  0.75706  0.46157  0.72147  1.0000
  H   H397      1.0  0.61158  0.40311  0.86040  1.0000
  C   C475      1.0  0.04309  0.45890  0.69775  1.0000
  C   C476      1.0  0.47581  0.49683  0.76152  1.0000
  C   C477      1.0  0.05704  0.36680  0.92787  1.0000
  C   C478      1.0  0.91990  0.29826  0.92990  1.0000
  C   C479      1.0  0.62085  0.45225  0.90612  1.0000
  C   C480      1.0  0.64499  0.45919  0.87287  1.0000
  H   H398      1.0  0.69277  0.27617  0.85788  1.0000
  C   C481      1.0  0.24063  0.46207  0.87920  1.0000
  H   H399      1.0  0.19503  0.34334  0.87742  1.0000
  H   H400      1.0  0.13255  0.36269  0.82023  1.0000
  C   C482      1.0  0.64776  0.34030  0.79678  1.0000
  C   C483      1.0  0.72129  0.34809  0.89837  1.0000
  H   H401      1.0  0.87079  0.47325  0.74738  1.0000
  C   C484      1.0  0.53196  0.49119  0.86375  1.0000
  H   H402      1.0  0.87002  0.50546  0.90973  1.0000
  H   H403      1.0  0.28674  0.41432  0.93790  1.0000
  H   H404      1.0  0.62262  0.43589  0.81350  1.0000
  C   C485      1.0  0.64099  0.31955  0.69487  1.0000
  H   H405      1.0  0.05398  0.34026  0.78108  1.0000
  H   H406      1.0  0.71768  0.32569  0.90796  1.0000
  S   S57       1.0  0.31681  0.37959  0.72003  1.0000
  H   H407      1.0  0.15310  0.39124  0.73903  1.0000
  H   H408      1.0  0.41240  0.29492  0.93058  1.0000
  C   C486      1.0  0.67880  0.27111  0.70213  1.0000
  C   C487      1.0  0.45426  0.49092  0.73360  1.0000
  C   C488      1.0  0.00025  0.29045  0.92677  1.0000
  C   C489      1.0  0.19472  0.31067  0.69874  1.0000
  C   C490      1.0  0.78817  0.36221  0.90192  1.0000
  C   C491      1.0  0.16975  0.35012  0.89839  1.0000
  C   C492      1.0  0.22482  0.48225  0.92535  1.0000
  C   C493      1.0  0.61267  0.36381  0.80499  1.0000
  C   C494      1.0  0.53128  0.31355  0.82219  1.0000
  C   C495      1.0  0.88000  0.35205  0.82253  1.0000
  C   C496      1.0  0.06882  0.32119  0.72569  1.0000
  S   S58       1.0  0.45035  0.41348  0.74512  1.0000
  H   H409      1.0  0.44158  0.48835  0.78449  1.0000
  C   C497      1.0  0.81948  0.26998  0.85631  1.0000
  C   C498      1.0  0.49629  0.50264  0.70383  1.0000
  S   S59       1.0  0.30270  0.36760  0.81283  1.0000
  H   H410      1.0  0.75316  0.48633  0.89440  1.0000
  C   C499      1.0  0.65767  0.36305  0.88357  1.0000
  H   H411      1.0  0.27901  0.34406  0.92078  1.0000
  H   H412      1.0  0.30543  0.42757  0.79790  1.0000
  C   C500      1.0  0.95376  0.47929  0.89002  1.0000
  C   C501      1.0  0.74174  0.45021  0.81470  1.0000
  S   S60       1.0  0.02649  0.45795  0.79194  1.0000
  C   C502      1.0  0.84359  0.37052  0.79755  1.0000
  C   C503      1.0  0.48140  0.39777  0.92444  1.0000
  C   C504      1.0  0.81624  0.27833  0.78952  1.0000
  H   H413      1.0  0.08024  0.50869  0.93115  1.0000
  H   H414      1.0  0.49200  0.27555  0.77700  1.0000
  C   C505      1.0  0.21717  0.35057  0.92305  1.0000
  C   C506      1.0  0.34100  0.40210  0.93993  1.0000
  H   H415      1.0  0.77228  0.51523  0.83129  1.0000
  C   C507      1.0  0.16836  0.46187  0.94071  1.0000
  H   H416      1.0  0.10101  0.42729  0.93644  1.0000
  H   H417      1.0  0.94390  0.27325  0.78821  1.0000
  C   C508      1.0  0.88868  0.27351  0.80332  1.0000
  H   H418      1.0  0.53438  0.45878  0.94385  1.0000
  C   C509      1.0  0.93801  0.30964  0.98025  1.0000
  H   H419      1.0  0.94120  0.29045  0.09049  1.0000
  Fe  Fe32      1.0  0.62253  0.36538  0.01576  1.0000
  C   C510      1.0  0.10436  0.36734  0.95257  1.0000
  S   S61       1.0  0.57735  0.40962  0.00476  1.0000
  S   S62       1.0  0.69678  0.35082  0.97719  1.0000
  C   C511      1.0  0.79027  0.44642  0.97311  1.0000
  P   P18       1.0  0.24864  0.36035  0.98133  1.0000
  S   S63       1.0  0.53750  0.32979  0.02749  1.0000
  H   H420      1.0  0.07738  0.37393  0.97324  1.0000
  C   C512      1.0  0.15503  0.45726  0.11330  1.0000
  C   C513      1.0  0.00742  0.40383  0.17465  1.0000
  H   H421      1.0  0.07610  0.36747  0.17010  1.0000
  C   C514      1.0  0.22508  0.30312  0.00347  1.0000
  C   C515      1.0  0.27060  0.49667  0.01146  1.0000
  Fe  Fe33      1.0  0.61676  0.31411  0.99102  1.0000
  H   H422      1.0  0.19065  0.30487  0.98323  1.0000
  C   C516      1.0  0.52901  0.29001  0.13742  1.0000
  H   H423      1.0  0.40410  0.45574  0.05743  1.0000
  S   S64       1.0  0.24418  0.43911  0.10858  1.0000
  H   H424      1.0  0.76518  0.46438  0.15699  1.0000
  S   S65       1.0  0.91645  0.50007  0.12734  1.0000
  H   H425      1.0  0.05588  0.30372  0.99517  1.0000
  C   C517      1.0  0.63698  0.42269  0.08101  1.0000
  H   H426      1.0  0.17896  0.51621  0.11387  1.0000
  H   H427      1.0  0.37183  0.46516  0.95751  1.0000
  H   H428      1.0  0.92936  0.43924  0.17368  1.0000
  C   C518      1.0  0.75167  0.39862  0.10571  1.0000
  H   H429      1.0  0.13324  0.46538  0.06317  1.0000
  C   C519      1.0  0.50047  0.49934  0.10921  1.0000
  C   C520      1.0  0.90245  0.33069  0.09648  1.0000
  S   S66       1.0  0.90118  0.32243  0.01327  1.0000
  H   H430      1.0  0.23658  0.43377  0.04060  1.0000
  H   H431      1.0  0.41345  0.33780  0.97627  1.0000
  Fe  Fe34      1.0  0.62162  0.30752  0.06309  1.0000
  C   C521      1.0  0.23916  0.40332  0.01282  1.0000
  H   H432      1.0  0.73916  0.38687  0.15790  1.0000
  C   C522      1.0  0.48385  0.27851  0.97010  1.0000
  H   H433      1.0  0.22161  0.51070  0.01432  1.0000
  H   H434      1.0  0.46074  0.50093  0.09061  1.0000
  C   C523      1.0  0.41181  0.35916  0.96189  1.0000
  C   C524      1.0  0.60487  0.49453  0.15682  1.0000
  H   H435      1.0  0.34252  0.34060  0.03615  1.0000
  C   C525      1.0  0.51223  0.31858  0.13084  1.0000
  C   C526      1.0  0.41666  0.27958  0.95338  1.0000
  C   C527      1.0  0.35438  0.47076  0.97995  1.0000
  H   H436      1.0  0.11952  0.41387  0.07733  1.0000
  C   C528      1.0  0.46284  0.32922  0.15325  1.0000
  C   C529      1.0  0.00956  0.48474  0.12125  1.0000
  H   H437      1.0  0.14012  0.46148  0.96462  1.0000
  H   H438      1.0  0.84756  0.44125  0.96243  1.0000
  H   H439      1.0  0.10956  0.34952  0.02835  1.0000
  C   C530      1.0  0.84170  0.34621  0.10889  1.0000
  H   H440      1.0  0.44496  0.46280  0.14088  1.0000
  C   C531      1.0  0.76687  0.30356  0.13121  1.0000
  C   C532      1.0  0.20799  0.41589  0.03705  1.0000
  P   P19       1.0  0.85025  0.38355  0.10237  1.0000
  H   H441      1.0  0.04668  0.40962  0.19020  1.0000
  C   C533      1.0  0.72860  0.42710  0.98028  1.0000
  H   H442      1.0  0.95462  0.34077  0.08237  1.0000
  H   H443      1.0  0.64286  0.49361  0.17575  1.0000
  C   C534      1.0  0.26486  0.32613  0.00699  1.0000
  C   C535      1.0  0.31173  0.32295  0.03290  1.0000
  H   H444      1.0  0.60689  0.43215  0.05985  1.0000
  H   H445      1.0  0.05604  0.37223  0.07089  1.0000
  C   C536      1.0  0.65385  0.43406  0.99342  1.0000
  C   C537      1.0  0.49668  0.27215  0.16621  1.0000
  C   C538      1.0  0.64051  0.46059  0.99860  1.0000
  S   S67       1.0  0.30777  0.44852  0.19038  1.0000
  C   C539      1.0  0.31893  0.29696  0.05488  1.0000
  H   H446      1.0  0.93308  0.39233  0.98664  1.0000
  C   C540      1.0  0.71354  0.41134  0.07797  1.0000
  H   H447      1.0  0.00240  0.48793  0.07078  1.0000
  S   S68       1.0  0.59090  0.27608  0.11026  1.0000
  C   C541      1.0  0.89799  0.38839  0.03703  1.0000
  P   P20       1.0  0.24895  0.50829  0.94539  1.0000
  H   H448      1.0  0.99767  0.43815  0.97821  1.0000
  H   H449      1.0  0.29277  0.41163  0.99819  1.0000
  H   H450      1.0  0.93523  0.43634  0.07760  1.0000
  S   S69       1.0  0.40978  0.40175  0.16097  1.0000
  H   H451      1.0  0.58267  0.46615  0.00854  1.0000
  H   H452      1.0  0.53954  0.43091  0.11347  1.0000
  H   H453      1.0  0.98936  0.35528  0.13323  1.0000
  C   C542      1.0  0.11136  0.46792  0.08675  1.0000
  H   H454      1.0  0.44922  0.35116  0.14787  1.0000
  C   C543      1.0  0.37380  0.46557  0.03620  1.0000
  C   C544      1.0  0.89939  0.40024  0.06320  1.0000
  H   H455      1.0  0.37454  0.51318  0.16921  1.0000
  C   C545      1.0  0.13679  0.36837  0.03013  1.0000
  C   C546      1.0  0.59840  0.42177  0.11144  1.0000
  C   C547      1.0  0.97229  0.42718  0.00203  1.0000
  H   H456      1.0  0.15927  0.45234  0.16437  1.0000
  H   H457      1.0  0.84582  0.42876  0.13499  1.0000
  H   H458      1.0  0.86666  0.36928  0.03980  1.0000
  S   S70       1.0  0.76906  0.50139  0.06155  1.0000
  Fe  Fe35      1.0  0.76814  0.32705  0.01672  1.0000
  H   H459      1.0  0.44138  0.44321  0.00570  1.0000
  C   C548      1.0  0.31169  0.48457  0.03836  1.0000
  C   C549      1.0  0.49200  0.47761  0.13760  1.0000
  C   C550      1.0  0.90831  0.39030  0.13249  1.0000
  H   H460      1.0  0.74215  0.41246  0.05398  1.0000
  C   C551      1.0  0.39453  0.45846  0.00708  1.0000
  C   C552      1.0  0.89510  0.30197  0.10118  1.0000
  C   C553      1.0  0.01819  0.30202  0.97700  1.0000
  H   H461      1.0  0.51447  0.51406  0.99509  1.0000
  H   H462      1.0  0.53689  0.33246  0.10849  1.0000
  S   S71       1.0  0.85976  0.49377  0.97774  1.0000
  S   S72       1.0  0.56472  0.29999  0.95248  1.0000
  C   C554      1.0  0.97441  0.37333  0.14233  1.0000
  H   H463      1.0  0.29406  0.48934  0.06126  1.0000
  C   C555      1.0  0.71155  0.39719  0.13629  1.0000
  C   C556      1.0  0.88836  0.30714  0.95713  1.0000
  H   H464      1.0  0.35654  0.29452  0.07444  1.0000
  C   C557      1.0  0.76761  0.45882  0.18299  1.0000
  S   S73       1.0  0.70030  0.34451  0.05475  1.0000
  H   H465      1.0  0.99771  0.45989  0.02377  1.0000
  C   C558      1.0  0.02381  0.38013  0.16329  1.0000
  C   C559      1.0  0.77893  0.47187  0.98120  1.0000
  C   C560      1.0  0.14203  0.40463  0.05792  1.0000
  C   C561      1.0  0.20337  0.37951  0.00902  1.0000
  C   C562      1.0  0.94145  0.42063  0.16522  1.0000
  H   H466      1.0  0.73905  0.40690  0.97563  1.0000
  H   H467      1.0  0.11122  0.28595  0.94823  1.0000
  H   H468      1.0  0.81330  0.49852  0.18312  1.0000
  C   C563      1.0  0.82723  0.28840  0.11849  1.0000
  H   H469      1.0  0.03252  0.47761  0.17106  1.0000
  C   C564      1.0  0.27722  0.27427  0.05170  1.0000
  H   H470      1.0  0.60503  0.40838  0.16261  1.0000
  C   C565      1.0  0.93544  0.40157  0.00671  1.0000
  C   C566      1.0  0.12660  0.46078  0.14368  1.0000
  C   C567      1.0  0.22946  0.27750  0.02626  1.0000
  S   S74       1.0  0.69401  0.28899  0.02732  1.0000
  C   C568      1.0  0.77384  0.33230  0.12636  1.0000
  C   C569      1.0  0.04916  0.29204  0.95055  1.0000
  C   C570      1.0  0.05461  0.47497  0.14751  1.0000
  C   C571      1.0  0.29297  0.49034  0.98178  1.0000
  Fe  Fe36      1.0  0.28986  0.42218  0.15681  1.0000
  C   C572      1.0  0.93593  0.42610  0.05823  1.0000
  C   C573      1.0  0.03786  0.48117  0.09088  1.0000
  C   C574      1.0  0.70365  0.47913  0.99350  1.0000
  H   H471      1.0  0.82576  0.31221  0.96013  1.0000
  H   H472      1.0  0.69447  0.49883  0.99962  1.0000
  C   C575      1.0  0.63553  0.40899  0.13909  1.0000
  C   C576      1.0  0.89321  0.41432  0.14367  1.0000
  C   C577      1.0  0.34104  0.37504  0.96028  1.0000
  H   H473      1.0  0.72462  0.34358  0.13528  1.0000
  C   C578      1.0  0.43079  0.31133  0.18222  1.0000
  C   C579      1.0  0.61494  0.51569  0.12811  1.0000
  C   C580      1.0  0.18499  0.35927  0.95031  1.0000
  H   H474      1.0  0.71312  0.29327  0.14380  1.0000
  C   C581      1.0  0.44776  0.28278  0.18858  1.0000
  C   C582      1.0  0.54518  0.47488  0.16122  1.0000
  C   C583      1.0  0.97206  0.43951  0.02773  1.0000
  C   C584      1.0  0.10638  0.38097  0.05438  1.0000
  H   H475      1.0  0.32580  0.51733  0.11106  1.0000
  C   C585      1.0  0.56261  0.51819  0.10432  1.0000
  Fe  Fe37      1.0  0.83520  0.51963  0.01326  1.0000
  H   H476      1.0  0.60846  0.32403  0.18535  1.0000
  H   H477      1.0  0.72317  0.41795  0.18994  1.0000
  C   C586      1.0  0.36232  0.51208  0.19469  1.0000
  H   H478      1.0  0.53665  0.35857  0.94593  1.0000
  H   H479      1.0  0.34994  0.56261  0.24968  1.0000
  H   H480      1.0  0.09494  0.74495  0.30331  1.0000
  H   H481      1.0  0.32494  0.66143  0.32162  1.0000
  C   C587      1.0  0.17696  0.52802  0.33227  1.0000
  H   H482      1.0  0.91052  0.73219  0.28391  1.0000
  H   H483      1.0  0.26810  0.70777  0.32871  1.0000
  H   H484      1.0  0.85840  0.54480  0.29662  1.0000
  C   C588      1.0  0.37819  0.58028  0.42617  1.0000
  H   H485      1.0  0.18560  0.64778  0.44150  1.0000
  H   H486      1.0  0.81681  0.57047  0.24386  1.0000
  C   C589      1.0  0.14565  0.75304  0.28635  1.0000
  S   S75       1.0  0.13096  0.57195  0.20417  1.0000
  H   H487      1.0  0.40089  0.60801  0.24942  1.0000
  H   H488      1.0  0.92356  0.76645  0.19862  1.0000
  S   S76       1.0  0.42427  0.73225  0.34288  1.0000
  H   H489      1.0  0.83316  0.62451  0.32457  1.0000
  H   H490      1.0  0.86673  0.68810  0.32201  1.0000
  C   C590      1.0  0.93036  0.67224  0.41928  1.0000
  C   C591      1.0  0.97563  0.57515  0.40167  1.0000
  Fe  Fe38      1.0  0.11079  0.60150  0.23561  1.0000
  H   H491      1.0  0.43517  0.61743  0.30028  1.0000
  C   C592      1.0  0.23272  0.62982  0.27454  1.0000
  H   H492      1.0  0.76801  0.74707  0.28033  1.0000
  H   H493      1.0  0.51515  0.64935  0.25981  1.0000
  S   S77       1.0  0.57537  0.70109  0.38099  1.0000
  C   C593      1.0  0.67359  0.75395  0.20027  1.0000
  H   H494      1.0  0.85837  0.72125  0.35335  1.0000
  C   C594      1.0  0.32266  0.67703  0.27020  1.0000
  H   H495      1.0  0.20271  0.56613  0.40115  1.0000
  C   C595      1.0  0.80399  0.55720  0.29583  1.0000
  C   C596      1.0  0.66371  0.58903  0.29205  1.0000
  H   H496      1.0  0.54658  0.52735  0.26002  1.0000
  H   H497      1.0  0.95212  0.64600  0.32770  1.0000
  C   C597      1.0  0.30502  0.65795  0.30007  1.0000
  C   C598      1.0  0.02004  0.71474  0.26579  1.0000
  C   C599      1.0  0.97100  0.66506  0.31037  1.0000
  C   C600      1.0  0.37114  0.55087  0.33016  1.0000
  Fe  Fe39      1.0  0.44808  0.70398  0.31006  1.0000
  C   C601      1.0  0.22130  0.70173  0.34828  1.0000
  C   C602      1.0  0.79506  0.69024  0.41444  1.0000
  P   P21       1.0  0.02763  0.67322  0.43294  1.0000
  C   C603      1.0  0.68851  0.57542  0.32228  1.0000
  S   S78       1.0  0.17882  0.59973  0.27820  1.0000
  H   H498      1.0  0.69736  0.67115  0.22771  1.0000
  C   C604      1.0  0.88705  0.56195  0.36704  1.0000
  H   H499      1.0  0.65282  0.57798  0.34364  1.0000
  C   C605      1.0  0.47728  0.75897  0.19980  1.0000
  C   C606      1.0  0.25990  0.63446  0.30223  1.0000
  H   H500      1.0  0.82218  0.63315  0.38486  1.0000
  H   H501      1.0  0.20962  0.54511  0.33567  1.0000
  C   C607      1.0  0.15953  0.68512  0.34529  1.0000
  C   C608      1.0  0.55097  0.63157  0.21972  1.0000
  C   C609      1.0  0.75137  0.74577  0.34383  1.0000
  C   C610      1.0  0.77744  0.66893  0.40071  1.0000
  P   P22       1.0  0.79785  0.54445  0.36311  1.0000
  C   C611      1.0  0.35531  0.73827  0.42316  1.0000
  C   C612      1.0  0.80398  0.63491  0.30345  1.0000
  C   C613      1.0  0.58860  0.53815  0.24068  1.0000
  H   H502      1.0  0.12462  0.69114  0.25477  1.0000
  H   H503      1.0  0.78136  0.53424  0.21031  1.0000
  H   H504      1.0  0.31018  0.64505  0.38982  1.0000
  H   H505      1.0  0.35915  0.53548  0.35294  1.0000
  H   H506      1.0  0.42467  0.62164  0.41796  1.0000
  H   H507      1.0  0.26807  0.72469  0.37813  1.0000
  C   C614      1.0  0.66622  0.52782  0.23761  1.0000
  C   C615      1.0  0.87149  0.69211  0.42340  1.0000
  H   H508      1.0  0.21349  0.76819  0.20641  1.0000
  H   H509      1.0  0.41096  0.58208  0.35180  1.0000
  C   C616      1.0  0.72676  0.64532  0.30712  1.0000
  C   C617      1.0  0.06777  0.69065  0.26906  1.0000
  H   H510      1.0  0.61045  0.60196  0.29059  1.0000
  C   C618      1.0  0.78017  0.57148  0.26575  1.0000
  C   C619      1.0  0.83592  0.64941  0.39595  1.0000
  H   H511      1.0  0.05184  0.66451  0.36736  1.0000
  C   C620      1.0  0.72747  0.54896  0.39605  1.0000
  S   S79       1.0  0.93629  0.52337  0.23779  1.0000
  H   H512      1.0  0.16463  0.71039  0.42282  1.0000
  H   H513      1.0  0.95596  0.63532  0.40201  1.0000
  C   C621      1.0  0.09922  0.68644  0.39864  1.0000
  C   C622      1.0  0.69144  0.52614  0.41865  1.0000
  H   H514      1.0  0.87134  0.55068  0.41921  1.0000
  H   H515      1.0  0.62738  0.66537  0.28251  1.0000
  S   S80       1.0  0.98325  0.59068  0.24908  1.0000
  S   S81       1.0  0.97598  0.75814  0.35957  1.0000
  C   C623      1.0  0.36616  0.56581  0.27213  1.0000
  C   C624      1.0  0.45812  0.52366  0.40504  1.0000
  C   C625      1.0  0.71206  0.57578  0.40022  1.0000
  Fe  Fe40      1.0  0.44503  0.69424  0.38308  1.0000
  C   C626      1.0  0.53532  0.68091  0.21540  1.0000
  H   H516      1.0  0.50416  0.56969  0.22085  1.0000
  C   C627      1.0  0.68357  0.76951  0.24859  1.0000
  H   H517      1.0  0.75008  0.70582  0.41722  1.0000
  S   S82       1.0  0.08329  0.63842  0.19540  1.0000
  H   H518      1.0  0.04555  0.70048  0.20660  1.0000
  C   C628      1.0  0.35456  0.54501  0.30132  1.0000
  H   H519      1.0  0.50952  0.74470  0.21773  1.0000
  C   C629      1.0  0.25172  0.57775  0.40513  1.0000
  C   C630      1.0  0.31477  0.56430  0.42233  1.0000
  Fe  Fe41      1.0  0.95641  0.62522  0.20660  1.0000
  C   C631      1.0  0.22145  0.71120  0.37605  1.0000
  C   C632      1.0  0.39606  0.59167  0.27175  1.0000
  C   C633      1.0  0.73076  0.73315  0.21005  1.0000
  S   S83       1.0  0.85308  0.65509  0.20622  1.0000
  H   H520      1.0  0.30727  0.68741  0.21931  1.0000
  C   C634      1.0  0.76012  0.55994  0.32443  1.0000
  H   H521      1.0  0.15914  0.67835  0.32342  1.0000
  C   C635      1.0  0.25068  0.60676  0.39331  1.0000
  H   H522      1.0  0.52189  0.69762  0.22697  1.0000
  C   C636      1.0  0.53188  0.65345  0.23408  1.0000
  C   C637      1.0  0.68815  0.65834  0.27983  1.0000
  H   H523      1.0  0.07480  0.60062  0.37719  1.0000
  C   C638      1.0  0.74101  0.74877  0.25818  1.0000
  C   C639      1.0  0.71068  0.58767  0.26384  1.0000
  C   C640      1.0  0.21178  0.76586  0.23206  1.0000
  H   H524      1.0  0.22905  0.64535  0.22308  1.0000
  P   P23       1.0  0.05485  0.74687  0.23833  1.0000
  C   C641      1.0  0.00213  0.59071  0.34360  1.0000
  H   H525      1.0  0.99102  0.57431  0.42575  1.0000
  H   H526      1.0  0.80825  0.71426  0.24670  1.0000
  C   C642      1.0  0.14420  0.75569  0.25311  1.0000
  H   H527      1.0  0.54871  0.61058  0.23485  1.0000
  C   C643      1.0  0.80541  0.65151  0.24515  1.0000
  C   C644      1.0  0.76416  0.73047  0.23910  1.0000
  C   C645      1.0  0.91192  0.65093  0.40535  1.0000
  C   C646      1.0  0.04250  0.66577  0.29084  1.0000
  C   C647      1.0  0.24939  0.64898  0.24462  1.0000
  C   C648      1.0  0.29414  0.67267  0.24248  1.0000
  Fe  Fe42      1.0  0.00016  0.56343  0.21526  1.0000
  C   C649      1.0  0.02259  0.58991  0.37446  1.0000
  C   C650      1.0  0.31244  0.62250  0.39827  1.0000
  S   S84       1.0  0.38125  0.70604  0.26709  1.0000
  C   C651      1.0  0.72739  0.66135  0.24885  1.0000
  C   C652      1.0  0.41447  0.59707  0.30041  1.0000
  C   C653      1.0  0.94769  0.71380  0.28529  1.0000
  H   H528      1.0  0.74148  0.59347  0.38360  1.0000
  C   C654      1.0  0.84394  0.63857  0.27251  1.0000
  H   H529      1.0  0.90511  0.63204  0.26993  1.0000
  H   H530      1.0  0.69464  0.59965  0.24048  1.0000
  H   H531      1.0  0.88423  0.70923  0.43316  1.0000
  S   S85       1.0  0.57867  0.71232  0.30210  1.0000
  H   H532      1.0  0.07903  0.64719  0.29272  1.0000
  C   C655      1.0  0.92315  0.68893  0.30735  1.0000
  C   C656      1.0  0.90804  0.56143  0.39793  1.0000
  C   C657      1.0  0.21165  0.76177  0.29796  1.0000
  H   H533      1.0  0.40354  0.74058  0.40430  1.0000
  C   C658      1.0  0.31401  0.76194  0.42831  1.0000
  H   H534      1.0  0.64818  0.60079  0.42865  1.0000
  H   H535      1.0  0.03916  0.60161  0.32237  1.0000
  H   H536      1.0  0.24715  0.61956  0.32523  1.0000
  C   C659      1.0  0.40071  0.57692  0.32965  1.0000
  H   H537      1.0  0.92047  0.57824  0.31573  1.0000
  S   S86       1.0  0.37354  0.68193  0.43148  1.0000
  H   H538      1.0  0.02549  0.73358  0.42600  1.0000
  Fe  Fe43      1.0  0.55649  0.73705  0.33859  1.0000
  S   S87       1.0  0.67925  0.64191  0.34596  1.0000
  S   S88       1.0  0.45980  0.66557  0.35035  1.0000
  C   C660      1.0  0.93473  0.57688  0.33988  1.0000
  C   C661      1.0  0.87724  0.76418  0.35073  1.0000
  C   C662      1.0  0.83159  0.74177  0.34951  1.0000
  H   H539      1.0  0.71653  0.72828  0.34301  1.0000
  C   C663      1.0  0.09858  0.67750  0.37028  1.0000
  Fe  Fe44      1.0  0.58826  0.67573  0.34469  1.0000
  C   C664      1.0  0.56524  0.56243  0.21873  1.0000
  H   H540      1.0  0.20149  0.61731  0.38068  1.0000
  H   H541      1.0  0.71868  0.66772  0.39339  1.0000
  C   C665      1.0  0.16136  0.70339  0.40125  1.0000
  H   H542      1.0  0.06891  0.54026  0.35604  1.0000
  H   H543      1.0  0.44512  0.54413  0.39053  1.0000
  H   H544      1.0  0.21155  0.76041  0.32336  1.0000
  C   C666      1.0  0.65950  0.57990  0.42588  1.0000
  C   C667      1.0  0.37665  0.60926  0.41435  1.0000
  H   H545      1.0  0.21270  0.52304  0.24910  1.0000
  C   C668      1.0  0.09637  0.52573  0.34342  1.0000
  C   C669      1.0  0.72073  0.54194  0.21269  1.0000
  C   C670      1.0  0.07363  0.74434  0.19697  1.0000
  C   C671      1.0  0.33227  0.71177  0.44170  1.0000
  C   C672      1.0  0.63864  0.53028  0.44432  1.0000
  P   P24       1.0  0.31281  0.52727  0.44152  1.0000
  H   H546      1.0  0.42772  0.57038  0.43917  1.0000
  H   H547      1.0  0.39767  0.72738  0.19620  1.0000
  H   H548      1.0  0.74956  0.71905  0.19517  1.0000
  C   C673      1.0  0.33345  0.69088  0.64858  1.0000
  H   H549      1.0  0.68410  0.63691  0.63705  1.0000
  C   C674      1.0  0.50230  0.70414  0.67812  1.0000
  H   H550      1.0  0.22493  0.63171  0.67334  1.0000
  C   C675      1.0  0.16716  0.60540  0.46844  1.0000
  H   H551      1.0  0.23004  0.60088  0.46913  1.0000
  C   C676      1.0  0.27286  0.70915  0.46743  1.0000
  H   H552      1.0  0.74137  0.56622  0.59792  1.0000
  C   C677      1.0  0.09644  0.58031  0.60725  1.0000
  H   H553      1.0  0.46873  0.68604  0.67841  1.0000
  C   C678      1.0  0.29302  0.52143  0.48485  1.0000
  C   C679      1.0  0.33844  0.54503  0.63589  1.0000
  H   H554      1.0  0.02562  0.76152  0.46572  1.0000
  P   P25       1.0  0.35785  0.73442  0.67571  1.0000
  H   H555      1.0  0.31574  0.56380  0.48616  1.0000
  C   C680      1.0  0.30105  0.66566  0.64779  1.0000
  C   C681      1.0  0.09972  0.56209  0.66538  1.0000
  C   C682      1.0  0.43866  0.60356  0.52423  1.0000
  H   H556      1.0  0.08274  0.72118  0.67274  1.0000
  C   C683      1.0  0.39556  0.56600  0.62455  1.0000
  C   C684      1.0  0.92916  0.76746  0.64612  1.0000
  C   C685      1.0  0.62812  0.72316  0.68384  1.0000
  H   H557      1.0  0.32897  0.53023  0.62214  1.0000
  H   H558      1.0  0.36690  0.75660  0.56263  1.0000
  C   C686      1.0  0.02290  0.73904  0.47398  1.0000
  C   C687      1.0  0.02242  0.68094  0.49527  1.0000
  C   C688      1.0  0.05998  0.63829  0.45173  1.0000
  H   H559      1.0  0.97029  0.52504  0.67773  1.0000
  H   H560      1.0  0.27491  0.55605  0.54397  1.0000
  C   C689      1.0  0.27860  0.61719  0.53701  1.0000
  H   H561      1.0  0.18802  0.73088  0.49329  1.0000
  C   C690      1.0  0.40466  0.58516  0.64278  1.0000
  H   H562      1.0  0.28696  0.64179  0.48755  1.0000
  C   C691      1.0  0.24875  0.65154  0.67357  1.0000
  H   H563      1.0  0.62377  0.76552  0.68722  1.0000
  H   H564      1.0  0.09620  0.53662  0.63187  1.0000
  H   H565      1.0  0.54653  0.65344  0.64876  1.0000
  Fe  Fe45      1.0  0.01091  0.53972  0.56980  1.0000
  H   H566      1.0  0.60725  0.74640  0.61250  1.0000
  C   C692      1.0  0.31449  0.70192  0.67538  1.0000
  C   C693      1.0  0.29243  0.54297  0.66525  1.0000
  C   C694      1.0  0.03055  0.59107  0.48332  1.0000
  C   C695      1.0  0.00454  0.61775  0.46777  1.0000
  H   H567      1.0  0.29250  0.71265  0.58008  1.0000
  C   C696      1.0  0.46544  0.53497  0.57866  1.0000
  C   C697      1.0  0.14155  0.63203  0.45264  1.0000
  C   C698      1.0  0.70333  0.76970  0.45943  1.0000
  H   H568      1.0  0.13165  0.56449  0.49680  1.0000
  H   H569      1.0  0.63617  0.64787  0.56928  1.0000
  C   C699      1.0  0.44771  0.72510  0.50504  1.0000
  C   C700      1.0  0.10246  0.61182  0.64144  1.0000
  H   H570      1.0  0.45089  0.54800  0.52739  1.0000
  C   C701      1.0  0.64589  0.62489  0.65717  1.0000
  H   H571      1.0  0.10311  0.63286  0.64403  1.0000
  P   P26       1.0  0.45271  0.56924  0.58593  1.0000
  H   H572      1.0  0.50069  0.59847  0.51892  1.0000
  H   H573      1.0  0.10076  0.62492  0.58971  1.0000
  C   C702      1.0  0.11182  0.58490  0.48374  1.0000
  H   H574      1.0  0.48895  0.72824  0.48351  1.0000
  C   C703      1.0  0.37842  0.74093  0.54929  1.0000
  H   H575      1.0  0.59117  0.52962  0.67830  1.0000
  C   C704      1.0  0.23443  0.73294  0.47365  1.0000
  H   H576      1.0  0.37453  0.70159  0.62863  1.0000
  H   H577      1.0  0.55257  0.73977  0.56402  1.0000
  C   C705      1.0  0.27529  0.53905  0.53272  1.0000
  C   C706      1.0  0.58381  0.70077  0.68165  1.0000
  C   C707      1.0  0.39825  0.62149  0.50011  1.0000
  H   H578      1.0  0.28650  0.59103  0.58471  1.0000
  H   H579      1.0  0.96849  0.75048  0.64294  1.0000
  C   C708      1.0  0.09702  0.55761  0.63453  1.0000
  H   H580      1.0  0.41850  0.68401  0.50258  1.0000
  C   C709      1.0  0.56858  0.63421  0.66377  1.0000
  H   H581      1.0  0.76497  0.76622  0.46447  1.0000
  H   H582      1.0  0.02018  0.68687  0.54320  1.0000
  H   H583      1.0  0.44790  0.60154  0.63462  1.0000
  C   C710      1.0  0.59055  0.74868  0.68360  1.0000
  C   C711      1.0  0.29714  0.54331  0.49969  1.0000
  H   H584      1.0  0.42887  0.63033  0.47644  1.0000
  C   C712      1.0  0.40804  0.69974  0.51595  1.0000
  H   H585      1.0  0.84310  0.74063  0.67885  1.0000
  C   C713      1.0  0.10114  0.58926  0.66884  1.0000
  C   C714      1.0  0.85806  0.76190  0.66611  1.0000
  C   C715      1.0  0.02387  0.72310  0.45155  1.0000
  C   C716      1.0  0.35210  0.69522  0.54296  1.0000
  C   C717      1.0  0.35690  0.58339  0.67175  1.0000
  C   C718      1.0  0.55591  0.76061  0.56709  1.0000
  C   C719      1.0  0.63029  0.62546  0.57611  1.0000
  S   S89       1.0  0.88743  0.54578  0.55383  1.0000
  C   C720      1.0  0.51989  0.61883  0.68999  1.0000
  H   H586      1.0  0.02183  0.73855  0.52413  1.0000
  C   C721      1.0  0.32931  0.76022  0.64031  1.0000
  H   H587      1.0  0.21446  0.74185  0.64169  1.0000
  H   H588      1.0  0.25493  0.68885  0.48208  1.0000
  C   C722      1.0  0.68957  0.57949  0.59217  1.0000
  C   C723      1.0  0.30091  0.56237  0.68292  1.0000
  C   C724      1.0  0.33704  0.71587  0.55955  1.0000
  C   C725      1.0  0.02125  0.72604  0.50698  1.0000
  C   C726      1.0  0.02086  0.69699  0.51763  1.0000
  H   H589      1.0  0.21595  0.62190  0.54174  1.0000
  C   C727      1.0  0.61544  0.56753  0.59334  1.0000
  C   C728      1.0  0.39929  0.59229  0.55501  1.0000
  C   C729      1.0  0.91111  0.53001  0.68690  1.0000
  H   H590      1.0  0.50460  0.62710  0.57203  1.0000
  H   H591      1.0  0.58315  0.56008  0.46830  1.0000
  C   C730      1.0  0.43315  0.74598  0.52162  1.0000
  C   C731      1.0  0.10104  0.60735  0.61070  1.0000
  C   C732      1.0  0.54812  0.58447  0.58578  1.0000
  H   H592      1.0  0.31945  0.67592  0.55059  1.0000
  H   H593      1.0  0.98773  0.57528  0.49572  1.0000
  C   C733      1.0  0.58719  0.76428  0.59455  1.0000
  H   H594      1.0  0.31671  0.65686  0.62741  1.0000
  C   C734      1.0  0.55588  0.61358  0.57758  1.0000
  C   C735      1.0  0.45967  0.53074  0.54793  1.0000
  C   C736      1.0  0.02441  0.69388  0.46199  1.0000
  H   H595      1.0  0.14043  0.53069  0.45471  1.0000
  H   H596      1.0  0.75511  0.61742  0.58210  1.0000
  H   H597      1.0  0.61131  0.54507  0.59990  1.0000
  C   C737      1.0  0.69721  0.60838  0.58331  1.0000
  H   H598      1.0  0.02248  0.65848  0.50411  1.0000
  C   C738      1.0  0.31825  0.62819  0.50645  1.0000
  C   C739      1.0  0.62275  0.55710  0.44800  1.0000
  H   H599      1.0  0.94129  0.62236  0.46876  1.0000
  S   S90       1.0  0.08870  0.57565  0.56863  1.0000
  H   H600      1.0  0.24943  0.52649  0.67419  1.0000
  C   C740      1.0  0.46454  0.73009  0.67665  1.0000
  C   C741      1.0  0.31908  0.59956  0.56138  1.0000
  C   C742      1.0  0.25461  0.75848  0.62930  1.0000
  C   C743      1.0  0.50913  0.75201  0.68038  1.0000
  C   C744      1.0  0.25272  0.75922  0.45325  1.0000
  H   H601      1.0  0.10005  0.54459  0.68646  1.0000
  H   H602      1.0  0.69091  0.72038  0.68709  1.0000
  H   H603      1.0  0.73368  0.59298  0.67025  1.0000
  C   C745      1.0  0.67417  0.59995  0.67645  1.0000
  H   H604      1.0  0.61216  0.68052  0.68420  1.0000
  H   H605      1.0  0.36266  0.59826  0.68571  1.0000
  C   C746      1.0  0.44577  0.55639  0.90901  1.0000
  H   H606      1.0  0.17222  0.64230  0.90509  1.0000
  H   H607      1.0  0.39267  0.71259  0.74213  1.0000
  C   C747      1.0  0.90225  0.73221  0.84050  1.0000
  S   S91       1.0  0.11173  0.76181  0.87155  1.0000
  C   C748      1.0  0.37214  0.56264  0.78933  1.0000
  C   C749      1.0  0.89947  0.55159  0.70213  1.0000
  C   C750      1.0  0.34676  0.60667  0.75127  1.0000
  H   H608      1.0  0.32893  0.58204  0.84796  1.0000
  C   C751      1.0  0.26138  0.68770  0.70108  1.0000
  S   S92       1.0  0.97494  0.55685  0.86884  1.0000
  H   H609      1.0  0.83989  0.61401  0.74827  1.0000
  Fe  Fe46      1.0  0.20894  0.53166  0.80076  1.0000
  C   C752      1.0  0.58317  0.52610  0.72983  1.0000
  Fe  Fe47      1.0  0.52522  0.70567  0.82327  1.0000
  C   C753      1.0  0.13043  0.66653  0.80366  1.0000
  Fe  Fe48      1.0  0.09487  0.56079  0.75218  1.0000
  C   C754      1.0  0.33040  0.57845  0.76428  1.0000
  C   C755      1.0  0.35361  0.73044  0.74130  1.0000
  C   C756      1.0  0.85437  0.76088  0.74499  1.0000
  S   S93       1.0  0.76539  0.71651  0.74356  1.0000
  S   S94       1.0  0.33716  0.52978  0.81078  1.0000
  C   C757      1.0  0.45219  0.69440  0.92970  1.0000
  S   S95       1.0  0.98740  0.53856  0.78171  1.0000
  H   H610      1.0  0.50449  0.55888  0.91595  1.0000
  S   S96       1.0  0.53999  0.71272  0.76946  1.0000
  H   H611      1.0  0.53844  0.71958  0.94179  1.0000
  H   H612      1.0  0.24616  0.69557  0.72213  1.0000
  H   H613      1.0  0.32893  0.67837  0.79787  1.0000
  H   H614      1.0  0.89133  0.59527  0.81980  1.0000
  H   H615      1.0  0.01777  0.70105  0.90030  1.0000
  C   C758      1.0  0.27310  0.66761  0.80531  1.0000
  H   H616      1.0  0.20425  0.70195  0.77997  1.0000
  H   H617      1.0  0.94981  0.56326  0.70504  1.0000
  H   H618      1.0  0.91522  0.61718  0.89302  1.0000
  C   C759      1.0  0.22827  0.66266  0.70001  1.0000
  C   C760      1.0  0.75722  0.54295  0.71023  1.0000
  C   C761      1.0  0.27394  0.61696  0.92134  1.0000
  C   C762      1.0  0.76938  0.52132  0.69496  1.0000
  C   C763      1.0  0.63638  0.57178  0.78210  1.0000
  Fe  Fe49      1.0  0.03838  0.54663  0.82458  1.0000
  C   C764      1.0  0.95808  0.62004  0.75946  1.0000
  H   H619      1.0  0.86729  0.65933  0.85446  1.0000
  H   H620      1.0  0.31273  0.61883  0.73254  1.0000
  C   C765      1.0  0.99275  0.70547  0.87727  1.0000
  C   C766      1.0  0.82293  0.55799  0.71384  1.0000
  C   C767      1.0  0.73301  0.53063  0.81781  1.0000
  H   H621      1.0  0.69524  0.54775  0.85796  1.0000
  C   C768      1.0  0.07544  0.76026  0.72710  1.0000
  H   H622      1.0  0.64779  0.76939  0.84416  1.0000
  C   C769      1.0  0.33419  0.73935  0.76940  1.0000
  C   C770      1.0  0.69032  0.54920  0.83267  1.0000
  C   C771      1.0  0.59184  0.68139  0.93398  1.0000
  H   H623      1.0  0.19872  0.60529  0.84988  1.0000
  H   H624      1.0  0.51120  0.76217  0.89939  1.0000
  S   S97       1.0  0.47704  0.66277  0.83238  1.0000
  C   C772      1.0  0.20249  0.68075  0.79485  1.0000
  C   C773      1.0  0.42207  0.57320  0.88004  1.0000
  C   C774      1.0  0.82830  0.56537  0.89805  1.0000
  C   C775      1.0  0.84630  0.65512  0.87985  1.0000
  H   H625      1.0  0.06083  0.68383  0.72273  1.0000
  H   H626      1.0  0.29209  0.61341  0.89789  1.0000
  C   C776      1.0  0.40471  0.61924  0.76339  1.0000
  C   C777      1.0  0.43448  0.57460  0.79975  1.0000
  Fe  Fe50      1.0  0.60418  0.64819  0.83455  1.0000
  C   C778      1.0  0.66836  0.73550  0.88494  1.0000
  H   H627      1.0  0.07070  0.67689  0.85953  1.0000
  C   C779      1.0  0.62540  0.58422  0.70283  1.0000
  C   C780      1.0  0.52831  0.70011  0.93619  1.0000
  H   H628      1.0  0.18849  0.65133  0.72015  1.0000
  C   C781      1.0  0.05858  0.71124  0.75460  1.0000
  S   S98       1.0  0.09990  0.59608  0.70690  1.0000
  C   C782      1.0  0.27216  0.64042  0.82491  1.0000
  H   H629      1.0  0.84743  0.55092  0.91944  1.0000
  Fe  Fe51      1.0  0.66210  0.69489  0.77605  1.0000
  H   H630      1.0  0.61078  0.58467  0.82615  1.0000
  H   H631      1.0  0.60025  0.58815  0.76854  1.0000
  S   S99       1.0  0.13919  0.57166  0.79481  1.0000
  H   H632      1.0  0.34585  0.70268  0.85741  1.0000
  C   C783      1.0  0.31820  0.53308  0.91974  1.0000
  S   S100      1.0  0.65090  0.69075  0.82934  1.0000
  C   C784      1.0  0.78106  0.74750  0.75396  1.0000
  C   C785      1.0  0.20657  0.63336  0.92536  1.0000
  C   C786      1.0  0.32404  0.74472  0.71213  1.0000
  H   H633      1.0  0.23687  0.54771  0.88297  1.0000
  S   S101      1.0  0.17029  0.52217  0.75658  1.0000
  C   C787      1.0  0.85251  0.59045  0.84188  1.0000
  H   H634      1.0  0.32755  0.63035  0.83232  1.0000
  H   H635      1.0  0.90129  0.75212  0.73143  1.0000
  S   S102      1.0  0.62555  0.65086  0.78156  1.0000
  H   H636      1.0  0.46255  0.58854  0.86456  1.0000
  C   C788      1.0  0.29486  0.55007  0.89065  1.0000
  S   S103      1.0  0.63087  0.61144  0.87515  1.0000
  C   C789      1.0  0.12930  0.63949  0.82429  1.0000
  H   H637      1.0  0.40415  0.70946  0.93012  1.0000
  H   H638      1.0  0.49372  0.61276  0.79713  1.0000
  C   C790      1.0  0.20013  0.62639  0.83461  1.0000
  C   C791      1.0  0.67551  0.55220  0.76757  1.0000
  S   S104      1.0  0.42115  0.65495  0.74820  1.0000
  C   C792      1.0  0.76191  0.74371  0.92035  1.0000
  C   C793      1.0  0.06536  0.70504  0.72438  1.0000
  C   C794      1.0  0.44902  0.60318  0.78754  1.0000
  C   C795      1.0  0.84592  0.64975  0.76719  1.0000
  H   H639      1.0  0.06283  0.74435  0.77866  1.0000
  C   C796      1.0  0.43874  0.66983  0.92121  1.0000
  C   C797      1.0  0.93331  0.72586  0.87045  1.0000
  C   C798      1.0  0.34684  0.56984  0.87084  1.0000
  C   C799      1.0  0.76346  0.66767  0.92368  1.0000
  C   C800      1.0  0.87826  0.57141  0.86913  1.0000
  C   C801      1.0  0.00714  0.63676  0.77065  1.0000
  H   H640      1.0  0.91314  0.73723  0.88810  1.0000
  H   H641      1.0  0.35929  0.72872  0.79157  1.0000
  H   H642      1.0  0.20058  0.71143  0.86839  1.0000
  C   C802      1.0  0.87281  0.63123  0.90151  1.0000
  H   H643      1.0  0.26339  0.56127  0.70511  1.0000
  C   C803      1.0  0.72444  0.53175  0.78560  1.0000
  H   H644      1.0  0.38018  0.66572  0.91549  1.0000
  H   H645      1.0  0.77302  0.69186  0.87370  1.0000
  H   H646      1.0  0.96652  0.53817  0.94045  1.0000
  H   H647      1.0  0.49150  0.63203  0.91229  1.0000
  C   C804      1.0  0.57763  0.65667  0.92568  1.0000
  H   H648      1.0  0.50824  0.58163  0.72895  1.0000
  C   C805      1.0  0.24215  0.72829  0.86408  1.0000
  C   C806      1.0  0.06572  0.73900  0.75573  1.0000
  C   C807      1.0  0.70850  0.72592  0.91281  1.0000
  C   C808      1.0  0.89357  0.66575  0.77985  1.0000
  C   C809      1.0  0.50134  0.65093  0.91935  1.0000
  H   H649      1.0  0.98218  0.60185  0.75245  1.0000
  H   H650      1.0  0.07015  0.63191  0.77029  1.0000
  H   H651      1.0  0.78438  0.65544  0.76484  1.0000
  C   C810      1.0  0.75290  0.57790  0.89961  1.0000
  Fe  Fe52      1.0  0.50228  0.66852  0.77888  1.0000
  H   H652      1.0  0.85669  0.74827  0.83500  1.0000
  C   C811      1.0  0.28256  0.76198  0.76890  1.0000
  C   C812      1.0  0.32413  0.72335  0.85776  1.0000
  C   C813      1.0  0.97492  0.65974  0.78124  1.0000
  C   C814      1.0  0.87768  0.62675  0.75728  1.0000
  C   C815      1.0  0.72050  0.75883  0.77149  1.0000
  H   H653      1.0  0.62707  0.72233  0.87835  1.0000
  H   H654      1.0  0.66337  0.74892  0.77813  1.0000
  P   P27       1.0  0.03888  0.68382  0.79137  1.0000
  H   H655      1.0  0.90910  0.72425  0.79383  1.0000
  H   H656      1.0  0.86679  0.68329  0.78749  1.0000
  C   C816      1.0  0.54753  0.59368  0.70916  1.0000
  C   C817      1.0  0.79218  0.67338  0.89087  1.0000
  C   C818      1.0  0.93194  0.71850  0.81715  1.0000
  C   C819      1.0  0.99332  0.69853  0.82335  1.0000
  H   H657      1.0  0.75767  0.61841  0.82266  1.0000
  H   H658      1.0  0.81499  0.57460  0.72593  1.0000
  C   C820      1.0  0.77751  0.60370  0.84367  1.0000
  H   H659      1.0  0.07377  0.62844  0.83228  1.0000
  P   P28       1.0  0.69199  0.69088  0.93787  1.0000
  H   H660      1.0  0.71467  0.57274  0.92196  1.0000
  H   H661      1.0  0.28369  0.56910  0.75554  1.0000
  C   C821      1.0  0.37765  0.74526  0.85225  1.0000
  S   S105      1.0  0.48067  0.74042  0.84502  1.0000
  H   H662      1.0  0.46761  0.56221  0.81880  1.0000
  C   C822      1.0  0.21390  0.75519  0.86429  1.0000
  C   C823      1.0  0.64266  0.56993  0.81474  1.0000
  C   C824      1.0  0.84279  0.62499  0.93399  1.0000
  P   P29       1.0  0.65996  0.55128  0.72700  1.0000
  C   C825      1.0  0.72744  0.59723  0.87256  1.0000
  C   C826      1.0  0.02293  0.69189  0.85385  1.0000
  H   H663      1.0  0.62560  0.64206  0.92329  1.0000
  C   C827      1.0  0.39388  0.53646  0.92890  1.0000
  H   H664      1.0  0.26662  0.76876  0.79077  1.0000
  H   H665      1.0  0.79457  0.73696  0.94139  1.0000
  H   H666      1.0  0.46072  0.62650  0.69558  1.0000
  C   C828      1.0  0.68074  0.76231  0.86512  1.0000
  C   C829      1.0  0.27311  0.76777  0.71160  1.0000
  C   C830      1.0  0.56028  0.52031  0.70177  1.0000
  H   H667      1.0  0.37010  0.59270  0.94374  1.0000
  C   C831      1.0  0.08846  0.52474  0.94318  1.0000
  C   C832      1.0  0.08197  0.75393  0.69719  1.0000
  C   C833      1.0  0.07761  0.72627  0.69585  1.0000
  H   H668      1.0  0.22707  0.55541  0.97436  1.0000
  H   H669      1.0  0.41344  0.52362  0.95113  1.0000
  C   C834      1.0  0.03148  0.56378  0.96197  1.0000
  H   H670      1.0  0.17946  0.58351  0.02896  1.0000
  C   C835      1.0  0.55690  0.68667  0.18217  1.0000
  H   H671      1.0  0.40116  0.55153  0.06713  1.0000
  H   H672      1.0  0.45699  0.68304  0.06043  1.0000
  H   H673      1.0  0.13101  0.65087  0.95877  1.0000
  H   H674      1.0  0.74458  0.63382  0.16391  1.0000
  H   H675      1.0  0.10985  0.74129  0.10710  1.0000
  S   S106      1.0  0.92460  0.61554  0.01181  1.0000
  C   C836      1.0  0.49426  0.57725  0.14184  1.0000
  C   C837      1.0  0.02336  0.54187  0.94794  1.0000
  C   C838      1.0  0.35396  0.58585  0.13561  1.0000
  H   H676      1.0  0.13805  0.65781  0.05134  1.0000
  H   H677      1.0  0.63002  0.59308  0.96273  1.0000
  H   H678      1.0  0.29842  0.58022  0.12845  1.0000
  C   C839      1.0  0.29487  0.60975  0.97805  1.0000
  H   H679      1.0  0.95319  0.57880  0.07384  1.0000
  S   S107      1.0  0.57652  0.54456  0.06835  1.0000
  C   C840      1.0  0.38646  0.62345  0.02682  1.0000
  C   C841      1.0  0.65519  0.69239  0.03326  1.0000
  C   C842      1.0  0.10476  0.56840  0.97174  1.0000
  C   C843      1.0  0.99215  0.61698  0.03977  1.0000
  C   C844      1.0  0.09581  0.62027  0.08568  1.0000
  H   H680      1.0  0.20941  0.63083  0.00491  1.0000
  H   H681      1.0  0.83563  0.68693  0.97171  1.0000
  P   P30       1.0  0.58991  0.60906  0.16665  1.0000
  C   C845      1.0  0.44315  0.54950  0.00147  1.0000
  H   H682      1.0  0.84579  0.63641  0.06770  1.0000
  H   H683      1.0  0.51011  0.61605  0.98231  1.0000
  H   H684      1.0  0.04275  0.58202  0.11440  1.0000
  C   C846      1.0  0.36659  0.76769  0.16684  1.0000
  C   C847      1.0  0.50950  0.59392  0.98453  1.0000
  H   H685      1.0  0.85717  0.64421  0.12174  1.0000
  H   H686      1.0  0.74211  0.57676  0.17209  1.0000
  H   H687      1.0  0.66257  0.53038  0.12465  1.0000
  C   C848      1.0  0.72453  0.62267  0.07913  1.0000
  C   C849      1.0  0.06429  0.71923  0.18859  1.0000
  H   H688      1.0  0.60873  0.60684  0.09780  1.0000
  H   H689      1.0  0.98066  0.57695  0.96567  1.0000
  C   C850      1.0  0.33688  0.55162  0.06815  1.0000
  C   C851      1.0  0.37459  0.65152  0.01040  1.0000
  C   C852      1.0  0.80182  0.63688  0.11634  1.0000
  H   H690      1.0  0.07055  0.69873  0.14997  1.0000
  C   C853      1.0  0.66744  0.61985  0.13401  1.0000
  C   C854      1.0  0.99241  0.59627  0.06884  1.0000
  H   H691      1.0  0.85739  0.68787  0.02705  1.0000
  H   H692      1.0  0.31540  0.76030  0.15838  1.0000
  C   C855      1.0  0.16241  0.52900  0.95320  1.0000
  C   C856      1.0  0.78460  0.68863  0.98858  1.0000
  H   H693      1.0  0.86189  0.60610  0.95064  1.0000
  H   H694      1.0  0.55936  0.70806  0.16775  1.0000
  C   C857      1.0  0.35672  0.60942  0.14740  1.0000
  H   H695      1.0  0.74267  0.69192  0.06654  1.0000
  S   S108      1.0  0.15817  0.62292  0.11490  1.0000
  C   C858      1.0  0.57216  0.63704  0.18630  1.0000
  C   C859      1.0  0.17031  0.55130  0.96710  1.0000
  C   C860      1.0  0.39997  0.67290  0.02249  1.0000
  H   H696      1.0  0.63285  0.54207  0.96941  1.0000
  H   H697      1.0  0.34614  0.65720  0.98822  1.0000
  H   H698      1.0  0.48532  0.63379  0.08782  1.0000
  C   C861      1.0  0.62052  0.57730  0.19433  1.0000
  C   C862      1.0  0.57774  0.58095  0.97358  1.0000
  C   C863      1.0  0.22753  0.62657  0.98174  1.0000
  C   C864      1.0  0.66107  0.61590  0.10321  1.0000
  C   C865      1.0  0.57486  0.66481  0.16759  1.0000
  C   C866      1.0  0.73265  0.69152  0.04217  1.0000
  C   C867      1.0  0.57937  0.55219  0.97727  1.0000
  H   H699      1.0  0.10701  0.54871  0.07218  1.0000
  C   C868      1.0  0.43880  0.66651  0.05068  1.0000
  H   H700      1.0  0.64915  0.75610  0.17743  1.0000
  H   H701      1.0  0.38883  0.69442  0.01009  1.0000
  H   H702      1.0  0.42840  0.63521  0.16568  1.0000
  S   S109      1.0  0.79622  0.56057  0.07836  1.0000
  H   H703      1.0  0.44258  0.59600  0.06638  1.0000
  C   C869      1.0  0.41321  0.74916  0.18793  1.0000
  P   P31       1.0  0.35292  0.59541  0.01190  1.0000
  C   C870      1.0  0.31800  0.60519  0.94751  1.0000
  C   C871      1.0  0.04324  0.59812  0.09195  1.0000
  C   C872      1.0  0.79547  0.63248  0.08594  1.0000
  C   C873      1.0  0.70697  0.69014  0.97913  1.0000
  C   C874      1.0  0.10641  0.76741  0.14012  1.0000
  H   H704      1.0  0.39160  0.53698  0.01189  1.0000
  C   C875      1.0  0.64221  0.69166  0.00188  1.0000
  C   C876      1.0  0.17134  0.54964  0.07101  1.0000
  C   C877      1.0  0.09261  0.76851  0.17234  1.0000
  H   H705      1.0  0.54688  0.56444  0.13972  1.0000
  H   H706      1.0  0.76459  0.63743  0.97027  1.0000
  H   H707      1.0  0.58178  0.69221  0.99562  1.0000
  C   C878      1.0  0.21325  0.56938  0.04626  1.0000
  C   C879      1.0  0.21185  0.53123  0.09456  1.0000
  H   H708      1.0  0.50700  0.76561  0.95622  1.0000
  H   H709      1.0  0.10993  0.58525  0.98296  1.0000
  C   C880      1.0  0.18348  0.63822  0.95555  1.0000
  H   H710      1.0  0.59033  0.66956  0.14171  1.0000
  C   C881      1.0  0.44154  0.57831  0.99849  1.0000
  C   C882      1.0  0.79728  0.68934  0.01994  1.0000
  C   C883      1.0  0.09924  0.74220  0.13208  1.0000
  C   C884      1.0  0.04490  0.63917  0.03341  1.0000
  C   C885      1.0  0.09751  0.64060  0.05618  1.0000
  Fe  Fe53      1.0  0.86169  0.57462  0.02906  1.0000
  C   C886      1.0  0.29458  0.53212  0.09308  1.0000
  C   C887      1.0  0.49778  0.60098  0.15345  1.0000
  H   H711      1.0  0.60529  0.69352  0.05077  1.0000
  C   C888      1.0  0.42824  0.61700  0.15637  1.0000
  H   H712      1.0  0.04474  0.65530  0.01104  1.0000
  C   C889      1.0  0.45419  0.63876  0.06628  1.0000
  C   C890      1.0  0.29672  0.57059  0.04446  1.0000
  S   S110      1.0  0.76751  0.56019  0.00409  1.0000
  S   S111      1.0  0.96408  0.59729  0.17322  1.0000
  Fe  Fe54      1.0  0.09380  0.60810  0.16451  1.0000
  C   C891      1.0  0.73777  0.63092  0.14018  1.0000
  C   C892      1.0  0.42866  0.61732  0.05431  1.0000
  Fe  Fe55      1.0  0.86304  0.52044  0.08158  1.0000
  S   S112      1.0  0.93445  0.53553  0.03397  1.0000
  H   H713      1.0  0.72022  0.61917  0.05552  1.0000
  C   C893      1.0  0.07755  0.71819  0.15627  1.0000
  H   H714      1.0  0.30304  0.62181  0.14949  1.0000
  C   C894      1.0  0.51244  0.53644  0.99154  1.0000
  H   H715      1.0  0.42150  0.55158  0.12368  1.0000
  C   C895      1.0  0.42283  0.56979  0.13290  1.0000
  C   C896      1.0  0.69822  0.56653  0.19112  1.0000
  Fe  Fe56      1.0  0.70764  0.54305  0.05408  1.0000
  C   C897      1.0  0.78758  0.64291  0.94502  1.0000
  H   H716      1.0  0.23977  0.52485  0.19111  1.0000
  H   H717      1.0  0.59629  0.82622  0.35341  1.0000
  C   C898      1.0  0.33714  0.91629  0.30877  1.0000
  H   H718      1.0  0.82687  0.88070  0.33520  1.0000
  H   H719      1.0  0.19387  0.93857  0.39655  1.0000
  C   C899      1.0  0.54696  0.83795  0.36164  1.0000
  C   C900      1.0  0.51140  0.00164  0.39882  1.0000
  H   H720      1.0  0.73741  0.81569  0.33415  1.0000
  C   C901      1.0  0.92831  0.96844  0.35040  1.0000
  H   H721      1.0  0.49222  0.87649  0.25566  1.0000
  H   H722      1.0  0.94353  0.94356  0.39850  1.0000
  C   C902      1.0  0.16749  0.83356  0.25366  1.0000
  Fe  Fe57      1.0  0.66694  0.97235  0.23508  1.0000
  C   C903      1.0  0.85783  0.81329  0.24052  1.0000
  C   C904      1.0  0.29856  0.85084  0.23165  1.0000
  H   H723      1.0  0.91045  0.82029  0.28121  1.0000
  H   H724      1.0  0.48329  0.78231  0.44028  1.0000
  C   C905      1.0  0.49964  0.79661  0.26668  1.0000
  C   C906      1.0  0.76352  0.79505  0.33878  1.0000
  C   C907      1.0  0.47144  0.82611  0.36908  1.0000
  H   H725      1.0  0.33180  0.99646  0.27478  1.0000
  H   H726      1.0  0.60571  0.86998  0.29835  1.0000
  C   C908      1.0  0.53436  0.81421  0.23798  1.0000
  C   C909      1.0  0.91419  0.80872  0.26296  1.0000
  H   H727      1.0  0.80995  0.82808  0.24171  1.0000
  H   H728      1.0  0.95845  0.89957  0.32443  1.0000
  H   H729      1.0  0.67736  0.87201  0.24514  1.0000
  C   C910      1.0  0.79997  0.83122  0.42407  1.0000
  S   S113      1.0  0.03650  0.83933  0.33306  1.0000
  S   S114      1.0  0.16227  0.85326  0.38097  1.0000
  C   C911      1.0  0.94904  0.91871  0.33178  1.0000
  C   C912      1.0  0.20023  0.92532  0.21635  1.0000
  H   H730      1.0  0.26304  0.92084  0.21181  1.0000
  H   H731      1.0  0.79018  0.83749  0.37352  1.0000
  C   C913      1.0  0.06379  0.91137  0.21888  1.0000
  C   C914      1.0  0.65815  0.91588  0.35013  1.0000
  C   C915      1.0  0.79257  0.87663  0.26023  1.0000
  H   H732      1.0  0.46276  0.80545  0.36620  1.0000
  H   H733      1.0  0.08002  0.94279  0.43600  1.0000
  C   C916      1.0  0.14806  0.00304  0.26664  1.0000
  C   C917      1.0  0.72118  0.95828  0.35233  1.0000
  H   H734      1.0  0.02114  0.89670  0.21602  1.0000
  H   H735      1.0  0.32858  0.78322  0.22766  1.0000
  H   H736      1.0  0.66758  0.78377  0.26350  1.0000
  H   H737      1.0  0.40547  0.92437  0.34471  1.0000
  C   C918      1.0  0.20004  0.00428  0.23865  1.0000
  C   C919      1.0  0.40709  0.84111  0.37956  1.0000
  H   H738      1.0  0.69586  0.00367  0.41565  1.0000
  C   C920      1.0  0.40889  0.95802  0.43164  1.0000
  H   H739      1.0  0.42151  0.94547  0.38725  1.0000
  C   C921      1.0  0.43761  0.96060  0.39942  1.0000
  S   S115      1.0  0.26000  0.84992  0.29506  1.0000
  Fe  Fe58      1.0  0.03499  0.79584  0.36541  1.0000
  C   C922      1.0  0.37169  0.96228  0.31155  1.0000
  C   C923      1.0  0.54009  0.93259  0.22293  1.0000
  H   H740      1.0  0.84902  0.81660  0.42424  1.0000
  C   C924      1.0  0.46695  0.92687  0.21369  1.0000
  C   C925      1.0  0.46329  0.80787  0.29126  1.0000
  H   H741      1.0  0.92633  0.94347  0.28426  1.0000
  H   H742      1.0  0.66695  0.92669  0.21641  1.0000
  C   C926      1.0  0.71035  0.87275  0.26518  1.0000
  C   C927      1.0  0.92276  0.77847  0.21632  1.0000
  H   H743      1.0  0.09623  0.82290  0.21969  1.0000
  C   C928      1.0  0.83471  0.87852  0.28584  1.0000
  C   C929      1.0  0.29763  0.92799  0.28133  1.0000
  S   S116      1.0  0.54561  0.95370  0.24946  1.0000
  H   H744      1.0  0.40152  0.97547  0.32300  1.0000
  H   H745      1.0  0.50881  0.98455  0.35805  1.0000
  C   C930      1.0  0.15916  0.00721  0.42382  1.0000
  C   C931      1.0  0.22552  0.00416  0.40245  1.0000
  C   C932      1.0  0.71159  0.87364  0.32134  1.0000
  H   H746      1.0  0.59167  0.93230  0.41248  1.0000
  P   P32       1.0  0.24769  0.97279  0.23218  1.0000
  H   H747      1.0  0.76225  0.91724  0.37535  1.0000
  C   C933      1.0  0.14488  0.90673  0.21233  1.0000
  Fe  Fe59      1.0  0.16805  0.83617  0.33720  1.0000
  S   S117      1.0  0.16675  0.79195  0.36700  1.0000
  C   C934      1.0  0.64850  0.77196  0.21979  1.0000
  C   C935      1.0  0.84338  0.79089  0.34534  1.0000
  H   H748      1.0  0.36891  0.87907  0.39199  1.0000
  C   C936      1.0  0.60915  0.93244  0.43597  1.0000
  S   S118      1.0  0.61652  0.77756  0.33219  1.0000
  C   C937      1.0  0.37422  0.93343  0.32379  1.0000
  H   H749      1.0  0.49760  0.01475  0.44303  1.0000
  H   H750      1.0  0.56880  0.97330  0.30467  1.0000
  C   C938      1.0  0.11994  0.96012  0.42641  1.0000
  H   H751      1.0  0.66889  0.99662  0.32650  1.0000
  C   C939      1.0  0.97501  0.78898  0.26217  1.0000
  C   C940      1.0  0.09249  0.95441  0.23150  1.0000
  H   H752      1.0  0.43148  0.84542  0.30595  1.0000
  H   H753      1.0  0.06972  0.97288  0.23823  1.0000
  C   C941      1.0  0.95055  0.91850  0.36431  1.0000
  C   C942      1.0  0.53033  0.84313  0.23395  1.0000
  H   H754      1.0  0.93394  0.99319  0.44385  1.0000
  C   C943      1.0  0.98031  0.77388  0.23856  1.0000
  H   H755      1.0  0.50336  0.89939  0.38101  1.0000
  C   C944      1.0  0.66662  0.97414  0.33266  1.0000
  C   C945      1.0  0.71760  0.92920  0.36094  1.0000
  C   C946      1.0  0.55894  0.86472  0.36494  1.0000
  C   C947      1.0  0.60535  0.93196  0.32935  1.0000
  C   C948      1.0  0.76662  0.84331  0.39514  1.0000
  C   C949      1.0  0.75867  0.00795  0.41058  1.0000
  S   S119      1.0  0.89023  0.99946  0.29163  1.0000
  C   C950      1.0  0.86259  0.79839  0.21700  1.0000
  C   C951      1.0  0.49557  0.85420  0.25885  1.0000
  H   H756      1.0  0.97429  0.93946  0.23160  1.0000
  C   C952      1.0  0.18413  0.95772  0.40408  1.0000
  H   H757      1.0  0.01699  0.78564  0.28016  1.0000
  H   H758      1.0  0.33938  0.89384  0.31812  1.0000
  C   C953      1.0  0.33219  0.97406  0.28413  1.0000
  H   H759      1.0  0.62091  0.88209  0.42368  1.0000
  C   C954      1.0  0.17470  0.94927  0.22631  1.0000
  H   H760      1.0  0.40935  0.99527  0.22398  1.0000
  H   H761      1.0  0.56247  0.92211  0.31893  1.0000
  Fe  Fe60      1.0  0.82180  0.99130  0.25290  1.0000
  C   C955      1.0  0.23709  0.97969  0.39223  1.0000
  H   H762      1.0  0.71329  0.95625  0.41618  1.0000
  C   C956      1.0  0.93135  0.94358  0.30901  1.0000
  C   C957      1.0  0.29491  0.95704  0.26865  1.0000
  H   H763      1.0  0.55236  0.85726  0.21143  1.0000
  H   H764      1.0  0.76683  0.96867  0.36053  1.0000
  H   H765      1.0  0.92051  0.98754  0.35760  1.0000
  C   C958      1.0  0.66987  0.87139  0.29555  1.0000
  C   C959      1.0  0.03754  0.93543  0.22791  1.0000
  C   C960      1.0  0.94126  0.94349  0.37350  1.0000
  C   C961      1.0  0.91973  0.96844  0.31848  1.0000
  H   H766      1.0  0.43636  0.79435  0.31338  1.0000
  C   C962      1.0  0.46149  0.83662  0.28736  1.0000
  S   S120      1.0  0.95733  0.88722  0.39437  1.0000
  C   C963      1.0  0.81163  0.99527  0.43322  1.0000
  S   S121      1.0  0.01603  0.80999  0.41082  1.0000
  S   S122      1.0  0.70665  0.01362  0.23925  1.0000
  H   H767      1.0  0.13523  0.98324  0.28405  1.0000
  H   H768      1.0  0.69842  0.83718  0.21256  1.0000
  C   C964      1.0  0.15313  0.83025  0.22316  1.0000
  C   C965      1.0  0.41881  0.86765  0.38343  1.0000
  C   C966      1.0  0.79424  0.87740  0.31617  1.0000
  H   H769      1.0  0.41233  0.93233  0.22601  1.0000
  C   C967      1.0  0.48084  0.99976  0.43077  1.0000
  C   C968      1.0  0.24018  0.84419  0.25784  1.0000
  S   S123      1.0  0.77687  0.94954  0.25293  1.0000
  C   C969      1.0  0.70385  0.86266  0.39451  1.0000
  H   H770      1.0  0.27008  0.91405  0.27028  1.0000
  P   P33       1.0  0.57851  0.79978  0.20582  1.0000
  H   H771      1.0  0.82344  0.87893  0.23633  1.0000
  C   C970      1.0  0.67727  0.94662  0.43805  1.0000
  C   C971      1.0  0.28504  0.84692  0.20157  1.0000
  P   P34       1.0  0.65806  0.87856  0.35794  1.0000
  C   C972      1.0  0.67217  0.86848  0.42351  1.0000
  H   H772      1.0  0.32908  0.78229  0.41284  1.0000
  H   H773      1.0  0.35417  0.85945  0.23441  1.0000
  H   H774      1.0  0.89824  0.88207  0.28178  1.0000
  H   H775      1.0  0.87890  0.80831  0.34592  1.0000
  C   C973      1.0  0.10802  0.98461  0.43659  1.0000
  H   H776      1.0  0.16483  0.88876  0.20393  1.0000
  C   C974      1.0  0.61037  0.92393  0.20816  1.0000
  C   C975      1.0  0.60953  0.96098  0.32078  1.0000
  C   C976      1.0  0.89237  0.00214  0.42654  1.0000
  H   H777      1.0  0.12212  0.82822  0.27372  1.0000
  Fe  Fe61      1.0  0.14822  0.80907  0.41029  1.0000
  H   H778      1.0  0.34814  0.83220  0.38470  1.0000
  C   C977      1.0  0.49480  0.87923  0.37677  1.0000
  C   C978      1.0  0.48793  0.98245  0.38304  1.0000
  Fe  Fe62      1.0  0.03017  0.85331  0.37898  1.0000
  H   H779      1.0  0.28790  0.97751  0.37555  1.0000
  H   H780      1.0  0.50047  0.77426  0.27004  1.0000
  C   C979      1.0  0.71725  0.77244  0.33847  1.0000
  C   C980      1.0  0.68288  0.77197  0.42818  1.0000
  C   C981      1.0  0.27760  0.77243  0.27685  1.0000
  H   H781      1.0  0.32782  0.77968  0.28587  1.0000
  C   C982      1.0  0.27793  0.77431  0.24398  1.0000
  H   H782      1.0  0.72838  0.77020  0.40908  1.0000
  C   C983      1.0  0.60358  0.77652  0.42151  1.0000
  H   H783      1.0  0.58763  0.77799  0.39739  1.0000
  C   C984      1.0  0.21182  0.83717  0.19698  1.0000
  C   C985      1.0  0.39730  0.99108  0.20153  1.0000
  H   H784      1.0  0.81864  0.80172  0.19973  1.0000
  Fe  Fe63      1.0  0.82477  0.95992  0.20076  1.0000
  S   S124      1.0  0.87876  0.00010  0.20206  1.0000
  C   C986      1.0  0.32375  0.98035  0.19825  1.0000
  C   C987      1.0  0.56271  0.91899  0.46404  1.0000
  H   H785      1.0  0.00563  0.79951  0.61554  1.0000
  C   C988      1.0  0.52908  0.78366  0.54384  1.0000
  C   C989      1.0  0.34021  0.80667  0.50105  1.0000
  C   C990      1.0  0.80718  0.78377  0.67056  1.0000
  H   H786      1.0  0.61543  0.79371  0.62051  1.0000
  H   H787      1.0  0.95238  0.97462  0.67502  1.0000
  H   H788      1.0  0.82289  0.89641  0.62752  1.0000
  C   C991      1.0  0.65064  0.93482  0.49627  1.0000
  H   H789      1.0  0.54770  0.90963  0.51602  1.0000
  P   P35       1.0  0.48684  0.77841  0.50891  1.0000
  H   H790      1.0  0.91811  0.84601  0.67880  1.0000
  C   C992      1.0  0.94989  0.79494  0.63068  1.0000
  C   C993      1.0  0.24827  0.84712  0.64117  1.0000
  Fe  Fe64      1.0  0.23461  0.88642  0.56716  1.0000
  H   H791      1.0  0.43566  0.78509  0.63220  1.0000
  C   C994      1.0  0.00665  0.93524  0.67265  1.0000
  C   C995      1.0  0.80140  0.88785  0.60928  1.0000
  C   C996      1.0  0.35414  0.80270  0.59755  1.0000
  H   H792      1.0  0.94574  0.01369  0.60111  1.0000
  C   C997      1.0  0.77055  0.83816  0.45258  1.0000
  H   H793      1.0  0.06000  0.98553  0.45481  1.0000
  S   S125      1.0  0.35064  0.87916  0.53995  1.0000
  H   H794      1.0  0.24993  0.77953  0.68945  1.0000
  C   C998      1.0  0.46702  0.90150  0.64612  1.0000
  Fe  Fe65      1.0  0.79068  0.98490  0.64114  1.0000
  C   C999      1.0  0.53077  0.90307  0.62225  1.0000
  C   C1000     1.0  0.69688  0.94894  0.46807  1.0000
  H   H795      1.0  0.28867  0.87268  0.46183  1.0000
  H   H796      1.0  0.17216  0.77755  0.59446  1.0000
  C   C1001     1.0  0.73610  0.98942  0.49973  1.0000
  H   H797      1.0  0.91587  0.83795  0.62243  1.0000
  C   C1002     1.0  0.65994  0.82902  0.67432  1.0000
  C   C1003     1.0  0.51734  0.83061  0.66993  1.0000
  C   C1004     1.0  0.10846  0.84139  0.65963  1.0000
  H   H798      1.0  0.60351  0.84880  0.63105  1.0000
  H   H799      1.0  0.21880  0.99823  0.48511  1.0000
  C   C1005     1.0  0.00555  0.96171  0.67815  1.0000
  H   H800      1.0  0.52018  0.83412  0.46704  1.0000
  H   H801      1.0  0.69650  0.98005  0.58094  1.0000
  H   H802      1.0  0.65229  0.91532  0.60750  1.0000
  C   C1006     1.0  0.29229  0.83008  0.48995  1.0000
  S   S126      1.0  0.20695  0.92577  0.53000  1.0000
  C   C1007     1.0  0.58411  0.91983  0.49421  1.0000
  C   C1008     1.0  0.97859  0.93716  0.51304  1.0000
  C   C1009     1.0  0.08716  0.95361  0.58760  1.0000
  H   H803      1.0  0.50936  0.90834  0.46246  1.0000
  S   S127      1.0  0.52176  0.89087  0.58804  1.0000
  C   C1010     1.0  0.32620  0.85467  0.47065  1.0000
  H   H804      1.0  0.26112  0.95297  0.64091  1.0000
  S   S128      1.0  0.39013  0.94467  0.53356  1.0000
  H   H805      1.0  0.04926  0.90202  0.50533  1.0000
  S   S129      1.0  0.66054  0.99331  0.64051  1.0000
  C   C1011     1.0  0.91141  0.95393  0.50508  1.0000
  C   C1012     1.0  0.56617  0.81405  0.57591  1.0000
  C   C1013     1.0  0.12531  0.84125  0.69105  1.0000
  C   C1014     1.0  0.31258  0.96311  0.64541  1.0000
  Fe  Fe66      1.0  0.32849  0.92085  0.50580  1.0000
  H   H806      1.0  0.56899  0.83480  0.57948  1.0000
  H   H807      1.0  0.26058  0.81661  0.56643  1.0000
  C   C1015     1.0  0.38042  0.98660  0.67754  1.0000
  H   H808      1.0  0.98160  0.92912  0.59506  1.0000
  H   H809      1.0  0.41143  0.89257  0.64375  1.0000
  H   H810      1.0  0.76863  0.95814  0.54191  1.0000
  S   S130      1.0  0.78115  0.95918  0.69226  1.0000
  C   C1016     1.0  0.42296  0.80785  0.49330  1.0000
  C   C1017     1.0  0.16965  0.84561  0.63438  1.0000
  H   H811      1.0  0.31161  0.78774  0.51505  1.0000
  C   C1018     1.0  0.94892  0.90976  0.47682  1.0000
  C   C1019     1.0  0.45661  0.83267  0.47365  1.0000
  C   C1020     1.0  0.56467  0.77675  0.47737  1.0000
  H   H812      1.0  0.48008  0.77135  0.68211  1.0000
  C   C1021     1.0  0.31315  0.97272  0.67331  1.0000
  C   C1022     1.0  0.79463  0.85873  0.68472  1.0000
  P   P36       1.0  0.77762  0.97076  0.47087  1.0000
  C   C1023     1.0  0.07329  0.97175  0.68723  1.0000
  C   C1024     1.0  0.81321  0.90290  0.57695  1.0000
  H   H813      1.0  0.89903  0.97126  0.51572  1.0000
  S   S131      1.0  0.85226  0.96555  0.60385  1.0000
  C   C1025     1.0  0.69092  0.01386  0.48933  1.0000
  C   C1026     1.0  0.69549  0.98984  0.55543  1.0000
  C   C1027     1.0  0.86130  0.94828  0.48350  1.0000
  H   H814      1.0  0.32545  0.85015  0.67692  1.0000
  H   H815      1.0  0.51470  0.82872  0.53112  1.0000
  C   C1028     1.0  0.40832  0.85598  0.46260  1.0000
  H   H816      1.0  0.12617  0.93647  0.58517  1.0000
  H   H817      1.0  0.22830  0.82894  0.49560  1.0000
  C   C1029     1.0  0.95442  0.97097  0.59853  1.0000
  C   C1030     1.0  0.98533  0.99688  0.59765  1.0000
  C   C1031     1.0  0.76390  0.86194  0.61748  1.0000
  S   S132      1.0  0.14790  0.85298  0.59390  1.0000
  C   C1032     1.0  0.06717  0.00152  0.58984  1.0000
  C   C1033     1.0  0.37879  0.78260  0.62419  1.0000
  C   C1034     1.0  0.65120  0.01420  0.54496  1.0000
  C   C1035     1.0  0.24894  0.01783  0.48111  1.0000
  H   H818      1.0  0.29608  0.84957  0.62200  1.0000
  C   C1036     1.0  0.11793  0.97989  0.58464  1.0000
  C   C1037     1.0  0.53509  0.81048  0.54836  1.0000
  C   C1038     1.0  0.54682  0.92331  0.67634  1.0000
  C   C1039     1.0  0.73954  0.85128  0.59287  1.0000
  H   H819      1.0  0.84420  0.92246  0.57083  1.0000
  H   H820      1.0  0.04782  0.83998  0.65447  1.0000
  H   H821      1.0  0.33027  0.00041  0.51669  1.0000
  H   H822      1.0  0.09041  0.77055  0.67516  1.0000
  H   H823      1.0  0.40525  0.97683  0.47149  1.0000
  C   C1040     1.0  0.28024  0.80063  0.58665  1.0000
  C   C1041     1.0  0.59213  0.79097  0.59900  1.0000
  C   C1042     1.0  0.26500  0.84737  0.67227  1.0000
  C   C1043     1.0  0.99700  0.91495  0.49915  1.0000
  Fe  Fe67      1.0  0.40373  0.90366  0.56928  1.0000
  C   C1044     1.0  0.74882  0.86685  0.56070  1.0000
  C   C1045     1.0  0.14269  0.95520  0.69114  1.0000
  C   C1046     1.0  0.78587  0.89261  0.55277  1.0000
  C   C1047     1.0  0.60305  0.91403  0.62592  1.0000
  C   C1048     1.0  0.64449  0.77202  0.48403  1.0000
  C   C1049     1.0  0.44691  0.97964  0.62768  1.0000
  C   C1050     1.0  0.73766  0.97753  0.53301  1.0000
  H   H824      1.0  0.68235  0.86188  0.47445  1.0000
  S   S133      1.0  0.28960  0.90885  0.59838  1.0000
  H   H825      1.0  0.79775  0.82916  0.47474  1.0000
  H   H826      1.0  0.01680  0.94147  0.52988  1.0000
  C   C1051     1.0  0.00528  0.94935  0.59364  1.0000
  C   C1052     1.0  0.87528  0.85815  0.68991  1.0000
  H   H827      1.0  0.19571  0.91514  0.68932  1.0000
  H   H828      1.0  0.79396  0.90439  0.52786  1.0000
  H   H829      1.0  0.49934  0.98155  0.61055  1.0000
  C   C1053     1.0  0.47532  0.91134  0.67337  1.0000
  H   H830      1.0  0.71440  0.83076  0.59861  1.0000
  P   P37       1.0  0.76002  0.84005  0.65814  1.0000
  H   H831      1.0  0.66431  0.93569  0.51998  1.0000
  C   C1054     1.0  0.37947  0.96653  0.62277  1.0000
  S   S134      1.0  0.19548  0.78825  0.45772  1.0000
  S   S135      1.0  0.21888  0.98598  0.57245  1.0000
  H   H832      1.0  0.46757  0.83748  0.65561  1.0000
  Fe  Fe68      1.0  0.65151  0.97003  0.69253  1.0000
  C   C1055     1.0  0.89874  0.81678  0.63477  1.0000
  C   C1056     1.0  0.44680  0.99000  0.65489  1.0000
  C   C1057     1.0  0.88169  0.92647  0.46883  1.0000
  H   H833      1.0  0.72841  0.85881  0.54187  1.0000
  H   H834      1.0  0.37928  0.95875  0.60152  1.0000
  C   C1058     1.0  0.82658  0.81138  0.65460  1.0000
  Fe  Fe69      1.0  0.26993  0.94746  0.55981  1.0000
  H   H835      1.0  0.96442  0.89306  0.46521  1.0000
  H   H836      1.0  0.39121  0.82044  0.58585  1.0000
  C   C1059     1.0  0.61102  0.92423  0.65283  1.0000
  C   C1060     1.0  0.59501  0.83687  0.65589  1.0000
  H   H837      1.0  0.66715  0.93275  0.65534  1.0000
  C   C1061     1.0  0.14311  0.92844  0.68601  1.0000
  H   H838      1.0  0.95438  0.92779  0.66498  1.0000
  H   H839      1.0  0.07709  0.89839  0.67148  1.0000
  C   C1062     1.0  0.07561  0.91870  0.67634  1.0000
  H   H840      1.0  0.95965  0.01060  0.53529  1.0000
  C   C1063     1.0  0.31264  0.01883  0.49907  1.0000
  C   C1064     1.0  0.70600  0.85662  0.45237  1.0000
  H   H841      1.0  0.75377  0.77896  0.68683  1.0000
  H   H842      1.0  0.42557  0.91043  0.69154  1.0000
  H   H843      1.0  0.07077  0.99227  0.69140  1.0000
  C   C1065     1.0  0.23037  0.77857  0.60254  1.0000
  H   H844      1.0  0.09000  0.01264  0.50376  1.0000
  H   H845      1.0  0.49853  0.00028  0.65890  1.0000
  H   H846      1.0  0.43410  0.87513  0.44760  1.0000
  S   S136      1.0  0.35002  0.92909  0.45172  1.0000
  C   C1066     1.0  0.42916  0.97801  0.44709  1.0000
  C   C1067     1.0  0.54466  0.77899  0.44590  1.0000
  H   H847      1.0  0.84618  0.92247  0.45093  1.0000
  H   H848      1.0  0.66163  0.77011  0.50805  1.0000
  H   H849      1.0  0.77546  0.94975  0.93771  1.0000
  H   H850      1.0  0.68557  0.79281  0.79258  1.0000
  C   C1068     1.0  0.90283  0.95053  0.76697  1.0000
  H   H851      1.0  0.39038  0.78865  0.84892  1.0000
  H   H852      1.0  0.41537  0.85429  0.73495  1.0000
  C   C1069     1.0  0.34920  0.77185  0.85301  1.0000
  H   H853      1.0  0.33501  0.83507  0.78681  1.0000
  C   C1070     1.0  0.43858  0.85436  0.75751  1.0000
  H   H854      1.0  0.72465  0.90136  0.73217  1.0000
  C   C1071     1.0  0.51295  0.86574  0.75733  1.0000
  H   H855      1.0  0.25948  0.88734  0.90457  1.0000
  C   C1072     1.0  0.83143  0.90998  0.93804  1.0000
  C   C1073     1.0  0.90157  0.87344  0.70973  1.0000
  H   H856      1.0  0.92504  0.79509  0.74817  1.0000
  C   C1074     1.0  0.51812  0.83263  0.88529  1.0000
  H   H857      1.0  0.69468  0.81010  0.72198  1.0000
  C   C1075     1.0  0.56078  0.94534  0.94085  1.0000
  C   C1076     1.0  0.44715  0.91618  0.84780  1.0000
  H   H858      1.0  0.86665  0.94673  0.74936  1.0000
  C   C1077     1.0  0.61570  0.94384  0.77818  1.0000
  S   S137      1.0  0.66352  0.00853  0.70955  1.0000
  C   C1078     1.0  0.25170  0.77598  0.74011  1.0000
  H   H859      1.0  0.82028  0.91089  0.91346  1.0000
  H   H860      1.0  0.96399  0.87313  0.71326  1.0000
  H   H861      1.0  0.91392  0.90722  0.79183  1.0000
  C   C1079     1.0  0.35324  0.91635  0.77436  1.0000
  H   H862      1.0  0.41480  0.91094  0.77819  1.0000
  C   C1080     1.0  0.73452  0.77981  0.87248  1.0000
  C   C1081     1.0  0.74067  0.87473  0.69976  1.0000
  C   C1082     1.0  0.51083  0.78426  0.93645  1.0000
  C   C1083     1.0  0.39290  0.84377  0.78677  1.0000
  C   C1084     1.0  0.70634  0.97322  0.79382  1.0000
  C   C1085     1.0  0.38564  0.93436  0.85381  1.0000
  H   H863      1.0  0.38214  0.83835  0.83805  1.0000
  C   C1086     1.0  0.63117  0.89893  0.86557  1.0000
  H   H864      1.0  0.44344  0.81203  0.71360  1.0000
  H   H865      1.0  0.84995  0.97533  0.88416  1.0000
  C   C1087     1.0  0.70759  0.90895  0.86476  1.0000
  C   C1088     1.0  0.76684  0.88938  0.72031  1.0000
  C   C1089     1.0  0.50377  0.81659  0.70261  1.0000
  S   S138      1.0  0.01715  0.86869  0.77457  1.0000
  H   H866      1.0  0.58271  0.90739  0.87858  1.0000
  H   H867      1.0  0.13216  0.93370  0.75958  1.0000
  C   C1090     1.0  0.04116  0.96541  0.90157  1.0000
  C   C1091     1.0  0.69152  0.94876  0.78534  1.0000
  C   C1092     1.0  0.51805  0.80636  0.87897  1.0000
  H   H868      1.0  0.39029  0.95646  0.84246  1.0000
  C   C1093     1.0  0.56801  0.80875  0.72122  1.0000
  H   H869      1.0  0.24670  0.79749  0.85952  1.0000
  C   C1094     1.0  0.49396  0.85750  0.81585  1.0000
  H   H870      1.0  0.44327  0.00330  0.89301  1.0000
  H   H871      1.0  0.21109  0.79327  0.74002  1.0000
  H   H872      1.0  0.86796  0.90025  0.74096  1.0000
  C   C1095     1.0  0.25498  0.94202  0.74008  1.0000
  C   C1096     1.0  0.19430  0.92928  0.76342  1.0000
  S   S139      1.0  0.88329  0.00645  0.73818  1.0000
  H   H873      1.0  0.71624  0.92555  0.87611  1.0000
  Fe  Fe70      1.0  0.94887  0.82938  0.79506  1.0000
  C   C1097     1.0  0.83595  0.99478  0.86728  1.0000
  H   H874      1.0  0.74524  0.80044  0.85660  1.0000
  H   H875      1.0  0.36722  0.85518  0.89401  1.0000
  C   C1098     1.0  0.97857  0.93289  0.81347  1.0000
  Fe  Fe71      1.0  0.79543  0.99938  0.70511  1.0000
  H   H876      1.0  0.11217  0.98476  0.85748  1.0000
  C   C1099     1.0  0.86809  0.78497  0.75469  1.0000
  S   S140      1.0  0.01670  0.90514  0.84292  1.0000
  C   C1100     1.0  0.80745  0.79612  0.77241  1.0000
  H   H877      1.0  0.55769  0.79821  0.74672  1.0000
  S   S141      1.0  0.82267  0.82583  0.78527  1.0000
  H   H878      1.0  0.60493  0.92522  0.77090  1.0000
  C   C1101     1.0  0.44244  0.88759  0.86269  1.0000
  C   C1102     1.0  0.92035  0.97784  0.76652  1.0000
  C   C1103     1.0  0.20664  0.00018  0.71426  1.0000
  H   H879      1.0  0.41128  0.90300  0.93648  1.0000
  C   C1104     1.0  0.61828  0.87782  0.85049  1.0000
  H   H880      1.0  0.07770  0.83927  0.71027  1.0000
  H   H881      1.0  0.52072  0.00256  0.78910  1.0000
  H   H882      1.0  0.49668  0.95994  0.77227  1.0000
  C   C1105     1.0  0.53584  0.01269  0.85367  1.0000
  P   P38       1.0  0.51968  0.86404  0.85299  1.0000
  C   C1106     1.0  0.68409  0.86578  0.83614  1.0000
  H   H883      1.0  0.07821  0.78174  0.72810  1.0000
  S   S142      1.0  0.62350  0.97066  0.91524  1.0000
  H   H884      1.0  0.01659  0.94992  0.89167  1.0000
  S   S143      1.0  0.05494  0.80197  0.78931  1.0000
  C   C1107     1.0  0.51328  0.78230  0.90453  1.0000
  C   C1108     1.0  0.96630  0.98268  0.78974  1.0000
  C   C1109     1.0  0.42015  0.84551  0.81577  1.0000
  H   H885      1.0  0.16928  0.01941  0.87995  1.0000
  H   H886      1.0  0.54809  0.87407  0.73454  1.0000
  H   H887      1.0  0.81123  0.86652  0.82419  1.0000
  C   C1110     1.0  0.26770  0.77689  0.85869  1.0000
  H   H888      1.0  0.14687  0.98162  0.76170  1.0000
  H   H889      1.0  0.50377  0.93811  0.90138  1.0000
  C   C1111     1.0  0.76842  0.99699  0.85046  1.0000
  H   H890      1.0  0.59709  0.87709  0.78530  1.0000
  H   H891      1.0  0.30648  0.88972  0.81994  1.0000
  C   C1112     1.0  0.64557  0.81518  0.70716  1.0000
  C   C1113     1.0  0.31208  0.89544  0.88879  1.0000
  C   C1114     1.0  0.88422  0.01786  0.86288  1.0000
  C   C1115     1.0  0.93106  0.92811  0.79065  1.0000
  C   C1116     1.0  0.77495  0.77053  0.90015  1.0000
  H   H892      1.0  0.97876  0.00380  0.78988  1.0000
  Fe  Fe72      1.0  0.12470  0.84133  0.77361  1.0000
  Fe  Fe73      1.0  0.07593  0.80306  0.83953  1.0000
  C   C1117     1.0  0.99531  0.96027  0.81308  1.0000
  Fe  Fe74      1.0  0.03665  0.86589  0.82586  1.0000
  C   C1118     1.0  0.02007  0.96554  0.93378  1.0000
  C   C1119     1.0  0.64447  0.99244  0.79639  1.0000
  C   C1120     1.0  0.21327  0.91089  0.79228  1.0000
  H   H893      1.0  0.38311  0.94361  0.72790  1.0000
  S   S144      1.0  0.55516  0.93824  0.70857  1.0000
  C   C1121     1.0  0.55453  0.96339  0.77924  1.0000
  C   C1122     1.0  0.12696  0.00478  0.89516  1.0000
  H   H894      1.0  0.67662  0.84856  0.82564  1.0000
  P   P39       1.0  0.22968  0.96750  0.70400  1.0000
  S   S145      1.0  0.96393  0.82754  0.84662  1.0000
  H   H895      1.0  0.76636  0.97724  0.79780  1.0000
  H   H896      1.0  0.73915  0.93383  0.78372  1.0000
  H   H897      1.0  0.27029  0.93800  0.87905  1.0000
  H   H898      1.0  0.55040  0.99093  0.85573  1.0000
  C   C1123     1.0  0.51700  0.83448  0.91735  1.0000
  C   C1124     1.0  0.37381  0.87726  0.88294  1.0000
  C   C1125     1.0  0.73329  0.78343  0.78013  1.0000
  H   H899      1.0  0.83198  0.90482  0.84950  1.0000
  H   H900      1.0  0.73037  0.97914  0.85493  1.0000
  C   C1126     1.0  0.84743  0.88886  0.72515  1.0000
  H   H901      1.0  0.03108  0.96412  0.83074  1.0000
  S   S146      1.0  0.22568  0.84915  0.73449  1.0000
  H   H902      1.0  0.16632  0.90155  0.81036  1.0000
  C   C1127     1.0  0.77248  0.89734  0.84976  1.0000
  C   C1128     1.0  0.09471  0.98503  0.88231  1.0000
  H   H903      1.0  0.52125  0.80429  0.85442  1.0000
  C   C1129     1.0  0.51311  0.81035  0.94284  1.0000
  S   S147      1.0  0.15101  0.84130  0.82360  1.0000
  C   C1130     1.0  0.29251  0.90436  0.79775  1.0000
  H   H904      1.0  0.49860  0.92435  0.83163  1.0000
  C   C1131     1.0  0.76072  0.87574  0.83551  1.0000
  C   C1132     1.0  0.50673  0.93229  0.92723  1.0000
  C   C1133     1.0  0.16683  0.00063  0.74445  1.0000
  C   C1134     1.0  0.56852  0.98750  0.78865  1.0000
  Fe  Fe75      1.0  0.65370  0.00496  0.93705  1.0000
  C   C1135     1.0  0.33471  0.93506  0.74562  1.0000
  C   C1136     1.0  0.10609  0.00511  0.92749  1.0000
  C   C1137     1.0  0.54060  0.86738  0.78635  1.0000
  S   S148      1.0  0.78045  0.01262  0.94272  1.0000
  C   C1138     1.0  0.31813  0.92399  0.87437  1.0000
  H   H905      1.0  0.51805  0.85460  0.92271  1.0000
  H   H906      1.0  0.93529  0.01644  0.87656  1.0000
  H   H907      1.0  0.81717  0.78405  0.90571  1.0000
  H   H908      1.0  0.67831  0.87596  0.69568  1.0000
  H   H909      1.0  0.38240  0.99422  0.69884  1.0000
  C   C1139     1.0  0.20333  0.84546  0.69693  1.0000
  C   C1140     1.0  0.47471  0.01965  0.87477  1.0000
  H   H910      1.0  0.78639  0.87103  0.17310  1.0000
  S   S149      1.0  0.19435  0.96851  0.09093  1.0000
  H   H911      1.0  0.85596  0.01837  0.13416  1.0000
  Fe  Fe76      1.0  0.26758  0.86793  0.12200  1.0000
  H   H912      1.0  0.12274  0.78620  0.12150  1.0000
  H   H913      1.0  0.40834  0.91171  0.17973  1.0000
  C   C1141     1.0  0.12202  0.92587  0.01420  1.0000
  C   C1142     1.0  0.73843  0.86345  0.13180  1.0000
  H   H914      1.0  0.17366  0.91591  0.00458  1.0000
  H   H915      1.0  0.01871  0.84176  0.12804  1.0000
  C   C1143     1.0  0.10410  0.95659  0.11352  1.0000
  C   C1144     1.0  0.25388  0.01320  0.95384  1.0000
  C   C1145     1.0  0.50921  0.91893  0.99441  1.0000
  S   S150      1.0  0.22809  0.89424  0.07539  1.0000
  C   C1146     1.0  0.44742  0.98751  0.14795  1.0000
  P   P40       1.0  0.88768  0.90790  0.04119  1.0000
  H   H916      1.0  0.87607  0.99436  0.09016  1.0000
  H   H917      1.0  0.23630  0.01401  0.11794  1.0000
  H   H918      1.0  0.81253  0.85370  0.05080  1.0000
  C   C1147     1.0  0.56310  0.93831  0.97444  1.0000
  S   S151      1.0  0.53643  0.89737  0.13558  1.0000
  H   H919      1.0  0.05303  0.99760  0.10923  1.0000
  C   C1148     1.0  0.82815  0.93212  0.09071  1.0000
  C   C1149     1.0  0.68361  0.84858  0.12085  1.0000
  H   H920      1.0  0.93932  0.96178  0.04960  1.0000
  H   H921      1.0  0.21982  0.97070  0.95808  1.0000
  H   H922      1.0  0.33130  0.85183  0.18180  1.0000
  S   S152      1.0  0.38019  0.88439  0.00487  1.0000
  C   C1150     1.0  0.04740  0.91352  0.01885  1.0000
  S   S153      1.0  0.71257  0.98059  0.18281  1.0000
  C   C1151     1.0  0.47568  0.01474  0.06076  1.0000
  H   H923      1.0  0.93261  0.98055  0.14596  1.0000
  H   H924      1.0  0.99772  0.88764  0.09089  1.0000
  C   C1152     1.0  0.40115  0.98954  0.97169  1.0000
  C   C1153     1.0  0.37364  0.97788  0.14391  1.0000
  C   C1154     1.0  0.53572  0.90924  0.17051  1.0000
  H   H925      1.0  0.93725  0.80158  0.12709  1.0000
  S   S154      1.0  0.79859  0.99980  0.03338  1.0000
  C   C1155     1.0  0.05282  0.98512  0.94678  1.0000
  H   H926      1.0  0.77544  0.87873  0.11481  1.0000
  Fe  Fe77      1.0  0.73242  0.01884  0.99077  1.0000
  C   C1156     1.0  0.97434  0.84425  0.11087  1.0000
  S   S155      1.0  0.39021  0.86156  0.09954  1.0000
  Fe  Fe78      1.0  0.26967  0.93039  0.09123  1.0000
  C   C1157     1.0  0.38341  0.79605  0.15802  1.0000
  H   H927      1.0  0.09692  0.78827  0.17819  1.0000
  C   C1158     1.0  0.63445  0.82918  0.14303  1.0000
  H   H928      1.0  0.13514  0.99254  0.16164  1.0000
  S   S156      1.0  0.19221  0.83569  0.15802  1.0000
  H   H929      1.0  0.67776  0.85267  0.09522  1.0000
  C   C1159     1.0  0.83086  0.01048  0.08941  1.0000
  S   S157      1.0  0.88244  0.92558  0.18097  1.0000
  H   H930      1.0  0.07156  0.98066  0.04554  1.0000
  C   C1160     1.0  0.68981  0.94460  0.10089  1.0000
  C   C1161     1.0  0.02132  0.91847  0.14548  1.0000
  H   H931      1.0  0.18936  0.95879  0.02270  1.0000
  S   S158      1.0  0.60767  0.00788  0.98683  1.0000
  C   C1162     1.0  0.97652  0.96599  0.14016  1.0000
  H   H932      1.0  0.51056  0.91370  0.02035  1.0000
  H   H933      1.0  0.61010  0.93570  0.06912  1.0000
  H   H934      1.0  0.51724  0.00073  0.18025  1.0000
  H   H935      1.0  0.25645  0.96613  0.16518  1.0000
  H   H936      1.0  0.80535  0.94868  0.99287  1.0000
  C   C1163     1.0  0.96493  0.93751  0.15335  1.0000
  C   C1164     1.0  0.78328  0.01755  0.06376  1.0000
  H   H937      1.0  0.01280  0.89635  0.15560  1.0000
  C   C1165     1.0  0.38922  0.01829  0.96556  1.0000
  H   H938      1.0  0.49646  0.98876  0.12936  1.0000
  C   C1166     1.0  0.49735  0.78721  0.18958  1.0000
  C   C1167     1.0  0.86102  0.90766  0.00172  1.0000
  C   C1168     1.0  0.60836  0.91267  0.18173  1.0000
  C   C1169     1.0  0.04498  0.97555  0.11957  1.0000
  H   H939      1.0  0.51102  0.81200  0.96755  1.0000
  H   H940      1.0  0.34869  0.95023  0.97415  1.0000
  C   C1170     1.0  0.44832  0.80590  0.16944  1.0000
  H   H941      1.0  0.45754  0.98036  0.97909  1.0000
  H   H942      1.0  0.83423  0.80768  0.08843  1.0000
  C   C1171     1.0  0.92844  0.82166  0.11032  1.0000
  H   H943      1.0  0.36481  0.97219  0.12184  1.0000
  H   H944      1.0  0.03721  0.98421  0.97201  1.0000
  C   C1172     1.0  0.82246  0.93100  0.98314  1.0000
  C   C1173     1.0  0.45399  0.90632  0.98070  1.0000
  C   C1174     1.0  0.87068  0.82510  0.08844  1.0000
  C   C1175     1.0  0.85892  0.85112  0.06699  1.0000
  H   H945      1.0  0.59279  0.81777  0.13407  1.0000
  C   C1176     1.0  0.26668  0.98434  0.95970  1.0000
  C   C1177     1.0  0.69445  0.84009  0.18700  1.0000
  C   C1178     1.0  0.98950  0.95111  0.04024  1.0000
  C   C1179     1.0  0.76795  0.94278  0.10911  1.0000
  H   H946      1.0  0.52358  0.00122  0.05486  1.0000
  C   C1180     1.0  0.46475  0.91532  0.18731  1.0000
  H   H947      1.0  0.45946  0.82809  0.16305  1.0000
  H   H948      1.0  0.34447  0.81044  0.14306  1.0000
  H   H949      1.0  0.64313  0.95255  0.11545  1.0000
  H   H950      1.0  0.88781  0.93010  0.09820  1.0000
  C   C1181     1.0  0.74452  0.85905  0.16481  1.0000
  C   C1182     1.0  0.98093  0.92582  0.03251  1.0000
  H   H951      1.0  0.78176  0.94952  0.12990  1.0000
  C   C1183     1.0  0.45895  0.99440  0.17659  1.0000
  C   C1184     1.0  0.33990  0.97258  0.96880  1.0000
  C   C1185     1.0  0.13094  0.95010  0.02404  1.0000
  H   H952      1.0  0.38470  0.99305  0.04576  1.0000
  Fe  Fe79      1.0  0.42093  0.89958  0.11406  1.0000
  S   S159      1.0  0.30088  0.90437  0.13901  1.0000
  C   C1186     1.0  0.31205  0.97434  0.16886  1.0000
  C   C1187     1.0  0.09157  0.92803  0.12627  1.0000
  C   C1188     1.0  0.67137  0.93524  0.07462  1.0000
  H   H953      1.0  0.66343  0.90756  0.16931  1.0000
  C   C1189     1.0  0.63867  0.82519  0.17633  1.0000
  C   C1190     1.0  0.73136  0.92456  0.05613  1.0000
  S   S160      1.0  0.39358  0.92938  0.06733  1.0000
  C   C1191     1.0  0.81092  0.92382  0.06331  1.0000
  C   C1192     1.0  0.90556  0.87379  0.06711  1.0000
  H   H954      1.0  0.91964  0.86823  0.00104  1.0000
  Fe  Fe80      1.0  0.35431  0.89140  0.05447  1.0000
  C   C1193     1.0  0.88662  0.88585  0.98777  1.0000
  H   H955      1.0  0.04212  0.89395  0.01270  1.0000
  C   C1194     1.0  0.06462  0.96260  0.03689  1.0000
  H   H956      1.0  0.13643  0.91312  0.12213  1.0000
  H   H957      1.0  0.60592  0.94792  0.98506  1.0000
  H   H958      1.0  0.71488  0.91660  0.03662  1.0000
  C   C1195     1.0  0.96267  0.87026  0.08951  1.0000
  C   C1196     1.0  0.39761  0.01011  0.05571  1.0000
  H   H959      1.0  0.97928  0.95018  0.94891  1.0000
  C   C1197     1.0  0.13834  0.01503  0.15321  1.0000
  C   C1198     1.0  0.45411  0.91259  0.94707  1.0000
  C   C1199     1.0  0.80661  0.93191  0.95163  1.0000
  C   C1200     1.0  0.87165  0.88702  0.95604  1.0000
  H   H960      1.0  0.89197  0.87026  0.94523  1.0000
