data_image0
_chemical_formula_structural       HC3HCH2CHCH2C2FeHSH2CHSFeS2FeS2FeS2C2SH2CSH2C3HC7H4C6H4C6H3CH2C3H4C4HCH3C2HC2HCHCHC4PHCHC15H4PH2CH11CHC3HFeH3SH2C2HC3SH2C6HC6PHCHCHC2H2C2H3CH4C2H2C2H3CH3C2HC2H3SC2SC4HCFeC5HCH2CH3SH2C4H2C3FeHC3HCHCHCHCH3CHCHC2H2CHCH2CH4FeS2FeS2FeSFeS3HSFeSCSHS2C2HC6H4C6H4C6H5C4H3SC3HCHC2H2CHC6PC3HC3H2C9H10FeHC2H6C2HSHC2H2C6PC18H6C2H14CHCHCHC6HCPH4CH2C2H7C2HCHC2HC2HPC4HC2HC2HC2H2CHCHCH2C3HCPC2HCSCFeC2H2C3H3FeCHC2SCHC3FeSH6C2H3CHCH2C5PC4HC5SH3C3H2SH5C3H3CH2C2FeC3SCS2C3HCSFeS2CFeSH2SFeS2FeS2FeSFeS3C6H4C3HCH3C6H4C6H5C7H4C6H3CSHC5HCHC2H4CH3C3FePC4H2C8HC3HCH4CH3CH3CHCH2C3HC8PC12PCHCH14C2H2C6PC2HC15H8C2H5C3HCH3C2HC5HC3H2SCHCH2C3H2CHCH2CH2PHCHCH3CH3C2H2CH4C2S2H2CHC2H2CH2CHC2HCHC3PH5C2H2C2HCH2CH2FeH2C2H3C3FeCFeS2FeS2FeSFeS3FeS2FeS2FeSFeS3CFeS2FeSPFeSFeS4CFeSCHC7H4C6H5CH2C7H2C6H4C6H4C3HC3HCHC4H3CHC9HC2PH3CHCHC2PC4SH2C8SH3CH4C3H2CH5C2HC6PC9HC7H15C2FeC3H2CH2SC4H4C2HC2PHSC2HCHC5H2C4H6CH3C2HC3HPCHCHC5H3C4H3C2H2C2H3CSC11HCHCH6CH2CH3PH2CHCH3CHC2HCHC3HC3HCHCHC2H2C2H4CPC3HCHCHC6HCHCHCPHCH2CHC2H2SH2CHC2HC2H2CSHC2H4CHCHCHCH2C3HC6FeHCH3SH2CH4SHC2H4FeHC2H3CFeCH2CH2CHC2H3FeS2FeS2FeCFeS3FeS2FeS2FeSFeCS2FeS2FeS2FeSFeS4C10H5C3H2C7H4C6H3C6H4CHC7H4C4H2CH2C5H3C6PC16H18C6PC9HCHC6H2CH9CH8C2HC3HP2HC4H3C2PHC4H2CH2C3H2SC2H2C2HC2H5CHC2H3C2HC2HC3HCHCHC3H3CH3CHCHCH2CHC3HC9HC2H3C2H2C3HCH2SH2C2HC2H4CH2CHFeHC2HC3H5CHS2FeS2FeS2FeSFeS3FeS2FeSFeS3HSFeHC2FeS2FeS2FeCH2S2H2FeHSFeC2SH3C3FeHC3HC3HCHC2HFeC3HCHC2SC3H4C6H4C6H4CH2CH2SC4HSC6H5CH2C12HFeHCH3CH2CHC6PC7HCHC7H2CSH5CHCH6C6PC18H22CHC4HC9PCH2CH5C3HC2PCHC2HCH2CSC4H4C4HC2PC2HC3HCHCH5PCHCHC2HCHC4HCH5C2SCH2CHC2HC4HC2HCHC3H4C2H2C4HC4HC3H5SHC2HC3H8CH2C4HCHPHC2H3C2HCSC4HCHC2FeCPHC4HCHCHCSHCHFeHSHCHCS2CHC3HFeCFeH6CSCFeSHC7H3CH3C3PCHC2HCPC2HC3H2CSC2HCHCH3CH3CHC2HC7H5C2H2C2H2C2FeS2CHSHFeS2FeSFeSFeS3HCSHSHFeHFeSHFeSFeHSCHS2C3PHSCHPCH3CH2CHC7H4C6H6CS2HC6H5C6PC8H3C4H2CH7CH3CHCH3CH2FeHC2H2C2SCH2C5HC2H2CHCFeCHCHC3HCH2C5H2C3PFeHCH2C15H2C5SH5CH2CHC2H2CHCH5C7PC4HC13H2CH3CH5CHCHC2H2CSC3H4C3HCFeC3HC2H2C2SH4C2SHC4HC4H2C3HCPCH6CH2C2H2CHC2H3CH2PC2H2CHC2H2CHCHCHS2HCSCSCFeCFeSC2SFeCH2FeS2CHSC2HCHC2HC6H3CHC3FePCHC2HCH2C4HCHC3HCHC2H3CH2C2HCHCHC2H4C5HSH2C5H4C2HC3HC3HC2HCH2SC4PHCHCH2CHSH2FeCH4C3S
_chemical_formula_sum              "H1152 C1440 Fe96 S192 P48"
_cell_length_a       73.2171
_cell_length_b       73.2909
_cell_length_c       31.5248
_cell_angle_alpha    90.998
_cell_angle_beta     91.0598
_cell_angle_gamma    117.724

_space_group_name_H-M_alt    "P 1"
_space_group_IT_number       1

loop_
  _space_group_symop_operation_xyz
  'x, y, z'

loop_
  _atom_site_type_symbol
  _atom_site_label
  _atom_site_symmetry_multiplicity
  _atom_site_fract_x
  _atom_site_fract_y
  _atom_site_fract_z
  _atom_site_occupancy
  H   H1        1.0  0.28348  0.99883  0.48180  1.0000
  C   C1        1.0  0.30945  0.06106  0.03065  1.0000
  C   C2        1.0  0.31175  0.99919  0.50337  1.0000
  C   C3        1.0  0.29971  0.02297  0.52898  1.0000
  H   H2        1.0  0.28827  0.02845  0.52843  1.0000
  C   C4        1.0  0.29700  0.00628  0.50275  1.0000
  H   H3        1.0  0.29373  0.05873  0.02781  1.0000
  H   H4        1.0  0.30413  0.04346  0.08731  1.0000
  C   C5        1.0  0.31529  0.05242  0.06411  1.0000
  H   H5        1.0  0.26017  0.24308  0.67958  1.0000
  C   C6        1.0  0.31722  0.03266  0.55576  1.0000
  H   H6        1.0  0.31939  0.04568  0.57595  1.0000
  H   H7        1.0  0.31952  0.07987  0.97557  1.0000
  C   C7        1.0  0.00876  0.45840  0.67444  1.0000
  C   C8        1.0  0.29974  0.41049  0.28715  1.0000
  Fe  Fe1       1.0  0.29841  0.46294  0.09796  1.0000
  H   H8        1.0  0.04294  0.49047  0.77254  1.0000
  S   S1        1.0  0.26792  0.46353  0.11585  1.0000
  H   H9        1.0  0.02114  0.44284  0.57148  1.0000
  H   H10       1.0  0.08598  0.48866  0.07067  1.0000
  C   C9        1.0  0.02919  0.46553  0.68860  1.0000
  H   H11       1.0  0.11826  0.38887  0.58149  1.0000
  S   S2        1.0  0.30479  0.43657  0.11587  1.0000
  Fe  Fe2       1.0  0.14782  0.45089  0.07766  1.0000
  S   S3        1.0  0.12956  0.45573  0.02383  1.0000
  S   S4        1.0  0.17621  0.44693  0.05743  1.0000
  Fe  Fe3       1.0  0.11774  0.45213  0.14358  1.0000
  S   S5        1.0  0.09846  0.45759  0.09497  1.0000
  S   S6        1.0  0.10914  0.45062  0.21316  1.0000
  Fe  Fe4       1.0  0.10081  0.43321  0.05530  1.0000
  S   S7        1.0  0.06898  0.40988  0.02914  1.0000
  S   S8        1.0  0.11868  0.42616  0.10599  1.0000
  C   C10       1.0  0.00006  0.35177  0.15428  1.0000
  C   C11       1.0  0.12141  0.41864  0.60009  1.0000
  S   S9        1.0  0.03258  0.39576  0.83934  1.0000
  H   H12       1.0  0.02803  0.48623  0.84808  1.0000
  H   H13       1.0  0.08191  0.42847  0.62552  1.0000
  C   C12       1.0  0.98685  0.45231  0.38381  1.0000
  S   S10       1.0  0.01474  0.40634  0.26690  1.0000
  H   H14       1.0  0.02694  0.44232  0.09659  1.0000
  H   H15       1.0  0.99594  0.46915  0.88667  1.0000
  C   C13       1.0  0.26841  0.39275  0.99183  1.0000
  C   C14       1.0  0.22288  0.33851  0.05756  1.0000
  C   C15       1.0  0.05821  0.47003  0.03387  1.0000
  H   H16       1.0  0.05840  0.47760  0.20321  1.0000
  C   C16       1.0  0.02461  0.36115  0.67379  1.0000
  C   C17       1.0  0.08288  0.43812  0.22818  1.0000
  C   C18       1.0  0.06673  0.43056  0.19777  1.0000
  C   C19       1.0  0.04606  0.42101  0.21042  1.0000
  C   C20       1.0  0.04121  0.41853  0.25361  1.0000
  C   C21       1.0  0.05733  0.42605  0.28416  1.0000
  C   C22       1.0  0.07806  0.43591  0.27145  1.0000
  H   H17       1.0  0.07019  0.43201  0.16447  1.0000
  H   H18       1.0  0.03375  0.41525  0.18654  1.0000
  H   H19       1.0  0.05385  0.42435  0.31749  1.0000
  H   H20       1.0  0.09044  0.44172  0.29525  1.0000
  C   C23       1.0  0.05913  0.40774  0.97644  1.0000
  C   C24       1.0  0.07200  0.41668  0.94238  1.0000
  C   C25       1.0  0.06365  0.41299  0.90056  1.0000
  C   C26       1.0  0.04232  0.40077  0.89251  1.0000
  C   C27       1.0  0.02937  0.39259  0.92669  1.0000
  C   C28       1.0  0.03776  0.39586  0.96837  1.0000
  H   H21       1.0  0.08846  0.42585  0.94814  1.0000
  H   H22       1.0  0.07378  0.41952  0.87432  1.0000
  H   H23       1.0  0.01298  0.38323  0.92081  1.0000
  H   H24       1.0  0.02771  0.38884  0.99445  1.0000
  C   C29       1.0  0.20205  0.45277  0.07407  1.0000
  C   C30       1.0  0.21497  0.45010  0.04466  1.0000
  C   C31       1.0  0.23522  0.45385  0.05633  1.0000
  C   C32       1.0  0.24290  0.45999  0.09804  1.0000
  C   C33       1.0  0.23006  0.46292  0.12733  1.0000
  C   C34       1.0  0.20989  0.45945  0.11549  1.0000
  H   H25       1.0  0.20922  0.44502  0.01248  1.0000
  H   H26       1.0  0.24481  0.45185  0.03302  1.0000
  H   H27       1.0  0.01355  0.35315  0.64812  1.0000
  C   C35       1.0  0.04418  0.37729  0.66542  1.0000
  H   H28       1.0  0.12790  0.47452  0.87339  1.0000
  H   H29       1.0  0.02077  0.39650  0.65243  1.0000
  C   C36       1.0  0.28146  0.42570  0.95799  1.0000
  C   C37       1.0  0.07827  0.39834  0.60680  1.0000
  C   C38       1.0  0.09945  0.47505  0.85643  1.0000
  H   H30       1.0  0.98710  0.34306  0.55526  1.0000
  H   H31       1.0  0.00436  0.49192  0.22703  1.0000
  H   H32       1.0  0.06131  0.43070  0.68527  1.0000
  H   H33       1.0  0.30818  0.38645  0.12155  1.0000
  C   C39       1.0  0.99865  0.41541  0.07724  1.0000
  C   C40       1.0  0.03172  0.36339  0.53581  1.0000
  C   C41       1.0  0.25135  0.37289  0.14333  1.0000
  C   C42       1.0  0.02312  0.32760  0.52234  1.0000
  H   H34       1.0  0.12501  0.47947  0.95062  1.0000
  C   C43       1.0  0.99289  0.48685  0.36803  1.0000
  H   H35       1.0  0.01527  0.35805  0.14097  1.0000
  H   H36       1.0  0.03042  0.31264  0.57318  1.0000
  H   H37       1.0  0.04526  0.34355  0.62067  1.0000
  C   C44       1.0  0.29411  0.41443  0.44943  1.0000
  C   C45       1.0  0.20697  0.33616  0.97512  1.0000
  H   H38       1.0  0.04738  0.42327  0.10129  1.0000
  C   C46       1.0  0.01902  0.35538  0.71547  1.0000
  C   C47       1.0  0.08962  0.41963  0.61587  1.0000
  H   H39       1.0  0.11974  0.44614  0.61937  1.0000
  C   C48       1.0  0.04078  0.40327  0.59847  1.0000
  H   H40       1.0  0.01696  0.47871  0.38265  1.0000
  C   C49       1.0  0.27423  0.25764  0.68151  1.0000
  H   H41       1.0  0.03072  0.38583  0.08655  1.0000
  C   C50       1.0  0.28000  0.40605  0.96028  1.0000
  C   C51       1.0  0.08080  0.47931  0.91523  1.0000
  C   C52       1.0  0.22750  0.35673  0.03615  1.0000
  C   C53       1.0  0.21931  0.35540  0.99488  1.0000
  P   P1        1.0  0.24297  0.38169  0.06171  1.0000
  H   H42       1.0  0.17475  0.47251  0.22592  1.0000
  C   C54       1.0  0.25844  0.39915  0.02180  1.0000
  H   H43       1.0  0.25903  0.27570  0.66486  1.0000
  C   C55       1.0  0.28425  0.37596  0.16771  1.0000
  C   C56       1.0  0.03093  0.32686  0.56267  1.0000
  C   C57       1.0  0.27134  0.43206  0.98731  1.0000
  C   C58       1.0  0.26014  0.41898  0.01949  1.0000
  C   C59       1.0  0.07576  0.46021  0.71864  1.0000
  C   C60       1.0  0.31541  0.33603  0.74194  1.0000
  C   C61       1.0  0.28247  0.41946  0.47756  1.0000
  C   C62       1.0  0.31147  0.45336  0.48993  1.0000
  C   C63       1.0  0.25928  0.37949  0.10299  1.0000
  C   C64       1.0  0.22647  0.39113  0.08492  1.0000
  C   C65       1.0  0.20636  0.38471  0.06849  1.0000
  C   C66       1.0  0.19405  0.39277  0.08571  1.0000
  C   C67       1.0  0.20163  0.40711  0.11960  1.0000
  C   C68       1.0  0.22157  0.41351  0.13617  1.0000
  C   C69       1.0  0.23407  0.40582  0.11853  1.0000
  H   H44       1.0  0.22880  0.33903  0.08948  1.0000
  H   H45       1.0  0.22240  0.36926  0.97800  1.0000
  H   H46       1.0  0.03123  0.37706  0.52486  1.0000
  H   H47       1.0  0.05821  0.45562  0.04130  1.0000
  P   P2        1.0  0.05053  0.38542  0.61154  1.0000
  H   H48       1.0  0.27270  0.44741  0.98594  1.0000
  H   H49       1.0  0.25301  0.42451  0.04263  1.0000
  C   C70       1.0  0.04768  0.41532  0.56234  1.0000
  H   H50       1.0  0.23568  0.46769  0.15967  1.0000
  H   H51       1.0  0.13804  0.42647  0.59737  1.0000
  H   H52       1.0  0.99733  0.44320  0.68335  1.0000
  H   H53       1.0  0.26765  0.37767  0.99341  1.0000
  H   H54       1.0  0.20025  0.37382  0.04197  1.0000
  H   H55       1.0  0.17875  0.38825  0.07231  1.0000
  H   H56       1.0  0.19225  0.41372  0.13221  1.0000
  H   H57       1.0  0.22772  0.42514  0.16154  1.0000
  H   H58       1.0  0.24986  0.41182  0.13043  1.0000
  H   H59       1.0  0.20714  0.30528  0.05428  1.0000
  H   H60       1.0  0.28212  0.44279  0.51962  1.0000
  C   C71       1.0  0.07582  0.47131  0.75531  1.0000
  H   H61       1.0  0.07295  0.40067  0.69414  1.0000
  C   C72       1.0  0.03922  0.34440  0.58956  1.0000
  C   C73       1.0  0.00139  0.44415  0.90670  1.0000
  C   C74       1.0  0.00438  0.45343  0.28522  1.0000
  H   H62       1.0  0.00384  0.34296  0.72167  1.0000
  Fe  Fe5       1.0  0.12825  0.47978  0.06711  1.0000
  H   H63       1.0  0.08055  0.37093  0.58744  1.0000
  H   H64       1.0  0.03310  0.45584  0.70821  1.0000
  H   H65       1.0  0.03120  0.45567  0.99275  1.0000
  S   S11       1.0  0.98727  0.36155  0.47496  1.0000
  H   H66       1.0  0.19307  0.30320  0.98114  1.0000
  H   H67       1.0  0.05832  0.41351  0.54135  1.0000
  C   C75       1.0  0.21055  0.31929  0.03768  1.0000
  C   C76       1.0  0.02155  0.39392  0.08478  1.0000
  H   H68       1.0  0.99027  0.42415  0.07431  1.0000
  C   C77       1.0  0.06155  0.43932  0.71367  1.0000
  C   C78       1.0  0.08638  0.49008  0.16953  1.0000
  C   C79       1.0  0.26380  0.37116  0.17554  1.0000
  S   S12       1.0  0.14799  0.47656  0.11880  1.0000
  H   H69       1.0  0.29081  0.43615  0.93410  1.0000
  H   H70       1.0  0.03644  0.41330  0.74179  1.0000
  C   C80       1.0  0.00324  0.47097  0.64995  1.0000
  C   C81       1.0  0.01953  0.42586  0.08983  1.0000
  C   C82       1.0  0.02683  0.40582  0.62485  1.0000
  C   C83       1.0  0.00060  0.38334  0.07289  1.0000
  C   C84       1.0  0.27979  0.38411  0.09536  1.0000
  C   C85       1.0  0.11026  0.39746  0.59116  1.0000
  H   H71       1.0  0.00614  0.42769  0.18206  1.0000
  C   C86       1.0  0.04747  0.42954  0.74533  1.0000
  C   C87       1.0  0.07386  0.48864  0.05049  1.0000
  C   C88       1.0  0.08235  0.47677  0.87140  1.0000
  C   C89       1.0  0.02004  0.42026  0.61534  1.0000
  C   C90       1.0  0.06160  0.46159  0.78720  1.0000
  C   C91       1.0  0.04747  0.44064  0.78186  1.0000
  P   P3        1.0  0.06245  0.47584  0.83527  1.0000
  H   H72       1.0  0.28841  0.40138  0.93841  1.0000
  C   C92       1.0  0.03828  0.46351  0.86253  1.0000
  H   H73       1.0  0.29110  0.30889  0.66842  1.0000
  C   C93       1.0  0.99505  0.47172  0.77381  1.0000
  H   H74       1.0  0.01646  0.31398  0.50158  1.0000
  C   C94       1.0  0.01481  0.43550  0.90570  1.0000
  C   C95       1.0  0.03327  0.44527  0.88415  1.0000
  H   H75       1.0  0.03139  0.45158  0.30750  1.0000
  H   H76       1.0  0.10100  0.47286  0.82297  1.0000
  C   C96       1.0  0.00653  0.46264  0.88648  1.0000
  C   C97       1.0  0.02562  0.46043  0.28960  1.0000
  H   H77       1.0  0.30174  0.43222  0.23988  1.0000
  H   H78       1.0  0.06259  0.39056  0.76774  1.0000
  H   H79       1.0  0.25763  0.36615  0.20661  1.0000
  C   C98       1.0  0.04430  0.48520  0.67831  1.0000
  H   H80       1.0  0.09486  0.48212  0.97734  1.0000
  H   H81       1.0  0.26664  0.40833  0.48333  1.0000
  H   H82       1.0  0.02828  0.36169  0.78162  1.0000
  H   H83       1.0  0.00813  0.47576  0.75401  1.0000
  C   C99       1.0  0.04307  0.47010  0.00644  1.0000
  C   C100      1.0  0.04063  0.42956  0.55265  1.0000
  H   H84       1.0  0.30079  0.39253  0.33895  1.0000
  H   H85       1.0  0.03636  0.43274  0.80572  1.0000
  C   C101      1.0  0.27359  0.27602  0.67333  1.0000
  C   C102      1.0  0.03103  0.41516  0.09298  1.0000
  H   H86       1.0  0.98793  0.32455  0.11477  1.0000
  H   H87       1.0  0.01080  0.42104  0.92099  1.0000
  H   H88       1.0  0.04358  0.43846  0.88382  1.0000
  C   C103      1.0  0.03938  0.47886  0.27125  1.0000
  H   H89       1.0  0.20022  0.46140  0.13868  1.0000
  H   H90       1.0  0.08670  0.46780  0.69410  1.0000
  H   H91       1.0  0.17949  0.48175  0.00987  1.0000
  C   C104      1.0  0.11109  0.42971  0.61248  1.0000
  C   C105      1.0  0.05793  0.38789  0.69950  1.0000
  H   H92       1.0  0.20003  0.49266  0.07682  1.0000
  C   C106      1.0  0.98934  0.44412  0.16386  1.0000
  C   C107      1.0  0.03278  0.36591  0.74920  1.0000
  H   H93       1.0  0.28987  0.39712  0.26743  1.0000
  H   H94       1.0  0.23553  0.36909  0.14991  1.0000
  H   H95       1.0  0.28647  0.38938  0.06487  1.0000
  S   S13       1.0  0.99327  0.40553  0.77516  1.0000
  C   C108      1.0  0.20262  0.31811  0.99648  1.0000
  C   C109      1.0  0.02480  0.47224  0.86422  1.0000
  S   S14       1.0  0.99486  0.40549  0.39226  1.0000
  C   C110      1.0  0.02685  0.43206  0.57923  1.0000
  C   C111      1.0  0.00051  0.47314  0.37835  1.0000
  C   C112      1.0  0.30633  0.40798  0.32756  1.0000
  C   C113      1.0  0.08879  0.38732  0.59454  1.0000
  H   H96       1.0  0.20076  0.33527  0.94324  1.0000
  C   C114      1.0  0.30626  0.43024  0.27175  1.0000
  Fe  Fe6       1.0  0.99888  0.38502  0.81991  1.0000
  C   C115      1.0  0.01056  0.48311  0.24355  1.0000
  C   C116      1.0  0.29223  0.38243  0.12765  1.0000
  C   C117      1.0  0.05220  0.38218  0.74125  1.0000
  C   C118      1.0  0.02362  0.34587  0.50890  1.0000
  C   C119      1.0  0.09613  0.48023  0.94354  1.0000
  H   H97       1.0  0.04561  0.43845  0.52417  1.0000
  C   C120      1.0  0.31126  0.27676  0.69393  1.0000
  H   H98       1.0  0.00877  0.37701  0.19949  1.0000
  H   H99       1.0  0.00222  0.45600  0.14784  1.0000
  C   C121      1.0  0.31403  0.35234  0.76282  1.0000
  H   H100      1.0  0.15040  0.48579  0.24518  1.0000
  H   H101      1.0  0.99378  0.43923  0.29982  1.0000
  H   H102      1.0  0.00164  0.45105  0.49237  1.0000
  S   S15       1.0  0.31459  0.46745  0.03539  1.0000
  H   H103      1.0  0.08732  0.47574  0.16961  1.0000
  H   H104      1.0  0.28710  0.39943  0.43337  1.0000
  C   C122      1.0  0.29307  0.25800  0.69160  1.0000
  C   C123      1.0  0.07011  0.49137  0.18948  1.0000
  C   C124      1.0  0.03963  0.36283  0.57641  1.0000
  C   C125      1.0  0.98905  0.39407  0.06810  1.0000
  H   H105      1.0  0.00882  0.42165  0.63526  1.0000
  H   H106      1.0  0.29391  0.37473  0.19272  1.0000
  C   C126      1.0  0.29117  0.43888  0.49793  1.0000
  C   C127      1.0  0.29175  0.29479  0.67563  1.0000
  C   C128      1.0  0.11478  0.47600  0.88493  1.0000
  Fe  Fe7       1.0  0.99562  0.39342  0.32607  1.0000
  H   H107      1.0  0.98911  0.44041  0.77995  1.0000
  C   C129      1.0  0.01853  0.49064  0.63929  1.0000
  C   C130      1.0  0.04375  0.48880  0.99519  1.0000
  C   C131      1.0  0.31062  0.29533  0.68699  1.0000
  H   H108      1.0  0.00566  0.46868  0.56193  1.0000
  C   C132      1.0  0.99688  0.46506  0.26327  1.0000
  H   H109      1.0  0.99282  0.44199  0.39292  1.0000
  C   C133      1.0  0.11315  0.47867  0.92843  1.0000
  H   H110      1.0  0.03234  0.48827  0.97230  1.0000
  C   C134      1.0  0.99158  0.42820  0.18296  1.0000
  H   H111      1.0  0.08702  0.48745  0.75889  1.0000
  C   C135      1.0  0.99073  0.45628  0.55227  1.0000
  H   H112      1.0  0.06775  0.48057  0.92767  1.0000
  H   H113      1.0  0.31812  0.46851  0.50530  1.0000
  H   H114      1.0  0.20284  0.49155  0.17699  1.0000
  C   C136      1.0  0.99644  0.36249  0.18731  1.0000
  H   H115      1.0  0.01722  0.34635  0.47787  1.0000
  C   C137      1.0  0.03195  0.48984  0.24631  1.0000
  H   H116      1.0  0.05581  0.48438  0.27621  1.0000
  C   C138      1.0  0.31465  0.42872  0.44203  1.0000
  C   C139      1.0  0.98916  0.48665  0.78524  1.0000
  H   H117      1.0  0.99361  0.36687  0.06651  1.0000
  H   H118      1.0  0.30253  0.34924  0.78661  1.0000
  C   C140      1.0  0.17698  0.48718  0.21414  1.0000
  H   H119      1.0  0.30500  0.32037  0.75025  1.0000
  C   C141      1.0  0.98855  0.44635  0.51278  1.0000
  H   H120      1.0  0.31800  0.36292  0.49218  1.0000
  H   H121      1.0  0.98764  0.37710  0.98102  1.0000
  C   C142      1.0  0.31909  0.44750  0.29700  1.0000
  H   H122      1.0  0.29363  0.24373  0.69732  1.0000
  H   H123      1.0  0.31939  0.34536  0.02039  1.0000
  H   H124      1.0  0.98681  0.43633  0.92229  1.0000
  H   H125      1.0  0.06008  0.49082  0.68977  1.0000
  Fe  Fe8       1.0  0.11167  0.62199  0.13412  1.0000
  S   S16       1.0  0.11578  0.64724  0.08883  1.0000
  S   S17       1.0  0.09074  0.60348  0.18734  1.0000
  Fe  Fe9       1.0  0.14726  0.61658  0.09669  1.0000
  S   S18       1.0  0.15409  0.64080  0.04785  1.0000
  S   S19       1.0  0.16492  0.59898  0.11339  1.0000
  Fe  Fe10      1.0  0.15058  0.66019  0.10026  1.0000
  S   S20       1.0  0.17406  0.69358  0.12235  1.0000
  Fe  Fe11      1.0  0.11921  0.62661  0.03879  1.0000
  S   S21       1.0  0.10482  0.61680  0.97175  1.0000
  S   S22       1.0  0.14573  0.63652  0.14951  1.0000
  S   S23       1.0  0.11325  0.60098  0.08332  1.0000
  H   H126      1.0  0.01334  0.57020  0.02524  1.0000
  S   S24       1.0  0.12799  0.50760  0.03750  1.0000
  Fe  Fe12      1.0  0.99685  0.57103  0.83638  1.0000
  S   S25       1.0  0.01600  0.59408  0.88971  1.0000
  C   C143      1.0  0.04862  0.53545  0.29235  1.0000
  S   S26       1.0  0.00434  0.56502  0.76988  1.0000
  H   H127      1.0  0.11421  0.50620  0.13475  1.0000
  S   S27       1.0  0.01226  0.59679  0.28416  1.0000
  S   S28       1.0  0.01220  0.56515  0.38739  1.0000
  C   C144      1.0  0.20043  0.52238  0.08095  1.0000
  C   C145      1.0  0.01743  0.51445  0.11487  1.0000
  H   H128      1.0  0.04699  0.55195  0.34810  1.0000
  C   C146      1.0  0.06823  0.60137  0.21169  1.0000
  C   C147      1.0  0.05841  0.61299  0.19956  1.0000
  C   C148      1.0  0.04114  0.61131  0.22170  1.0000
  C   C149      1.0  0.03332  0.59776  0.25552  1.0000
  C   C150      1.0  0.04278  0.58571  0.26664  1.0000
  C   C151      1.0  0.06028  0.58773  0.24519  1.0000
  H   H129      1.0  0.06435  0.62354  0.17378  1.0000
  H   H130      1.0  0.03389  0.62068  0.21283  1.0000
  H   H131      1.0  0.03695  0.57527  0.29264  1.0000
  H   H132      1.0  0.06787  0.57881  0.25489  1.0000
  C   C152      1.0  0.07905  0.60859  0.95252  1.0000
  C   C153      1.0  0.07180  0.59564  0.91589  1.0000
  C   C154      1.0  0.05219  0.59028  0.89723  1.0000
  C   C155      1.0  0.03975  0.59819  0.91453  1.0000
  C   C156      1.0  0.04676  0.61061  0.95189  1.0000
  C   C157      1.0  0.06621  0.61569  0.97092  1.0000
  H   H133      1.0  0.08162  0.59013  0.90125  1.0000
  H   H134      1.0  0.04706  0.58075  0.86851  1.0000
  H   H135      1.0  0.03731  0.61686  0.96547  1.0000
  H   H136      1.0  0.07163  0.62584  0.99874  1.0000
  C   C158      1.0  0.15372  0.57309  0.09479  1.0000
  C   C159      1.0  0.13935  0.56636  0.06096  1.0000
  C   C160      1.0  0.13152  0.54615  0.04450  1.0000
  C   C161      1.0  0.13746  0.53226  0.06211  1.0000
  C   C162      1.0  0.15123  0.53864  0.09711  1.0000
  C   C163      1.0  0.15961  0.55915  0.11305  1.0000
  H   H137      1.0  0.13477  0.57695  0.04658  1.0000
  H   H138      1.0  0.12089  0.54128  0.01772  1.0000
  H   H139      1.0  0.15582  0.52794  0.11089  1.0000
  H   H140      1.0  0.17072  0.56429  0.13933  1.0000
  H   H141      1.0  0.27131  0.67438  0.15336  1.0000
  C   C164      1.0  0.20496  0.71589  0.06448  1.0000
  C   C165      1.0  0.19857  0.71365  0.10654  1.0000
  C   C166      1.0  0.22653  0.55753  0.13949  1.0000
  C   C167      1.0  0.01313  0.53081  0.12371  1.0000
  H   H142      1.0  0.19531  0.70464  0.04044  1.0000
  H   H143      1.0  0.09336  0.54090  0.25019  1.0000
  H   H144      1.0  0.10795  0.56613  0.30925  1.0000
  S   S29       1.0  0.01013  0.51291  0.36349  1.0000
  C   C168      1.0  0.06141  0.53225  0.26387  1.0000
  C   C169      1.0  0.08763  0.53869  0.82751  1.0000
  C   C170      1.0  0.19544  0.51675  0.16994  1.0000
  H   H145      1.0  0.25298  0.60195  0.08600  1.0000
  C   C171      1.0  0.98958  0.56498  0.62634  1.0000
  H   H146      1.0  0.01818  0.51665  0.99687  1.0000
  C   C172      1.0  0.07847  0.56078  0.33236  1.0000
  C   C173      1.0  0.05710  0.54970  0.32630  1.0000
  H   H147      1.0  0.08497  0.57164  0.35891  1.0000
  H   H148      1.0  0.15443  0.51859  0.21585  1.0000
  C   C174      1.0  0.06771  0.50141  0.81993  1.0000
  H   H149      1.0  0.07763  0.55622  0.78771  1.0000
  C   C175      1.0  0.06429  0.56136  0.10640  1.0000
  C   C176      1.0  0.05889  0.57646  0.09408  1.0000
  C   C177      1.0  0.05415  0.57773  0.05156  1.0000
  C   C178      1.0  0.05458  0.56378  0.02133  1.0000
  C   C179      1.0  0.05982  0.54837  0.03342  1.0000
  C   C180      1.0  0.06481  0.54736  0.07627  1.0000
  P   P4        1.0  0.06259  0.53215  0.99280  1.0000
  C   C181      1.0  0.05956  0.50768  0.01175  1.0000
  C   C182      1.0  0.04298  0.52707  0.95241  1.0000
  C   C183      1.0  0.02224  0.51882  0.96383  1.0000
  H   H150      1.0  0.01465  0.50056  0.62011  1.0000
  C   C184      1.0  0.01174  0.51524  0.88980  1.0000
  C   C185      1.0  0.03234  0.52460  0.87837  1.0000
  C   C186      1.0  0.04799  0.53043  0.90953  1.0000
  H   H151      1.0  0.26645  0.51594  0.20642  1.0000
  H   H152      1.0  0.09997  0.55225  0.84309  1.0000
  C   C187      1.0  0.24403  0.52226  0.17332  1.0000
  C   C188      1.0  0.29133  0.72454  0.19592  1.0000
  C   C189      1.0  0.24346  0.51912  0.09659  1.0000
  C   C190      1.0  0.08794  0.54548  0.97082  1.0000
  C   C191      1.0  0.09971  0.56693  0.97573  1.0000
  C   C192      1.0  0.11936  0.57706  0.95882  1.0000
  C   C193      1.0  0.12753  0.56584  0.93726  1.0000
  C   C194      1.0  0.11594  0.54444  0.93224  1.0000
  C   C195      1.0  0.09613  0.53432  0.94861  1.0000
  H   H153      1.0  0.06858  0.56101  0.13931  1.0000
  H   H154      1.0  0.05899  0.58758  0.11737  1.0000
  H   H155      1.0  0.05083  0.59001  0.04180  1.0000
  H   H156      1.0  0.05159  0.56559  0.98825  1.0000
  H   H157      1.0  0.06942  0.53612  0.08659  1.0000
  H   H158      1.0  0.18264  0.53805  0.16721  1.0000
  H   H159      1.0  0.98933  0.52691  0.52138  1.0000
  H   H160      1.0  0.22775  0.73503  0.02018  1.0000
  H   H161      1.0  0.03605  0.52721  0.84518  1.0000
  H   H162      1.0  0.06385  0.53751  0.89998  1.0000
  Fe  Fe13      1.0  0.99410  0.53242  0.36478  1.0000
  H   H163      1.0  0.99061  0.50612  0.94101  1.0000
  C   C196      1.0  0.05915  0.52352  0.77618  1.0000
  C   C197      1.0  0.03115  0.53680  0.19184  1.0000
  H   H164      1.0  0.08755  0.52158  0.05105  1.0000
  H   H165      1.0  0.09390  0.57596  0.99281  1.0000
  H   H166      1.0  0.12833  0.59367  0.96299  1.0000
  H   H167      1.0  0.14295  0.57374  0.92506  1.0000
  H   H168      1.0  0.12252  0.53566  0.91667  1.0000
  H   H169      1.0  0.08743  0.51777  0.94495  1.0000
  C   C198      1.0  0.09139  0.55761  0.30444  1.0000
  C   C199      1.0  0.08436  0.52722  0.17071  1.0000
  H   H170      1.0  0.19559  0.54939  0.07734  1.0000
  S   S30       1.0  0.00438  0.51208  0.77030  1.0000
  H   H171      1.0  0.17480  0.53802  0.01092  1.0000
  C   C200      1.0  0.99712  0.56021  0.01833  1.0000
  C   C201      1.0  0.08295  0.54332  0.27051  1.0000
  H   H172      1.0  0.29292  0.65668  0.15245  1.0000
  H   H173      1.0  0.00204  0.55439  0.95331  1.0000
  C   C202      1.0  0.14615  0.60775  0.33118  1.0000
  C   C203      1.0  0.14664  0.60075  0.28986  1.0000
  C   C204      1.0  0.13980  0.60807  0.25566  1.0000
  C   C205      1.0  0.13276  0.62258  0.26265  1.0000
  C   C206      1.0  0.13255  0.62999  0.30387  1.0000
  C   C207      1.0  0.13905  0.62225  0.33823  1.0000
  P   P5        1.0  0.12353  0.64886  0.31277  1.0000
  C   C208      1.0  0.09688  0.63636  0.32830  1.0000
  C   C209      1.0  0.13942  0.66694  0.35425  1.0000
  C   C210      1.0  0.13078  0.67512  0.38363  1.0000
  C   C211      1.0  0.14318  0.68908  0.41567  1.0000
  C   C212      1.0  0.16428  0.69502  0.41856  1.0000
  C   C213      1.0  0.17302  0.68700  0.38939  1.0000
  C   C214      1.0  0.16066  0.67301  0.35735  1.0000
  C   C215      1.0  0.08441  0.64604  0.32195  1.0000
  C   C216      1.0  0.06395  0.63662  0.33474  1.0000
  C   C217      1.0  0.05587  0.61769  0.35464  1.0000
  C   C218      1.0  0.06816  0.60800  0.36131  1.0000
  C   C219      1.0  0.08857  0.61725  0.34809  1.0000
  C   C220      1.0  0.12618  0.66259  0.26425  1.0000
  C   C221      1.0  0.10994  0.65512  0.23379  1.0000
  C   C222      1.0  0.11219  0.66489  0.19515  1.0000
  C   C223      1.0  0.13079  0.68207  0.18633  1.0000
  C   C224      1.0  0.14711  0.68957  0.21631  1.0000
  C   C225      1.0  0.14486  0.67989  0.25513  1.0000
  H   H174      1.0  0.15128  0.60194  0.35775  1.0000
  H   H175      1.0  0.15217  0.58957  0.28424  1.0000
  H   H176      1.0  0.13991  0.60254  0.22352  1.0000
  H   H177      1.0  0.12753  0.62800  0.23570  1.0000
  H   H178      1.0  0.13865  0.62747  0.37040  1.0000
  H   H179      1.0  0.11449  0.67079  0.38203  1.0000
  C   C226      1.0  0.30896  0.70636  0.08854  1.0000
  C   C227      1.0  0.28181  0.72814  0.16024  1.0000
  H   H180      1.0  0.18941  0.69167  0.39153  1.0000
  H   H181      1.0  0.16770  0.66704  0.33482  1.0000
  H   H182      1.0  0.09044  0.66082  0.30696  1.0000
  H   H183      1.0  0.05414  0.64378  0.32873  1.0000
  H   H184      1.0  0.03992  0.61035  0.36406  1.0000
  H   H185      1.0  0.06168  0.59318  0.37624  1.0000
  H   H186      1.0  0.09775  0.60943  0.35332  1.0000
  H   H187      1.0  0.09568  0.64144  0.23945  1.0000
  H   H188      1.0  0.09964  0.65880  0.17165  1.0000
  H   H189      1.0  0.13278  0.68931  0.15586  1.0000
  H   H190      1.0  0.16169  0.70257  0.20878  1.0000
  H   H191      1.0  0.15786  0.68574  0.27733  1.0000
  H   H192      1.0  0.03200  0.49668  0.13714  1.0000
  H   H193      1.0  0.30389  0.73479  0.25940  1.0000
  C   C228      1.0  0.02860  0.50926  0.14451  1.0000
  H   H194      1.0  0.13639  0.69530  0.43827  1.0000
  C   C229      1.0  0.17632  0.50945  0.00548  1.0000
  H   H195      1.0  0.03199  0.52690  0.28832  1.0000
  C   C230      1.0  0.26849  0.73431  0.99916  1.0000
  H   H196      1.0  0.23557  0.59428  0.21648  1.0000
  C   C231      1.0  0.24819  0.69212  0.11430  1.0000
  C   C232      1.0  0.24113  0.67422  0.08828  1.0000
  C   C233      1.0  0.22060  0.65885  0.08961  1.0000
  C   C234      1.0  0.20697  0.66126  0.11675  1.0000
  C   C235      1.0  0.21381  0.67908  0.14241  1.0000
  C   C236      1.0  0.23430  0.69453  0.14109  1.0000
  H   H197      1.0  0.25185  0.61711  0.15631  1.0000
  C   C237      1.0  0.10041  0.52576  0.15008  1.0000
  P   P6        1.0  0.27494  0.71152  0.11332  1.0000
  H   H198      1.0  0.21993  0.55653  0.20642  1.0000
  H   H199      1.0  0.17058  0.73155  0.05656  1.0000
  H   H200      1.0  0.04918  0.52524  0.75239  1.0000
  H   H201      1.0  0.01155  0.56683  0.57955  1.0000
  C   C238      1.0  0.00664  0.51274  0.93248  1.0000
  H   H202      1.0  0.25148  0.67220  0.06683  1.0000
  H   H203      1.0  0.27973  0.50793  0.14067  1.0000
  C   C239      1.0  0.08399  0.51897  0.83924  1.0000
  C   C240      1.0  0.07511  0.54096  0.79620  1.0000
  H   H204      1.0  0.25010  0.70793  0.03551  1.0000
  H   H205      1.0  0.23830  0.52562  0.20228  1.0000
  H   H206      1.0  0.23725  0.56415  0.07529  1.0000
  H   H207      1.0  0.25685  0.73011  0.97401  1.0000
  H   H208      1.0  0.21510  0.64506  0.06949  1.0000
  H   H209      1.0  0.19102  0.64939  0.11758  1.0000
  H   H210      1.0  0.20305  0.68108  0.16274  1.0000
  C   C241      1.0  0.26004  0.51692  0.17582  1.0000
  C   C242      1.0  0.23582  0.58765  0.18564  1.0000
  H   H211      1.0  0.08404  0.54185  0.17148  1.0000
  C   C243      1.0  0.22343  0.73325  0.05304  1.0000
  H   H212      1.0  0.11213  0.53908  0.13467  1.0000
  C   C244      1.0  0.16548  0.51314  0.20837  1.0000
  C   C245      1.0  0.05554  0.50383  0.78783  1.0000
  H   H213      1.0  0.09383  0.51747  0.86329  1.0000
  C   C246      1.0  0.23533  0.52298  0.13371  1.0000
  C   C247      1.0  0.03558  0.52042  0.18323  1.0000
  H   H214      1.0  0.26519  0.51003  0.07067  1.0000
  P   P7        1.0  0.04982  0.51322  0.22106  1.0000
  C   C248      1.0  0.22679  0.56623  0.17969  1.0000
  C   C249      1.0  0.99645  0.56562  0.58446  1.0000
  C   C250      1.0  0.18147  0.52410  0.18082  1.0000
  C   C251      1.0  0.26766  0.51256  0.13880  1.0000
  H   H215      1.0  0.17386  0.70587  0.44337  1.0000
  C   C252      1.0  0.19292  0.53494  0.06228  1.0000
  C   C253      1.0  0.21144  0.72870  0.13705  1.0000
  H   H216      1.0  0.00487  0.53514  0.10045  1.0000
  C   C254      1.0  0.23662  0.57057  0.10613  1.0000
  C   C255      1.0  0.01996  0.54194  0.16223  1.0000
  H   H217      1.0  0.03645  0.54587  0.22101  1.0000
  C   C256      1.0  0.19527  0.50306  0.06201  1.0000
  C   C257      1.0  0.06939  0.51022  0.19171  1.0000
  H   H218      1.0  0.99933  0.56558  0.65309  1.0000
  H   H219      1.0  0.23908  0.70833  0.16071  1.0000
  C   C258      1.0  0.24564  0.59199  0.11217  1.0000
  H   H220      1.0  0.01244  0.50606  0.08474  1.0000
  C   C259      1.0  0.26473  0.72176  0.03426  1.0000
  H   H221      1.0  0.00175  0.50316  0.49233  1.0000
  C   C260      1.0  0.18105  0.52854  0.02453  1.0000
  H   H222      1.0  0.01701  0.55489  0.16901  1.0000
  H   H223      1.0  0.05059  0.51309  0.64589  1.0000
  C   C261      1.0  0.24508  0.60053  0.15180  1.0000
  C   C262      1.0  0.29081  0.69857  0.11180  1.0000
  C   C263      1.0  0.28513  0.68056  0.13485  1.0000
  H   H224      1.0  0.20677  0.72726  0.16967  1.0000
  C   C264      1.0  0.99077  0.55128  0.97773  1.0000
  P   P8        1.0  0.21468  0.52992  0.13103  1.0000
  C   C265      1.0  0.25941  0.51372  0.09924  1.0000
  C   C266      1.0  0.07465  0.50736  0.03934  1.0000
  H   H225      1.0  0.23750  0.52012  0.06555  1.0000
  C   C267      1.0  0.10160  0.50728  0.15012  1.0000
  S   S31       1.0  0.99437  0.56730  0.49701  1.0000
  C   C268      1.0  0.29625  0.73742  0.23220  1.0000
  Fe  Fe14      1.0  0.99656  0.57210  0.33296  1.0000
  C   C269      1.0  0.19295  0.49808  0.18647  1.0000
  C   C270      1.0  0.27951  0.72747  0.06761  1.0000
  H   H226      1.0  0.16660  0.50426  0.97696  1.0000
  H   H227      1.0  0.29518  0.71198  0.19581  1.0000
  C   C271      1.0  0.31537  0.67837  0.11125  1.0000
  C   C272      1.0  0.29735  0.67051  0.13451  1.0000
  C   C273      1.0  0.03896  0.49775  0.65364  1.0000
  H   H228      1.0  0.31389  0.72019  0.07055  1.0000
  H   H229      1.0  0.99974  0.51018  0.86539  1.0000
  H   H230      1.0  0.98794  0.56540  0.07929  1.0000
  Fe  Fe15      1.0  0.98983  0.53196  0.78846  1.0000
  C   C274      1.0  0.18349  0.49676  0.02414  1.0000
  H   H231      1.0  0.99045  0.49967  0.68383  1.0000
  C   C275      1.0  0.16322  0.49468  0.22501  1.0000
  C   C276      1.0  0.20471  0.78112  0.03494  1.0000
  S   S32       1.0  0.29616  0.83154  0.10984  1.0000
  C   C277      1.0  0.19005  0.76049  0.02777  1.0000
  H   H232      1.0  0.29541  0.76388  0.26123  1.0000
  C   C278      1.0  0.21148  0.78892  0.07648  1.0000
  C   C279      1.0  0.23618  0.74844  0.08342  1.0000
  C   C280      1.0  0.29792  0.74607  0.06556  1.0000
  Fe  Fe16      1.0  0.28961  0.79948  0.08678  1.0000
  S   S33       1.0  0.25902  0.77046  0.06634  1.0000
  H   H233      1.0  0.20054  0.85668  0.01885  1.0000
  H   H234      1.0  0.18534  0.75436  0.99565  1.0000
  H   H235      1.0  0.24485  0.79059  0.13280  1.0000
  H   H236      1.0  0.28978  0.76250  0.97027  1.0000
  H   H237      1.0  0.30937  0.98632  0.48259  1.0000
  H   H238      1.0  0.20664  0.78188  0.14315  1.0000
  C   C281      1.0  0.30174  0.75838  0.03015  1.0000
  C   C282      1.0  0.26163  0.80865  0.18791  1.0000
  H   H239      1.0  0.29653  0.84690  0.97078  1.0000
  H   H240      1.0  0.27926  0.83091  0.23749  1.0000
  H   H241      1.0  0.21087  0.79091  0.00803  1.0000
  C   C283      1.0  0.28337  0.84084  0.99125  1.0000
  H   H242      1.0  0.18244  0.85836  0.08343  1.0000
  C   C284      1.0  0.25462  0.81181  0.02182  1.0000
  H   H243      1.0  0.23970  0.75701  0.14986  1.0000
  H   H244      1.0  0.24578  0.79531  0.02451  1.0000
  C   C285      1.0  0.26912  0.82763  0.20973  1.0000
  C   C286      1.0  0.26433  0.84275  0.19463  1.0000
  C   C287      1.0  0.25193  0.83886  0.15783  1.0000
  C   C288      1.0  0.24408  0.81969  0.13606  1.0000
  C   C289      1.0  0.28700  0.75259  0.99707  1.0000
  P   P9        1.0  0.23039  0.81559  0.08569  1.0000
  C   C290      1.0  0.21565  0.82958  0.08512  1.0000
  C   C291      1.0  0.25023  0.82528  0.04669  1.0000
  C   C292      1.0  0.26278  0.84665  0.04386  1.0000
  C   C293      1.0  0.27918  0.85436  0.01603  1.0000
  H   H245      1.0  0.26607  0.79729  0.19868  1.0000
  C   C294      1.0  0.20503  0.83023  0.12127  1.0000
  C   C295      1.0  0.19319  0.84068  0.12070  1.0000
  C   C296      1.0  0.19167  0.85032  0.08389  1.0000
  C   C297      1.0  0.20189  0.84940  0.04753  1.0000
  C   C298      1.0  0.21374  0.83895  0.04800  1.0000
  S   S34       1.0  0.31446  0.81274  0.03766  1.0000
  H   H246      1.0  0.27465  0.80904  0.97587  1.0000
  H   H247      1.0  0.30941  0.75113  0.09125  1.0000
  H   H248      1.0  0.27802  0.76995  0.19889  1.0000
  C   C299      1.0  0.27107  0.81957  0.99413  1.0000
  C   C300      1.0  0.20233  0.77611  0.11077  1.0000
  C   C301      1.0  0.24943  0.80480  0.15087  1.0000
  H   H249      1.0  0.27077  0.85770  0.21083  1.0000
  H   H250      1.0  0.24902  0.85102  0.14578  1.0000
  S   S35       1.0  0.31101  0.79731  0.13591  1.0000
  H   H251      1.0  0.26026  0.85735  0.06392  1.0000
  H   H252      1.0  0.28922  0.87083  0.01472  1.0000
  H   H253      1.0  0.22127  0.83809  0.01933  1.0000
  H   H254      1.0  0.20586  0.82259  0.14982  1.0000
  H   H255      1.0  0.18508  0.84120  0.14874  1.0000
  C   C302      1.0  0.18755  0.75554  0.10348  1.0000
  C   C303      1.0  0.28165  0.75721  0.19823  1.0000
  C   C304      1.0  0.23016  0.74577  0.12579  1.0000
  H   H256      1.0  0.31618  0.92435  0.54551  1.0000
  H   H257      1.0  0.31606  0.77260  0.02869  1.0000
  H   H258      1.0  0.31334  0.91702  0.46790  1.0000
  C   C305      1.0  0.29144  0.75377  0.23332  1.0000
  H   H259      1.0  0.26973  0.74767  0.13452  1.0000
  H   H260      1.0  0.18097  0.74550  0.12992  1.0000
  C   C306      1.0  0.27696  0.74454  0.16175  1.0000
  C   C307      1.0  0.18161  0.74767  0.06203  1.0000
  Fe  Fe17      1.0  0.31910  0.82996  0.15590  1.0000
  C   C308      1.0  0.31968  0.93278  0.47997  1.0000
  C   C309      1.0  0.38591  0.04536  0.45077  1.0000
  C   C310      1.0  0.53320  0.16940  0.01378  1.0000
  S   S36       1.0  0.57908  0.02589  0.82797  1.0000
  C   C311      1.0  0.49541  0.16236  0.97669  1.0000
  S   S37       1.0  0.39183  0.01469  0.90778  1.0000
  S   S38       1.0  0.42378  0.00539  0.81677  1.0000
  C   C312      1.0  0.63753  0.20018  0.03052  1.0000
  C   C313      1.0  0.58253  0.07398  0.29624  1.0000
  C   C314      1.0  0.48464  0.99350  0.73617  1.0000
  H   H261      1.0  0.41011  0.01551  0.44590  1.0000
  C   C315      1.0  0.57446  0.21531  0.00802  1.0000
  S   S39       1.0  0.42363  0.02435  0.35464  1.0000
  Fe  Fe18      1.0  0.62894  0.09996  0.11139  1.0000
  S   S40       1.0  0.61232  0.09513  0.04831  1.0000
  S   S41       1.0  0.60764  0.07623  0.15771  1.0000
  C   C316      1.0  0.61915  0.14014  0.39456  1.0000
  Fe  Fe19      1.0  0.62179  0.12889  0.05245  1.0000
  S   S42       1.0  0.59853  0.13969  0.03269  1.0000
  H   H262      1.0  0.42700  0.99760  0.61947  1.0000
  H   H263      1.0  0.57124  0.08692  0.37407  1.0000
  S   S43       1.0  0.63660  0.13351  0.11718  1.0000
  Fe  Fe20      1.0  0.46688  0.10823  0.05770  1.0000
  S   S44       1.0  0.44155  0.10948  0.09454  1.0000
  S   S45       1.0  0.46499  0.09717  0.98905  1.0000
  Fe  Fe21      1.0  0.49697  0.12361  0.13339  1.0000
  S   S46       1.0  0.47364  0.12567  0.17628  1.0000
  S   S47       1.0  0.52823  0.12929  0.16005  1.0000
  Fe  Fe22      1.0  0.45132  0.09487  0.14689  1.0000
  S   S48       1.0  0.42738  0.06466  0.17458  1.0000
  Fe  Fe23      1.0  0.46582  0.14054  0.12084  1.0000
  S   S49       1.0  0.46006  0.16862  0.13677  1.0000
  S   S50       1.0  0.47522  0.09200  0.10792  1.0000
  S   S51       1.0  0.49073  0.14016  0.08022  1.0000
  C   C317      1.0  0.57913  0.13689  0.06838  1.0000
  C   C318      1.0  0.58250  0.13732  0.11230  1.0000
  C   C319      1.0  0.56690  0.13537  0.14008  1.0000
  C   C320      1.0  0.54771  0.13261  0.12417  1.0000
  C   C321      1.0  0.54438  0.13231  0.08026  1.0000
  C   C322      1.0  0.56013  0.13465  0.05250  1.0000
  H   H264      1.0  0.59713  0.13919  0.12485  1.0000
  H   H265      1.0  0.56959  0.13565  0.17399  1.0000
  H   H266      1.0  0.52965  0.13021  0.06772  1.0000
  H   H267      1.0  0.55747  0.13437  0.01856  1.0000
  C   C323      1.0  0.46357  0.19315  0.11786  1.0000
  C   C324      1.0  0.46898  0.19940  0.07616  1.0000
  C   C325      1.0  0.47094  0.21861  0.06268  1.0000
  H   H268      1.0  0.51055  0.07208  0.00127  1.0000
  C   C326      1.0  0.46044  0.20667  0.14571  1.0000
  H   H269      1.0  0.47128  0.18929  0.05404  1.0000
  H   H270      1.0  0.47485  0.22298  0.03021  1.0000
  H   H271      1.0  0.45621  0.20217  0.17801  1.0000
  C   C327      1.0  0.42771  0.05344  0.22398  1.0000
  C   C328      1.0  0.44025  0.06510  0.25846  1.0000
  C   C329      1.0  0.43877  0.05592  0.29809  1.0000
  C   C330      1.0  0.42508  0.03495  0.30362  1.0000
  C   C331      1.0  0.41292  0.02315  0.26882  1.0000
  C   C332      1.0  0.41413  0.03240  0.22934  1.0000
  H   H272      1.0  0.45058  0.08133  0.25493  1.0000
  H   H273      1.0  0.44807  0.06522  0.32476  1.0000
  H   H274      1.0  0.40226  0.00702  0.27254  1.0000
  H   H275      1.0  0.40426  0.02325  0.20296  1.0000
  C   C333      1.0  0.60962  0.05684  0.18746  1.0000
  C   C334      1.0  0.59143  0.04098  0.20308  1.0000
  C   C335      1.0  0.59204  0.02633  0.23056  1.0000
  C   C336      1.0  0.61094  0.02728  0.24258  1.0000
  C   C337      1.0  0.62915  0.04270  0.22575  1.0000
  C   C338      1.0  0.62852  0.05745  0.19828  1.0000
  H   H276      1.0  0.57678  0.04027  0.19446  1.0000
  H   H277      1.0  0.57791  0.01449  0.24303  1.0000
  H   H278      1.0  0.59654  0.04834  0.46447  1.0000
  H   H279      1.0  0.64267  0.06959  0.18654  1.0000
  H   H280      1.0  0.40966  0.14470  0.09445  1.0000
  C   C339      1.0  0.43977  0.01227  0.12038  1.0000
  C   C340      1.0  0.41332  0.03620  0.93213  1.0000
  C   C341      1.0  0.41193  0.04269  0.97364  1.0000
  C   C342      1.0  0.42804  0.06086  0.99218  1.0000
  C   C343      1.0  0.44538  0.07307  0.96884  1.0000
  C   C344      1.0  0.44702  0.06631  0.92777  1.0000
  C   C345      1.0  0.43120  0.04786  0.90969  1.0000
  H   H281      1.0  0.39817  0.03382  0.99115  1.0000
  H   H282      1.0  0.42671  0.06589  0.02383  1.0000
  H   H283      1.0  0.46046  0.07552  0.90958  1.0000
  H   H284      1.0  0.43249  0.04310  0.87770  1.0000
  C   C346      1.0  0.59709  0.04097  0.86915  1.0000
  C   C347      1.0  0.59521  0.05747  0.88846  1.0000
  C   C348      1.0  0.60965  0.07038  0.91992  1.0000
  C   C349      1.0  0.62656  0.06733  0.93150  1.0000
  C   C350      1.0  0.46234  0.04578  0.44283  1.0000
  C   C351      1.0  0.61348  0.03736  0.88215  1.0000
  H   H285      1.0  0.58251  0.06032  0.87891  1.0000
  H   H286      1.0  0.60811  0.08315  0.93395  1.0000
  H   H287      1.0  0.64346  0.11388  0.19894  1.0000
  C   C352      1.0  0.53496  0.19458  0.10901  1.0000
  S   S52       1.0  0.56814  0.00257  0.35640  1.0000
  H   H288      1.0  0.43887  0.99985  0.28170  1.0000
  C   C353      1.0  0.57247  0.05262  0.28831  1.0000
  C   C354      1.0  0.55472  0.04357  0.26204  1.0000
  C   C355      1.0  0.54682  0.05571  0.24360  1.0000
  C   C356      1.0  0.55671  0.07702  0.25135  1.0000
  C   C357      1.0  0.57453  0.08615  0.27748  1.0000
  H   H289      1.0  0.41713  0.08732  0.88664  1.0000
  C   C358      1.0  0.57047  0.02245  0.96150  1.0000
  H   H290      1.0  0.59320  0.11767  0.94961  1.0000
  C   C359      1.0  0.60737  0.04184  0.06705  1.0000
  C   C360      1.0  0.53408  0.02149  0.93000  1.0000
  H   H291      1.0  0.57836  0.04286  0.30191  1.0000
  H   H292      1.0  0.54729  0.02711  0.25564  1.0000
  H   H293      1.0  0.53320  0.04860  0.22289  1.0000
  H   H294      1.0  0.55076  0.08652  0.23656  1.0000
  C   C361      1.0  0.35853  0.00249  0.58484  1.0000
  H   H295      1.0  0.55607  0.03797  0.42215  1.0000
  H   H296      1.0  0.39206  0.11641  0.04092  1.0000
  H   H297      1.0  0.43405  0.11084  0.94870  1.0000
  C   C362      1.0  0.54008  0.05629  0.42705  1.0000
  C   C363      1.0  0.60232  0.24064  0.07163  1.0000
  C   C364      1.0  0.35012  0.06698  0.03782  1.0000
  Fe  Fe24      1.0  0.64290  0.10425  0.01960  1.0000
  P   P10       1.0  0.37645  0.07167  0.04422  1.0000
  C   C365      1.0  0.37712  0.04823  0.05863  1.0000
  C   C366      1.0  0.38893  0.07785  0.99371  1.0000
  C   C367      1.0  0.37948  0.06459  0.95833  1.0000
  C   C368      1.0  0.33561  0.05551  0.06792  1.0000
  H   H298      1.0  0.65220  0.21870  0.97747  1.0000
  H   H299      1.0  0.44891  0.02384  0.97751  1.0000
  C   C369      1.0  0.39431  0.04912  0.08084  1.0000
  C   C370      1.0  0.39539  0.03103  0.08979  1.0000
  C   C371      1.0  0.37956  0.01193  0.07577  1.0000
  C   C372      1.0  0.36258  0.01089  0.05282  1.0000
  C   C373      1.0  0.36136  0.02895  0.04418  1.0000
  C   C374      1.0  0.38812  0.09223  0.08405  1.0000
  C   C375      1.0  0.39030  0.08791  0.12658  1.0000
  C   C376      1.0  0.39995  0.10399  0.15683  1.0000
  H   H300      1.0  0.41694  0.10441  0.01689  1.0000
  C   C377      1.0  0.37313  0.00666  0.66932  1.0000
  C   C378      1.0  0.53805  0.03525  0.36549  1.0000
  C   C379      1.0  0.62028  0.04041  0.03660  1.0000
  H   H301      1.0  0.48336  0.05546  0.09546  1.0000
  C   C380      1.0  0.40016  0.03869  0.43883  1.0000
  H   H302      1.0  0.35543  0.08560  0.98225  1.0000
  H   H303      1.0  0.34004  0.04903  0.09439  1.0000
  H   H304      1.0  0.36469  0.05104  0.96092  1.0000
  H   H305      1.0  0.48299  0.99881  0.30718  1.0000
  C   C381      1.0  0.47964  0.02453  0.09158  1.0000
  H   H306      1.0  0.40712  0.06380  0.09066  1.0000
  H   H307      1.0  0.40870  0.03197  0.10717  1.0000
  H   H308      1.0  0.62336  0.20121  0.02575  1.0000
  C   C382      1.0  0.54890  0.18889  0.12845  1.0000
  H   H309      1.0  0.34837  0.02786  0.02531  1.0000
  H   H310      1.0  0.38498  0.07224  0.13654  1.0000
  H   H311      1.0  0.40240  0.10061  0.18914  1.0000
  C   C383      1.0  0.56706  0.21797  0.04722  1.0000
  H   H312      1.0  0.50511  0.00125  0.84349  1.0000
  C   C384      1.0  0.45320  0.03316  0.11478  1.0000
  H   H313      1.0  0.58530  0.02390  0.97159  1.0000
  H   H314      1.0  0.38259  0.05729  0.89321  1.0000
  C   C385      1.0  0.40866  0.09463  0.98983  1.0000
  C   C386      1.0  0.32397  0.07293  0.00117  1.0000
  C   C387      1.0  0.60720  0.06708  0.36443  1.0000
  H   H315      1.0  0.52613  0.99751  0.41357  1.0000
  C   C388      1.0  0.54583  0.04283  0.40637  1.0000
  C   C389      1.0  0.46627  0.00363  0.09720  1.0000
  C   C390      1.0  0.45368  0.01262  0.27473  1.0000
  C   C391      1.0  0.45968  0.01674  0.23280  1.0000
  C   C392      1.0  0.47878  0.03324  0.22393  1.0000
  C   C393      1.0  0.49152  0.04611  0.25699  1.0000
  C   C394      1.0  0.48499  0.04283  0.29914  1.0000
  C   C395      1.0  0.46629  0.02554  0.30780  1.0000
  P   P11       1.0  0.50015  0.06121  0.34103  1.0000
  C   C396      1.0  0.51339  0.08609  0.31694  1.0000
  C   C397      1.0  0.48346  0.06178  0.38214  1.0000
  C   C398      1.0  0.47533  0.04567  0.41098  1.0000
  C   C399      1.0  0.46584  0.07834  0.41851  1.0000
  C   C400      1.0  0.47884  0.07828  0.38657  1.0000
  C   C401      1.0  0.53472  0.09855  0.32358  1.0000
  C   C402      1.0  0.54507  0.11688  0.30170  1.0000
  C   C403      1.0  0.53420  0.12283  0.27294  1.0000
  C   C404      1.0  0.51294  0.11063  0.26653  1.0000
  C   C405      1.0  0.50254  0.09239  0.28852  1.0000
  C   C406      1.0  0.51833  0.05422  0.36590  1.0000
  C   C407      1.0  0.52424  0.04078  0.34532  1.0000
  P   P12       1.0  0.60540  0.08586  0.33041  1.0000
  C   C408      1.0  0.52208  0.15203  0.98728  1.0000
  H   H316      1.0  0.54599  0.06204  0.45894  1.0000
  C   C409      1.0  0.52649  0.06210  0.40681  1.0000
  H   H317      1.0  0.62666  0.02013  0.99653  1.0000
  H   H318      1.0  0.44934  0.00730  0.20732  1.0000
  H   H319      1.0  0.48344  0.03646  0.19136  1.0000
  H   H320      1.0  0.50605  0.05907  0.24932  1.0000
  H   H321      1.0  0.46097  0.02220  0.33979  1.0000
  H   H322      1.0  0.47873  0.03281  0.40841  1.0000
  H   H323      1.0  0.46196  0.09088  0.42115  1.0000
  H   H324      1.0  0.48488  0.09097  0.36513  1.0000
  H   H325      1.0  0.54348  0.09395  0.34479  1.0000
  H   H326      1.0  0.56158  0.12633  0.30640  1.0000
  H   H327      1.0  0.54222  0.13672  0.25499  1.0000
  H   H328      1.0  0.50461  0.11511  0.24363  1.0000
  H   H329      1.0  0.48610  0.08290  0.28245  1.0000
  H   H330      1.0  0.51802  0.03427  0.31403  1.0000
  C   C410      1.0  0.46792  0.23221  0.09060  1.0000
  C   C411      1.0  0.37053  0.03400  0.47924  1.0000
  H   H331      1.0  0.61231  0.09871  0.24100  1.0000
  H   H332      1.0  0.52212  0.07250  0.42331  1.0000
  C   C412      1.0  0.55425  0.08073  0.10513  1.0000
  C   C413      1.0  0.55730  0.06653  0.12921  1.0000
  C   C414      1.0  0.55277  0.04727  0.11144  1.0000
  C   C415      1.0  0.54570  0.04241  0.06922  1.0000
  C   C416      1.0  0.54385  0.05712  0.04403  1.0000
  C   C417      1.0  0.54753  0.07610  0.06268  1.0000
  P   P13       1.0  0.53554  0.05116  0.98902  1.0000
  C   C418      1.0  0.54756  0.07386  0.95767  1.0000
  C   C419      1.0  0.54435  0.03404  0.96580  1.0000
  H   H333      1.0  0.41180  0.04723  0.41601  1.0000
  C   C420      1.0  0.56305  0.03497  0.98038  1.0000
  C   C421      1.0  0.38704  0.01380  0.63641  1.0000
  C   C422      1.0  0.46270  0.22601  0.13240  1.0000
  C   C423      1.0  0.38377  0.00930  0.48391  1.0000
  C   C424      1.0  0.53716  0.07596  0.92169  1.0000
  C   C425      1.0  0.54681  0.09319  0.89637  1.0000
  C   C426      1.0  0.52571  0.18365  0.02117  1.0000
  C   C427      1.0  0.57752  0.10606  0.94178  1.0000
  C   C428      1.0  0.56791  0.08889  0.96717  1.0000
  C   C429      1.0  0.50796  0.04186  0.98749  1.0000
  C   C430      1.0  0.49408  0.02096  0.97963  1.0000
  C   C431      1.0  0.60359  0.10574  0.36194  1.0000
  C   C432      1.0  0.44622  0.99731  0.11165  1.0000
  C   C433      1.0  0.47896  0.04931  0.99170  1.0000
  C   C434      1.0  0.50019  0.05591  0.99446  1.0000
  H   H334      1.0  0.55753  0.09552  0.11913  1.0000
  H   H335      1.0  0.56364  0.07065  0.16132  1.0000
  H   H336      1.0  0.55528  0.03637  0.13014  1.0000
  H   H337      1.0  0.54234  0.02746  0.05589  1.0000
  H   H338      1.0  0.54569  0.08755  0.04435  1.0000
  H   H339      1.0  0.57241  0.04595  0.00519  1.0000
  H   H340      1.0  0.44816  0.04466  0.12168  1.0000
  H   H341      1.0  0.49802  0.00701  0.40079  1.0000
  C   C435      1.0  0.59070  0.02403  0.08120  1.0000
  C   C436      1.0  0.58296  0.11693  0.40417  1.0000
  H   H342      1.0  0.52169  0.06421  0.91285  1.0000
  H   H343      1.0  0.53870  0.09472  0.86867  1.0000
  H   H344      1.0  0.49501  0.02936  0.07996  1.0000
  H   H345      1.0  0.54242  0.02471  0.34967  1.0000
  H   H346      1.0  0.57642  0.08736  0.99407  1.0000
  C   C437      1.0  0.61037  0.03793  0.41668  1.0000
  C   C438      1.0  0.55960  0.00924  0.92736  1.0000
  C   C439      1.0  0.61725  0.04015  0.37513  1.0000
  H   H347      1.0  0.47316  0.06031  0.99661  1.0000
  C   C440      1.0  0.38951  0.06816  0.91972  1.0000
  H   H348      1.0  0.55535  0.17505  0.18256  1.0000
  H   H349      1.0  0.56264  0.19081  0.11259  1.0000
  H   H350      1.0  0.61519  0.02480  0.86754  1.0000
  C   C441      1.0  0.62828  0.05066  0.91265  1.0000
  C   C442      1.0  0.60021  0.13612  0.41167  1.0000
  H   H351      1.0  0.49806  0.17782  0.18388  1.0000
  C   C443      1.0  0.61547  0.05448  0.34892  1.0000
  C   C444      1.0  0.51244  0.18124  0.16878  1.0000
  C   C445      1.0  0.41851  0.09834  0.95099  1.0000
  C   C446      1.0  0.64746  0.10122  0.31658  1.0000
  C   C447      1.0  0.45755  0.06207  0.44653  1.0000
  H   H352      1.0  0.49604  0.00767  0.75166  1.0000
  C   C448      1.0  0.47307  0.03928  0.10026  1.0000
  C   C449      1.0  0.61655  0.02114  0.02012  1.0000
  C   C450      1.0  0.50650  0.17978  0.00314  1.0000
  H   H353      1.0  0.42447  0.00799  0.13173  1.0000
  H   H354      1.0  0.52772  0.14089  0.98220  1.0000
  S   S53       1.0  0.65140  0.13806  0.01797  1.0000
  C   C451      1.0  0.40702  0.12443  0.14511  1.0000
  H   H355      1.0  0.45568  0.03302  0.46417  1.0000
  C   C452      1.0  0.40400  0.12879  0.10338  1.0000
  H   H356      1.0  0.64133  0.04821  0.92118  1.0000
  H   H357      1.0  0.62627  0.18052  0.08422  1.0000
  C   C453      1.0  0.46530  0.02870  0.98148  1.0000
  C   C454      1.0  0.56697  0.10827  0.90648  1.0000
  C   C455      1.0  0.54483  0.17992  0.16821  1.0000
  H   H358      1.0  0.57449  0.12158  0.88684  1.0000
  H   H359      1.0  0.44724  0.06198  0.47084  1.0000
  C   C456      1.0  0.52899  0.23524  0.08755  1.0000
  H   H360      1.0  0.38663  0.05919  0.43741  1.0000
  C   C457      1.0  0.60200  0.05029  0.43231  1.0000
  H   H361      1.0  0.49440  0.13482  0.94889  1.0000
  H   H362      1.0  0.39096  0.01676  0.56949  1.0000
  C   C458      1.0  0.39429  0.11274  0.07308  1.0000
  H   H363      1.0  0.61061  0.05677  0.08042  1.0000
  H   H364      1.0  0.41513  0.13697  0.16814  1.0000
  P   P14       1.0  0.53977  0.20548  0.05702  1.0000
  H   H365      1.0  0.61116  0.02634  0.43652  1.0000
  C   C459      1.0  0.52660  0.17607  0.18836  1.0000
  H   H366      1.0  0.52312  0.16845  0.21847  1.0000
  C   C460      1.0  0.51647  0.19023  0.12902  1.0000
  H   H367      1.0  0.49953  0.00969  0.97564  1.0000
  H   H368      1.0  0.56391  0.20588  0.98272  1.0000
  H   H369      1.0  0.54742  0.17147  0.02920  1.0000
  C   C461      1.0  0.40901  0.08504  0.91603  1.0000
  H   H370      1.0  0.56831  0.11378  0.41764  1.0000
  H   H371      1.0  0.63337  0.05423  0.02623  1.0000
  H   H372      1.0  0.48043  0.15920  0.96345  1.0000
  C   C462      1.0  0.39918  0.02076  0.45563  1.0000
  C   C463      1.0  0.50325  0.14857  0.96856  1.0000
  H   H373      1.0  0.50495  0.19345  0.11368  1.0000
  H   H374      1.0  0.58147  0.02553  0.10608  1.0000
  C   C464      1.0  0.59995  0.00325  0.03435  1.0000
  H   H375      1.0  0.49975  0.18979  0.01036  1.0000
  H   H376      1.0  0.52074  0.02188  0.91552  1.0000
  H   H377      1.0  0.45905  0.99929  0.75024  1.0000
  H   H378      1.0  0.62041  0.05555  0.31644  1.0000
  C   C465      1.0  0.58466  0.10179  0.37947  1.0000
  C   C466      1.0  0.34429  0.07604  0.00490  1.0000
  S   S54       1.0  0.64672  0.08486  0.96652  1.0000
  S   S55       1.0  0.61222  0.00987  0.27955  1.0000
  H   H379      1.0  0.62347  0.03035  0.36279  1.0000
  H   H380      1.0  0.58225  0.10273  0.28255  1.0000
  C   C467      1.0  0.59569  0.22491  0.00110  1.0000
  H   H381      1.0  0.38065  0.99799  0.08202  1.0000
  C   C468      1.0  0.60053  0.06492  0.40644  1.0000
  C   C469      1.0  0.62089  0.12500  0.36986  1.0000
  H   H382      1.0  0.56594  0.00030  0.91148  1.0000
  H   H383      1.0  0.61006  0.99857  0.12151  1.0000
  C   C470      1.0  0.37982  0.01157  0.59429  1.0000
  H   H384      1.0  0.59411  0.07434  0.41942  1.0000
  H   H385      1.0  0.46236  0.99868  0.96643  1.0000
  C   C471      1.0  0.58668  0.00460  0.06450  1.0000
  H   H386      1.0  0.63254  0.15501  0.40046  1.0000
  C   C472      1.0  0.32926  0.00868  0.53058  1.0000
  C   C473      1.0  0.54157  0.00893  0.91129  1.0000
  H   H387      1.0  0.35057  0.99611  0.04093  1.0000
  C   C474      1.0  0.62692  0.10194  0.25613  1.0000
  H   H388      1.0  0.35954  0.03935  0.48758  1.0000
  C   C475      1.0  0.53141  0.22500  0.05166  1.0000
  C   C476      1.0  0.47287  0.01452  0.97559  1.0000
  C   C477      1.0  0.62816  0.09712  0.29864  1.0000
  P   P15       1.0  0.34884  0.00023  0.53076  1.0000
  H   H389      1.0  0.59893  0.14787  0.43086  1.0000
  H   H390      1.0  0.34561  0.03344  0.57706  1.0000
  H   H391      1.0  0.37887  0.00774  0.70175  1.0000
  H   H392      1.0  0.64385  0.04352  0.23473  1.0000
  H   H393      1.0  0.53403  0.99967  0.88300  1.0000
  C   C478      1.0  0.63915  0.18851  0.06358  1.0000
  C   C479      1.0  0.36928  0.01580  0.49587  1.0000
  H   H394      1.0  0.40346  0.02037  0.64363  1.0000
  H   H395      1.0  0.50296  0.99721  0.14946  1.0000
  C   C480      1.0  0.53079  0.99543  0.16523  1.0000
  C   C481      1.0  0.64465  0.11060  0.23198  1.0000
  H   H396      1.0  0.60131  0.22261  0.97097  1.0000
  C   C482      1.0  0.33200  0.02563  0.55644  1.0000
  H   H397      1.0  0.57564  0.23368  0.10871  1.0000
  H   H398      1.0  0.55369  0.99489  0.55626  1.0000
  C   C483      1.0  0.51508  0.99416  0.13756  1.0000
  H   H399      1.0  0.53178  0.23151  0.11925  1.0000
  H   H400      1.0  0.63570  0.12845  0.35695  1.0000
  Fe  Fe25      1.0  0.39794  0.99377  0.86235  1.0000
  H   H401      1.0  0.53071  0.99919  0.19866  1.0000
  H   H402      1.0  0.46024  0.23606  0.15448  1.0000
  C   C484      1.0  0.35194  0.99768  0.66027  1.0000
  C   C485      1.0  0.34465  0.99576  0.61825  1.0000
  H   H403      1.0  0.53111  0.22392  0.98298  1.0000
  H   H404      1.0  0.64883  0.09765  0.34931  1.0000
  H   H405      1.0  0.38300  0.99524  0.49614  1.0000
  C   C486      1.0  0.52864  0.23110  0.01107  1.0000
  C   C487      1.0  0.60962  0.23749  0.03297  1.0000
  C   C488      1.0  0.58111  0.23103  0.07867  1.0000
  Fe  Fe26      1.0  0.57085  0.99341  0.80288  1.0000
  C   C489      1.0  0.49519  0.99362  0.41902  1.0000
  Fe  Fe27      1.0  0.42537  0.40856  0.82930  1.0000
  S   S56       1.0  0.40504  0.41333  0.78140  1.0000
  S   S57       1.0  0.45777  0.43046  0.85089  1.0000
  Fe  Fe28      1.0  0.39493  0.36438  0.84324  1.0000
  S   S58       1.0  0.37163  0.36495  0.79596  1.0000
  S   S59       1.0  0.39077  0.33683  0.88157  1.0000
  Fe  Fe29      1.0  0.39853  0.38261  0.75329  1.0000
  S   S60       1.0  0.40490  0.37852  0.68342  1.0000
  Fe  Fe30      1.0  0.37977  0.39596  0.82711  1.0000
  S   S61       1.0  0.35804  0.40959  0.84017  1.0000
  S   S62       1.0  0.42083  0.37909  0.79851  1.0000
  S   S63       1.0  0.40086  0.39382  0.87695  1.0000
  Fe  Fe31      1.0  0.38554  0.38640  0.43262  1.0000
  S   S64       1.0  0.38139  0.40833  0.38914  1.0000
  S   S65       1.0  0.37212  0.38582  0.49824  1.0000
  Fe  Fe32      1.0  0.40959  0.37615  0.36519  1.0000
  S   S66       1.0  0.40762  0.39771  0.31805  1.0000
  S   S67       1.0  0.43033  0.36152  0.35112  1.0000
  Fe  Fe33      1.0  0.41428  0.41932  0.37351  1.0000
  S   S68       1.0  0.43337  0.45299  0.36347  1.0000
  Fe  Fe34      1.0  0.37473  0.38511  0.33649  1.0000
  S   S69       1.0  0.35150  0.37986  0.28290  1.0000
  S   S70       1.0  0.41932  0.39928  0.42025  1.0000
  S   S71       1.0  0.37576  0.36152  0.38064  1.0000
  C   C490      1.0  0.58067  0.44385  0.30452  1.0000
  Fe  Fe35      1.0  0.46623  0.32401  0.05325  1.0000
  S   S72       1.0  0.47316  0.34112  0.11589  1.0000
  S   S73       1.0  0.46553  0.34506  0.00118  1.0000
  Fe  Fe36      1.0  0.46961  0.28659  0.09315  1.0000
  S   S74       1.0  0.47667  0.30203  0.15860  1.0000
  P   P16       1.0  0.32915  0.42234  0.40434  1.0000
  Fe  Fe37      1.0  0.45162  0.31096  0.14318  1.0000
  S   S75       1.0  0.42527  0.31038  0.18158  1.0000
  Fe  Fe38      1.0  0.49755  0.33128  0.12531  1.0000
  S   S76       1.0  0.52874  0.35595  0.15029  1.0000
  S   S77       1.0  0.44305  0.29387  0.07949  1.0000
  S   S78       1.0  0.49218  0.31580  0.06131  1.0000
  S   S79       1.0  0.60406  0.47677  0.07154  1.0000
  C   C491      1.0  0.48910  0.48772  0.92602  1.0000
  Fe  Fe39      1.0  0.61398  0.45313  0.05305  1.0000
  S   S80       1.0  0.58945  0.42279  0.02446  1.0000
  C   C492      1.0  0.49430  0.44504  0.06472  1.0000
  H   H406      1.0  0.49777  0.46492  0.84538  1.0000
  C   C493      1.0  0.61780  0.46203  0.69840  1.0000
  C   C494      1.0  0.54554  0.37430  0.11485  1.0000
  C   C495      1.0  0.56251  0.39226  0.13120  1.0000
  C   C496      1.0  0.57607  0.40722  0.10383  1.0000
  C   C497      1.0  0.57299  0.40414  0.05981  1.0000
  C   C498      1.0  0.55634  0.38596  0.04346  1.0000
  C   C499      1.0  0.54245  0.37125  0.07080  1.0000
  H   H407      1.0  0.56506  0.39472  0.16519  1.0000
  H   H408      1.0  0.58894  0.42109  0.11685  1.0000
  H   H409      1.0  0.55404  0.38334  0.00950  1.0000
  H   H410      1.0  0.52954  0.35744  0.05775  1.0000
  C   C500      1.0  0.42923  0.34857  0.30224  1.0000
  C   C501      1.0  0.41138  0.33996  0.27618  1.0000
  C   C502      1.0  0.41060  0.32871  0.23885  1.0000
  C   C503      1.0  0.42773  0.32624  0.22676  1.0000
  C   C504      1.0  0.44582  0.33541  0.25210  1.0000
  C   C505      1.0  0.44643  0.34625  0.28996  1.0000
  H   H411      1.0  0.39795  0.34141  0.28541  1.0000
  H   H412      1.0  0.39651  0.32156  0.21959  1.0000
  H   H413      1.0  0.45902  0.33342  0.24340  1.0000
  H   H414      1.0  0.46021  0.35255  0.31009  1.0000
  H   H415      1.0  0.40603  0.33626  0.72639  1.0000
  C   C506      1.0  0.36470  0.42175  0.27820  1.0000
  H   H416      1.0  0.37426  0.45428  0.27461  1.0000
  H   H417      1.0  0.37520  0.42362  0.30445  1.0000
  C   C507      1.0  0.35232  0.36214  0.03146  1.0000
  C   C508      1.0  0.55455  0.37674  0.33818  1.0000
  C   C509      1.0  0.36420  0.43912  0.26116  1.0000
  C   C510      1.0  0.45952  0.45965  0.36437  1.0000
  C   C511      1.0  0.46628  0.44559  0.37731  1.0000
  C   C512      1.0  0.48746  0.45167  0.38079  1.0000
  C   C513      1.0  0.44391  0.42181  0.97187  1.0000
  H   H418      1.0  0.45528  0.43019  0.38539  1.0000
  H   H419      1.0  0.49277  0.44106  0.39216  1.0000
  C   C514      1.0  0.38317  0.38589  0.54910  1.0000
  C   C515      1.0  0.39757  0.37858  0.55482  1.0000
  C   C516      1.0  0.40424  0.37680  0.59612  1.0000
  C   C517      1.0  0.39692  0.38262  0.63221  1.0000
  C   C518      1.0  0.38340  0.39104  0.62635  1.0000
  C   C519      1.0  0.37626  0.39226  0.58511  1.0000
  H   H420      1.0  0.40290  0.37345  0.52755  1.0000
  H   H421      1.0  0.41482  0.37041  0.60015  1.0000
  H   H422      1.0  0.37819  0.39630  0.65355  1.0000
  H   H423      1.0  0.36523  0.39809  0.58110  1.0000
  C   C520      1.0  0.41117  0.33938  0.91641  1.0000
  C   C521      1.0  0.41014  0.32188  0.93613  1.0000
  C   C522      1.0  0.42648  0.32337  0.96285  1.0000
  C   C523      1.0  0.44394  0.34244  0.97025  1.0000
  C   C524      1.0  0.44480  0.35997  0.95100  1.0000
  C   C525      1.0  0.42846  0.35850  0.92444  1.0000
  H   H424      1.0  0.39678  0.30704  0.93028  1.0000
  H   H425      1.0  0.42568  0.30975  0.97730  1.0000
  H   H426      1.0  0.45826  0.37476  0.95639  1.0000
  H   H427      1.0  0.42936  0.37212  0.90979  1.0000
  C   C526      1.0  0.41614  0.43025  0.95791  1.0000
  C   C527      1.0  0.35119  0.40049  0.92546  1.0000
  C   C528      1.0  0.35087  0.41279  0.89229  1.0000
  H   H428      1.0  0.35677  0.38938  0.92001  1.0000
  C   C529      1.0  0.32577  0.44507  0.33736  1.0000
  C   C530      1.0  0.46584  0.45441  0.82791  1.0000
  C   C531      1.0  0.45162  0.45960  0.80862  1.0000
  H   H429      1.0  0.32801  0.34497  0.62327  1.0000
  C   C532      1.0  0.48680  0.46845  0.82873  1.0000
  H   H430      1.0  0.43536  0.44955  0.81056  1.0000
  C   C533      1.0  0.39006  0.32830  0.73559  1.0000
  C   C534      1.0  0.34346  0.42712  0.89997  1.0000
  C   C535      1.0  0.34488  0.36057  0.70424  1.0000
  C   C536      1.0  0.46249  0.48941  0.13297  1.0000
  H   H431      1.0  0.61309  0.25056  0.09620  1.0000
  H   H432      1.0  0.50459  0.44725  0.00042  1.0000
  H   H433      1.0  0.35498  0.30374  0.63036  1.0000
  C   C537      1.0  0.32373  0.35806  0.42736  1.0000
  H   H434      1.0  0.33378  0.39239  0.34917  1.0000
  C   C538      1.0  0.51600  0.47410  0.24640  1.0000
  C   C539      1.0  0.49637  0.43698  0.02560  1.0000
  C   C540      1.0  0.38510  0.31939  0.77531  1.0000
  C   C541      1.0  0.58419  0.43202  0.69575  1.0000
  C   C542      1.0  0.60365  0.44341  0.67874  1.0000
  C   C543      1.0  0.59616  0.46030  0.84588  1.0000
  C   C544      1.0  0.61249  0.46931  0.73499  1.0000
  C   C545      1.0  0.59289  0.45806  0.75219  1.0000
  C   C546      1.0  0.57882  0.43926  0.73236  1.0000
  H   H435      1.0  0.57322  0.41760  0.68040  1.0000
  C   C547      1.0  0.54740  0.46792  0.67883  1.0000
  C   C548      1.0  0.32804  0.36637  0.38704  1.0000
  P   P17       1.0  0.51753  0.47398  0.55356  1.0000
  H   H436      1.0  0.56365  0.43016  0.74465  1.0000
  H   H437      1.0  0.51121  0.38819  0.33893  1.0000
  H   H438      1.0  0.55427  0.40519  0.35450  1.0000
  C   C549      1.0  0.47712  0.40235  0.05106  1.0000
  H   H439      1.0  0.48896  0.40932  0.98822  1.0000
  C   C550      1.0  0.61506  0.45973  0.84479  1.0000
  H   H440      1.0  0.52454  0.44418  0.50087  1.0000
  C   C551      1.0  0.48328  0.43178  0.09714  1.0000
  C   C552      1.0  0.47487  0.41034  0.09008  1.0000
  P   P18       1.0  0.47802  0.44249  0.14477  1.0000
  C   C553      1.0  0.45990  0.42227  0.17699  1.0000
  C   C554      1.0  0.50078  0.45661  0.17864  1.0000
  C   C555      1.0  0.49872  0.46358  0.21924  1.0000
  C   C556      1.0  0.33580  0.34418  0.96526  1.0000
  S   S81       1.0  0.35010  0.45936  0.20837  1.0000
  H   H441      1.0  0.51157  0.40039  0.13144  1.0000
  H   H442      1.0  0.57410  0.44866  0.14510  1.0000
  C   C557      1.0  0.44026  0.42043  0.18461  1.0000
  C   C558      1.0  0.42668  0.40485  0.21035  1.0000
  C   C559      1.0  0.43250  0.39097  0.22829  1.0000
  C   C560      1.0  0.45204  0.39282  0.22120  1.0000
  C   C561      1.0  0.46579  0.40854  0.19604  1.0000
  C   C562      1.0  0.46675  0.45850  0.12688  1.0000
  C   C563      1.0  0.45252  0.45163  0.09230  1.0000
  C   C564      1.0  0.41171  0.40401  0.00872  1.0000
  S   S82       1.0  0.63413  0.45790  0.11117  1.0000
  H   H443      1.0  0.45909  0.42376  0.96462  1.0000
  H   H444      1.0  0.40983  0.43872  0.94026  1.0000
  H   H445      1.0  0.47046  0.38575  0.04565  1.0000
  C   C565      1.0  0.44847  0.48252  0.09844  1.0000
  H   H446      1.0  0.32193  0.33491  0.94628  1.0000
  H   H447      1.0  0.48280  0.48348  0.17327  1.0000
  H   H448      1.0  0.46617  0.39959  0.11393  1.0000
  H   H449      1.0  0.48369  0.46061  0.23018  1.0000
  C   C566      1.0  0.35078  0.43704  0.22691  1.0000
  C   C567      1.0  0.32799  0.37273  0.75427  1.0000
  C   C568      1.0  0.37033  0.43576  0.67693  1.0000
  H   H450      1.0  0.34299  0.39186  0.99018  1.0000
  H   H451      1.0  0.43531  0.43093  0.17109  1.0000
  C   C569      1.0  0.35514  0.35044  0.94784  1.0000
  H   H452      1.0  0.42192  0.37886  0.24805  1.0000
  H   H453      1.0  0.45651  0.38207  0.23556  1.0000
  H   H454      1.0  0.48098  0.40988  0.19122  1.0000
  H   H455      1.0  0.44827  0.43692  0.07638  1.0000
  H   H456      1.0  0.47960  0.43054  0.28500  1.0000
  C   C570      1.0  0.48546  0.39445  0.34134  1.0000
  C   C571      1.0  0.55145  0.39378  0.32951  1.0000
  H   H457      1.0  0.40895  0.32440  0.03899  1.0000
  C   C572      1.0  0.53429  0.33402  0.95677  1.0000
  C   C573      1.0  0.51506  0.31759  0.96522  1.0000
  C   C574      1.0  0.49704  0.31869  0.95425  1.0000
  C   C575      1.0  0.49821  0.33616  0.93478  1.0000
  C   C576      1.0  0.51744  0.35249  0.92482  1.0000
  C   C577      1.0  0.53550  0.35141  0.93670  1.0000
  P   P19       1.0  0.51902  0.37548  0.90107  1.0000
  C   C578      1.0  0.53984  0.38491  0.86406  1.0000
  C   C579      1.0  0.49494  0.36973  0.87368  1.0000
  C   C580      1.0  0.48436  0.35131  0.84946  1.0000
  C   C581      1.0  0.46528  0.34629  0.82983  1.0000
  C   C582      1.0  0.45681  0.35980  0.83347  1.0000
  C   C583      1.0  0.46752  0.37848  0.85630  1.0000
  C   C584      1.0  0.48640  0.38335  0.87679  1.0000
  C   C585      1.0  0.56036  0.39656  0.87909  1.0000
  C   C586      1.0  0.57659  0.40344  0.85089  1.0000
  H   H458      1.0  0.50962  0.39729  0.20917  1.0000
  C   C587      1.0  0.53588  0.38047  0.82028  1.0000
  C   C588      1.0  0.52458  0.39487  0.94227  1.0000
  C   C589      1.0  0.51929  0.38916  0.98426  1.0000
  C   C590      1.0  0.52495  0.40426  0.01654  1.0000
  C   C591      1.0  0.53554  0.42515  0.00699  1.0000
  C   C592      1.0  0.54003  0.43095  0.96498  1.0000
  C   C593      1.0  0.53459  0.41587  0.93268  1.0000
  H   H459      1.0  0.48212  0.30631  0.96231  1.0000
  H   H460      1.0  0.48404  0.33699  0.92858  1.0000
  H   H461      1.0  0.55057  0.36410  0.93149  1.0000
  H   H462      1.0  0.49061  0.34056  0.84662  1.0000
  H   H463      1.0  0.45683  0.33173  0.81246  1.0000
  H   H464      1.0  0.44175  0.35557  0.81926  1.0000
  H   H465      1.0  0.46084  0.38891  0.85925  1.0000
  H   H466      1.0  0.49403  0.39758  0.89541  1.0000
  H   H467      1.0  0.56389  0.40018  0.91274  1.0000
  H   H468      1.0  0.59236  0.41205  0.86293  1.0000
  H   H469      1.0  0.51122  0.37306  0.99250  1.0000
  H   H470      1.0  0.52126  0.39954  0.04897  1.0000
  H   H471      1.0  0.54014  0.43685  0.03201  1.0000
  H   H472      1.0  0.54807  0.44712  0.95754  1.0000
  H   H473      1.0  0.53844  0.42060  0.90039  1.0000
  C   C594      1.0  0.32938  0.38573  0.38003  1.0000
  C   C595      1.0  0.53666  0.45955  0.49537  1.0000
  Fe  Fe40      1.0  0.33457  0.46039  0.14602  1.0000
  C   C596      1.0  0.55487  0.48758  0.07720  1.0000
  C   C597      1.0  0.45845  0.47824  0.78769  1.0000
  C   C598      1.0  0.33623  0.42899  0.94020  1.0000
  H   H474      1.0  0.63731  0.45388  0.87995  1.0000
  H   H475      1.0  0.39333  0.45252  0.49272  1.0000
  C   C599      1.0  0.34342  0.37685  0.72497  1.0000
  H   H476      1.0  0.33842  0.35175  0.54891  1.0000
  H   H477      1.0  0.41081  0.43007  0.57257  1.0000
  S   S83       1.0  0.32738  0.48657  0.13311  1.0000
  C   C600      1.0  0.47181  0.47760  0.14688  1.0000
  C   C601      1.0  0.59280  0.44995  0.91943  1.0000
  C   C602      1.0  0.39067  0.46082  0.38756  1.0000
  C   C603      1.0  0.35136  0.31433  0.61302  1.0000
  H   H478      1.0  0.41162  0.42270  0.49626  1.0000
  H   H479      1.0  0.62606  0.24492  0.02762  1.0000
  H   H480      1.0  0.51355  0.26708  0.03900  1.0000
  H   H481      1.0  0.32342  0.34338  0.43306  1.0000
  C   C604      1.0  0.37373  0.44121  0.63444  1.0000
  C   C605      1.0  0.33836  0.39993  0.22667  1.0000
  H   H482      1.0  0.32772  0.41565  0.18272  1.0000
  C   C606      1.0  0.49363  0.48720  0.80838  1.0000
  C   C607      1.0  0.36461  0.31000  0.78783  1.0000
  P   P20       1.0  0.43666  0.46644  0.62749  1.0000
  H   H483      1.0  0.41111  0.44367  0.24185  1.0000
  S   S84       1.0  0.32367  0.41535  0.02157  1.0000
  C   C608      1.0  0.39382  0.45048  0.61934  1.0000
  C   C609      1.0  0.34181  0.34114  0.56679  1.0000
  H   H484      1.0  0.44738  0.48212  0.77261  1.0000
  C   C610      1.0  0.61140  0.44905  0.91781  1.0000
  H   H485      1.0  0.62411  0.46379  0.81655  1.0000
  C   C611      1.0  0.55889  0.43614  0.20325  1.0000
  C   C612      1.0  0.55980  0.43793  0.15923  1.0000
  C   C613      1.0  0.54272  0.42521  0.13343  1.0000
  C   C614      1.0  0.52453  0.41086  0.15157  1.0000
  C   C615      1.0  0.52352  0.40911  0.19566  1.0000
  H   H486      1.0  0.52233  0.45398  0.13579  1.0000
  H   H487      1.0  0.54403  0.42588  0.09941  1.0000
  C   C616      1.0  0.42353  0.43688  0.51071  1.0000
  C   C617      1.0  0.57253  0.39902  0.80743  1.0000
  C   C618      1.0  0.41186  0.33853  0.05590  1.0000
  C   C619      1.0  0.54078  0.42159  0.22187  1.0000
  H   H488      1.0  0.57259  0.44587  0.22213  1.0000
  H   H489      1.0  0.35483  0.39262  0.71985  1.0000
  H   H490      1.0  0.51408  0.30427  0.98155  1.0000
  H   H491      1.0  0.52031  0.37147  0.80768  1.0000
  H   H492      1.0  0.37863  0.42098  0.19042  1.0000
  H   H493      1.0  0.39362  0.44203  0.12772  1.0000
  C   C620      1.0  0.56011  0.44035  0.30510  1.0000
  H   H494      1.0  0.33576  0.45864  0.35641  1.0000
  H   H495      1.0  0.54828  0.33347  0.96663  1.0000
  H   H496      1.0  0.39508  0.34650  0.01034  1.0000
  C   C621      1.0  0.45524  0.46866  0.50500  1.0000
  C   C622      1.0  0.55218  0.38756  0.79213  1.0000
  H   H497      1.0  0.58519  0.40435  0.78573  1.0000
  C   C623      1.0  0.45468  0.47310  0.54815  1.0000
  C   C624      1.0  0.38178  0.41410  0.16272  1.0000
  C   C625      1.0  0.39038  0.42601  0.12742  1.0000
  H   H498      1.0  0.55983  0.37511  0.36952  1.0000
  P   P21       1.0  0.53998  0.41765  0.27842  1.0000
  C   C626      1.0  0.37182  0.36854  0.01411  1.0000
  H   H499      1.0  0.33871  0.45992  0.45538  1.0000
  C   C627      1.0  0.51910  0.25577  0.04237  1.0000
  H   H500      1.0  0.47736  0.38263  0.36412  1.0000
  C   C628      1.0  0.55562  0.45491  0.32560  1.0000
  C   C629      1.0  0.50463  0.39762  0.32681  1.0000
  C   C630      1.0  0.54461  0.39596  0.28889  1.0000
  C   C631      1.0  0.51526  0.43954  0.80236  1.0000
  C   C632      1.0  0.52713  0.46003  0.79117  1.0000
  H   H501      1.0  0.49857  0.43297  0.80324  1.0000
  H   H502      1.0  0.51976  0.46939  0.78305  1.0000
  H   H503      1.0  0.57106  0.45674  0.88588  1.0000
  C   C633      1.0  0.41060  0.45373  0.64633  1.0000
  C   C634      1.0  0.34906  0.30956  0.76072  1.0000
  C   C635      1.0  0.57149  0.47275  0.34472  1.0000
  C   C636      1.0  0.37695  0.39327  0.16205  1.0000
  H   H504      1.0  0.36998  0.38400  0.18941  1.0000
  H   H505      1.0  0.53998  0.45273  0.32673  1.0000
  H   H506      1.0  0.46791  0.47906  0.48608  1.0000
  C   C637      1.0  0.52498  0.42770  0.81321  1.0000
  C   C638      1.0  0.54863  0.46881  0.79140  1.0000
  H   H507      1.0  0.56528  0.48132  0.92560  1.0000
  H   H508      1.0  0.51580  0.41182  0.82184  1.0000
  C   C639      1.0  0.59192  0.47622  0.34357  1.0000
  C   C640      1.0  0.47645  0.40625  0.32608  1.0000
  H   H509      1.0  0.54902  0.38394  0.75847  1.0000
  H   H510      1.0  0.58455  0.43299  0.28832  1.0000
  H   H511      1.0  0.48236  0.47138  0.91823  1.0000
  C   C641      1.0  0.51490  0.41270  0.29678  1.0000
  S   S85       1.0  0.35288  0.46504  0.08761  1.0000
  C   C642      1.0  0.34337  0.40193  0.96523  1.0000
  C   C643      1.0  0.45239  0.45807  0.65801  1.0000
  C   C644      1.0  0.55856  0.45701  0.80178  1.0000
  C   C645      1.0  0.54652  0.43641  0.81304  1.0000
  C   C646      1.0  0.53756  0.47005  0.19378  1.0000
  C   C647      1.0  0.59650  0.46176  0.32349  1.0000
  C   C648      1.0  0.55074  0.36173  0.30645  1.0000
  C   C649      1.0  0.44363  0.46393  0.25175  1.0000
  C   C650      1.0  0.54065  0.38070  0.25737  1.0000
  C   C651      1.0  0.43816  0.45975  0.57261  1.0000
  C   C652      1.0  0.39439  0.41718  0.09143  1.0000
  H   H512      1.0  0.55384  0.42709  0.82165  1.0000
  C   C653      1.0  0.54378  0.36372  0.26610  1.0000
  H   H513      1.0  0.55307  0.34848  0.31304  1.0000
  C   C654      1.0  0.53539  0.47723  0.23376  1.0000
  H   H514      1.0  0.49889  0.47673  0.71112  1.0000
  H   H515      1.0  0.53516  0.38171  0.22588  1.0000
  H   H516      1.0  0.40068  0.46803  0.36134  1.0000
  H   H517      1.0  0.40081  0.42673  0.06453  1.0000
  H   H518      1.0  0.37886  0.33542  0.67838  1.0000
  H   H519      1.0  0.61239  0.46466  0.32171  1.0000
  C   C655      1.0  0.55214  0.46203  0.46718  1.0000
  H   H520      1.0  0.34317  0.43672  0.87458  1.0000
  H   H521      1.0  0.51327  0.43586  0.25807  1.0000
  C   C656      1.0  0.50563  0.42435  0.28140  1.0000
  H   H522      1.0  0.38442  0.43592  0.73764  1.0000
  H   H523      1.0  0.51431  0.47931  0.27783  1.0000
  H   H524      1.0  0.54071  0.35208  0.24133  1.0000
  P   P22       1.0  0.58638  0.46771  0.79973  1.0000
  H   H525      1.0  0.55152  0.44876  0.45025  1.0000
  H   H526      1.0  0.43292  0.45851  0.05077  1.0000
  C   C657      1.0  0.48659  0.42130  0.29635  1.0000
  H   H527      1.0  0.51957  0.25053  0.97517  1.0000
  C   C658      1.0  0.35247  0.33173  0.54773  1.0000
  H   H528      1.0  0.58442  0.44635  0.94870  1.0000
  H   H529      1.0  0.45001  0.41636  0.58958  1.0000
  H   H530      1.0  0.51975  0.25755  0.11055  1.0000
  C   C659      1.0  0.52033  0.45973  0.16625  1.0000
  H   H531      1.0  0.43788  0.39798  0.01637  1.0000
  C   C660      1.0  0.38994  0.39633  0.09058  1.0000
  C   C661      1.0  0.38105  0.38441  0.12619  1.0000
  H   H532      1.0  0.63290  0.47090  0.68521  1.0000
  C   C662      1.0  0.42339  0.45937  0.24029  1.0000
  H   H533      1.0  0.39717  0.32029  0.79703  1.0000
  C   C663      1.0  0.46054  0.42413  0.56446  1.0000
  C   C664      1.0  0.56836  0.48166  0.46059  1.0000
  C   C665      1.0  0.38657  0.45196  0.46157  1.0000
  H   H534      1.0  0.33035  0.43988  0.94549  1.0000
  C   C666      1.0  0.33799  0.41737  0.20933  1.0000
  C   C667      1.0  0.39927  0.46223  0.42817  1.0000
  C   C668      1.0  0.58527  0.45570  0.88374  1.0000
  H   H535      1.0  0.52998  0.43513  0.66734  1.0000
  C   C669      1.0  0.47924  0.44179  0.57375  1.0000
  H   H536      1.0  0.43571  0.36574  0.14616  1.0000
  C   C670      1.0  0.48757  0.41564  0.01865  1.0000
  H   H537      1.0  0.33099  0.35813  0.36138  1.0000
  C   C671      1.0  0.35158  0.40203  0.26137  1.0000
  C   C672      1.0  0.43178  0.40716  0.00097  1.0000
  H   H538      1.0  0.46154  0.40367  0.33725  1.0000
  H   H539      1.0  0.42219  0.38859  0.11816  1.0000
  C   C673      1.0  0.40393  0.35115  0.03993  1.0000
  C   C674      1.0  0.52255  0.25034  0.08283  1.0000
  H   H540      1.0  0.48298  0.44760  0.60626  1.0000
  H   H541      1.0  0.44083  0.40284  0.51543  1.0000
  H   H542      1.0  0.35481  0.42873  0.68881  1.0000
  H   H543      1.0  0.42914  0.33381  0.10650  1.0000
  C   C675      1.0  0.40710  0.44878  0.68932  1.0000
  P   P23       1.0  0.33409  0.31944  0.68758  1.0000
  C   C676      1.0  0.41923  0.37471  0.10036  1.0000
  C   C677      1.0  0.42706  0.36195  0.11625  1.0000
  C   C678      1.0  0.62264  0.45415  0.88068  1.0000
  H   H544      1.0  0.44534  0.44445  0.92739  1.0000
  C   C679      1.0  0.35390  0.31823  0.72049  1.0000
  H   H545      1.0  0.43995  0.44722  0.45276  1.0000
  C   C680      1.0  0.45533  0.41650  0.52265  1.0000
  H   H546      1.0  0.51388  0.43816  0.60031  1.0000
  C   C681      1.0  0.35711  0.31821  0.57073  1.0000
  C   C682      1.0  0.43615  0.43346  0.95065  1.0000
  C   C683      1.0  0.52231  0.24629  0.00649  1.0000
  C   C684      1.0  0.42333  0.34386  0.09403  1.0000
  C   C685      1.0  0.53345  0.45023  0.65600  1.0000
  C   C686      1.0  0.37454  0.32775  0.70830  1.0000
  H   H547      1.0  0.36081  0.43839  0.61329  1.0000
  C   C687      1.0  0.49303  0.45169  0.54130  1.0000
  H   H548      1.0  0.60778  0.43784  0.65028  1.0000
  C   C688      1.0  0.40721  0.36919  0.06247  1.0000
  H   H549      1.0  0.39622  0.45510  0.58664  1.0000
  C   C689      1.0  0.35646  0.43888  0.41363  1.0000
  P   P24       1.0  0.39526  0.38458  0.04451  1.0000
  H   H550      1.0  0.37726  0.36824  0.12622  1.0000
  C   C690      1.0  0.52417  0.45202  0.61825  1.0000
  H   H551      1.0  0.48421  0.43992  0.72996  1.0000
  H   H552      1.0  0.35573  0.43180  0.48021  1.0000
  C   C691      1.0  0.46853  0.42686  0.48995  1.0000
  H   H553      1.0  0.36536  0.31090  0.55584  1.0000
  C   C692      1.0  0.37307  0.36265  0.97202  1.0000
  C   C693      1.0  0.40386  0.41539  0.98634  1.0000
  H   H554      1.0  0.51106  0.48707  0.97039  1.0000
  H   H555      1.0  0.35080  0.36667  0.06347  1.0000
  S   S86       1.0  0.64035  0.47511  0.01452  1.0000
  H   H556      1.0  0.58485  0.48397  0.25511  1.0000
  H   H557      1.0  0.46425  0.42122  0.45742  1.0000
  C   C694      1.0  0.48709  0.44467  0.49908  1.0000
  H   H558      1.0  0.36096  0.30375  0.81929  1.0000
  C   C695      1.0  0.33619  0.33745  0.60915  1.0000
  C   C696      1.0  0.33068  0.34007  0.71193  1.0000
  H   H559      1.0  0.44693  0.45180  0.26274  1.0000
  C   C697      1.0  0.32315  0.44838  0.46180  1.0000
  C   C698      1.0  0.34135  0.32437  0.63289  1.0000
  H   H560      1.0  0.38811  0.41262  0.99050  1.0000
  H   H561      1.0  0.44939  0.41458  0.70197  1.0000
  C   C699      1.0  0.33575  0.41607  0.97281  1.0000
  S   S87       1.0  0.52809  0.48008  0.37841  1.0000
  H   H562      1.0  0.55730  0.48489  0.78392  1.0000
  C   C700      1.0  0.45598  0.43064  0.69339  1.0000
  C   C701      1.0  0.41885  0.47516  0.22852  1.0000
  H   H563      1.0  0.41163  0.40352  0.21672  1.0000
  H   H564      1.0  0.49683  0.45282  0.47317  1.0000
  H   H565      1.0  0.55934  0.47756  0.01546  1.0000
  H   H566      1.0  0.32577  0.27669  0.70086  1.0000
  C   C702      1.0  0.38702  0.43972  0.70443  1.0000
  H   H567      1.0  0.37444  0.48917  0.32526  1.0000
  C   C703      1.0  0.50173  0.47162  0.37019  1.0000
  H   H568      1.0  0.35635  0.34592  0.91548  1.0000
  C   C704      1.0  0.52850  0.47157  0.60355  1.0000
  H   H569      1.0  0.42919  0.42594  0.65642  1.0000
  C   C705      1.0  0.36526  0.44026  0.45434  1.0000
  H   H570      1.0  0.35758  0.36386  0.68354  1.0000
  H   H571      1.0  0.38791  0.36736  0.95780  1.0000
  C   C706      1.0  0.44363  0.46372  0.07788  1.0000
  C   C707      1.0  0.47559  0.44487  0.70900  1.0000
  C   C708      1.0  0.44448  0.43716  0.66772  1.0000
  H   H572      1.0  0.41984  0.45200  0.71140  1.0000
  C   C709      1.0  0.36938  0.44910  0.38023  1.0000
  C   C710      1.0  0.55205  0.48743  0.66410  1.0000
  C   C711      1.0  0.53695  0.47683  0.51601  1.0000
  C   C712      1.0  0.43951  0.45069  0.48617  1.0000
  C   C713      1.0  0.42302  0.44120  0.55392  1.0000
  C   C714      1.0  0.48385  0.46557  0.69836  1.0000
  Fe  Fe41      1.0  0.62565  0.48318  0.12771  1.0000
  H   H573      1.0  0.35735  0.33517  0.51526  1.0000
  C   C715      1.0  0.47234  0.47216  0.67285  1.0000
  H   H574      1.0  0.36326  0.44741  0.34821  1.0000
  H   H575      1.0  0.40303  0.47139  0.22006  1.0000
  H   H576      1.0  0.61712  0.44449  0.94555  1.0000
  S   S88       1.0  0.61128  0.48305  0.19113  1.0000
  H   H577      1.0  0.55478  0.46645  0.70758  1.0000
  H   H578      1.0  0.41588  0.47068  0.43328  1.0000
  C   C716      1.0  0.47379  0.47935  0.35254  1.0000
  H   H579      1.0  0.32735  0.38536  0.77151  1.0000
  H   H580      1.0  0.62370  0.48380  0.74975  1.0000
  H   H581      1.0  0.59409  0.48760  0.97676  1.0000
  H   H582      1.0  0.50079  0.46161  0.06928  1.0000
  S   S89       1.0  0.47092  0.25655  0.07140  1.0000
  H   H583      1.0  0.46698  0.48707  0.56227  1.0000
  C   C717      1.0  0.55394  0.48690  0.03288  1.0000
  C   C718      1.0  0.33439  0.35001  0.00705  1.0000
  H   H584      1.0  0.55266  0.47238  0.18437  1.0000
  H   H585      1.0  0.32858  0.38476  0.21297  1.0000
  H   H586      1.0  0.56083  0.47861  0.09414  1.0000
  H   H587      1.0  0.54867  0.48495  0.25531  1.0000
  Fe  Fe42      1.0  0.34367  0.48939  0.07209  1.0000
  H   H588      1.0  0.33340  0.30296  0.77163  1.0000
  C   C719      1.0  0.47953  0.49190  0.78692  1.0000
  C   C720      1.0  0.54284  0.48927  0.62632  1.0000
  H   H589      1.0  0.56798  0.48410  0.35980  1.0000
  H   H590      1.0  0.44133  0.49174  0.08759  1.0000
  H   H591      1.0  0.58033  0.48360  0.43875  1.0000
  C   C721      1.0  0.49485  0.48513  0.35441  1.0000
  Fe  Fe43      1.0  0.32296  0.44277  0.05572  1.0000
  C   C722      1.0  0.32583  0.39669  0.41294  1.0000
  H   H592      1.0  0.46856  0.49017  0.34206  1.0000
  H   H593      1.0  0.32430  0.46275  0.28451  1.0000
  C   C723      1.0  0.32057  0.36904  0.46060  1.0000
  H   H594      1.0  0.47511  0.48784  0.25960  1.0000
  H   H595      1.0  0.47890  0.48836  0.66592  1.0000
  C   C724      1.0  0.45944  0.48422  0.25025  1.0000
  H   H596      1.0  0.60423  0.49034  0.35739  1.0000
  C   C725      1.0  0.32169  0.38832  0.45354  1.0000
  C   C726      1.0  0.32001  0.42526  0.35242  1.0000
  H   H597      1.0  0.46890  0.49273  0.88254  1.0000
  H   H598      1.0  0.65296  0.48678  0.21328  1.0000
  H   H599      1.0  0.31996  0.39689  0.48007  1.0000
  Fe  Fe44      1.0  0.56418  0.54997  0.73269  1.0000
  S   S90       1.0  0.54238  0.56316  0.74510  1.0000
  S   S91       1.0  0.57852  0.54783  0.66984  1.0000
  Fe  Fe45      1.0  0.55725  0.52981  0.82098  1.0000
  S   S92       1.0  0.53461  0.54097  0.83881  1.0000
  S   S93       1.0  0.55932  0.50637  0.86460  1.0000
  Fe  Fe46      1.0  0.52230  0.53236  0.77213  1.0000
  C   C727      1.0  0.50565  0.49682  0.95537  1.0000
  Fe  Fe47      1.0  0.55664  0.57096  0.81143  1.0000
  S   S94       1.0  0.56329  0.60008  0.85015  1.0000
  S   S95       1.0  0.54285  0.51854  0.75587  1.0000
  S   S96       1.0  0.58066  0.56048  0.79729  1.0000
  Fe  Fe48      1.0  0.56183  0.55595  0.41778  1.0000
  S   S97       1.0  0.52993  0.53426  0.39296  1.0000
  S   S98       1.0  0.56105  0.57023  0.48264  1.0000
  Fe  Fe49      1.0  0.58101  0.54951  0.33628  1.0000
  S   S99       1.0  0.55047  0.52715  0.30731  1.0000
  S   S100      1.0  0.60840  0.55684  0.29468  1.0000
  Fe  Fe50      1.0  0.53939  0.54929  0.32986  1.0000
  S   S101      1.0  0.51605  0.55275  0.28634  1.0000
  Fe  Fe51      1.0  0.54391  0.51432  0.37200  1.0000
  C   C728      1.0  0.57561  0.62293  0.08738  1.0000
  S   S102      1.0  0.57045  0.57292  0.35565  1.0000
  S   S103      1.0  0.57536  0.53484  0.40029  1.0000
  Fe  Fe52      1.0  0.49740  0.61898  0.03301  1.0000
  S   S104      1.0  0.52380  0.64771  0.06126  1.0000
  S   S105      1.0  0.49524  0.59894  0.97514  1.0000
  Fe  Fe53      1.0  0.46971  0.61535  0.10728  1.0000
  S   S106      1.0  0.49421  0.64395  0.14113  1.0000
  S   S107      1.0  0.44046  0.59475  0.14146  1.0000
  Fe  Fe54      1.0  0.50011  0.65857  0.07691  1.0000
  S   S108      1.0  0.50896  0.69282  0.06299  1.0000
  Fe  Fe55      1.0  0.51562  0.63102  0.12303  1.0000
  S   S109      1.0  0.53985  0.62915  0.16654  1.0000
  S   S110      1.0  0.47404  0.63045  0.04408  1.0000
  S   S111      1.0  0.49084  0.60189  0.09372  1.0000
  S   S112      1.0  0.36742  0.51857  0.04183  1.0000
  C   C729      1.0  0.42741  0.52346  0.07240  1.0000
  C   C730      1.0  0.45139  0.50322  0.67498  1.0000
  C   C731      1.0  0.61057  0.59621  0.22737  1.0000
  C   C732      1.0  0.64460  0.57675  0.10478  1.0000
  C   C733      1.0  0.42053  0.57336  0.11354  1.0000
  C   C734      1.0  0.40359  0.55905  0.13574  1.0000
  C   C735      1.0  0.38736  0.54200  0.11433  1.0000
  C   C736      1.0  0.38779  0.53935  0.07038  1.0000
  C   C737      1.0  0.40462  0.55382  0.04815  1.0000
  C   C738      1.0  0.42104  0.57062  0.06966  1.0000
  H   H600      1.0  0.40299  0.56122  0.16960  1.0000
  H   H601      1.0  0.37434  0.53110  0.13159  1.0000
  H   H602      1.0  0.40504  0.55193  0.01413  1.0000
  H   H603      1.0  0.43396  0.58158  0.05217  1.0000
  H   H604      1.0  0.46825  0.72540  0.12334  1.0000
  C   C739      1.0  0.51179  0.73140  0.04855  1.0000
  C   C740      1.0  0.50143  0.71284  0.07046  1.0000
  C   C741      1.0  0.48580  0.71100  0.09777  1.0000
  H   H605      1.0  0.60591  0.53064  0.06917  1.0000
  H   H606      1.0  0.47778  0.69710  0.11542  1.0000
  C   C742      1.0  0.36603  0.50347  0.27470  1.0000
  C   C743      1.0  0.52324  0.57354  0.25156  1.0000
  C   C744      1.0  0.54364  0.58905  0.24952  1.0000
  C   C745      1.0  0.54858  0.60573  0.22254  1.0000
  C   C746      1.0  0.53321  0.60713  0.19758  1.0000
  C   C747      1.0  0.51287  0.59140  0.19908  1.0000
  C   C748      1.0  0.50799  0.57459  0.22557  1.0000
  H   H607      1.0  0.55557  0.58820  0.26882  1.0000
  H   H608      1.0  0.56433  0.61776  0.22139  1.0000
  H   H609      1.0  0.50081  0.59233  0.18042  1.0000
  H   H610      1.0  0.49225  0.56246  0.22632  1.0000
  C   C749      1.0  0.60794  0.53641  0.26299  1.0000
  C   C750      1.0  0.59425  0.51589  0.27117  1.0000
  C   C751      1.0  0.61190  0.50826  0.82922  1.0000
  C   C752      1.0  0.62483  0.62360  0.17703  1.0000
  C   C753      1.0  0.62239  0.52453  0.20579  1.0000
  C   C754      1.0  0.62181  0.54069  0.22977  1.0000
  H   H611      1.0  0.58355  0.51240  0.29664  1.0000
  H   H612      1.0  0.53950  0.73238  0.14524  1.0000
  H   H613      1.0  0.55445  0.72314  0.08402  1.0000
  C   C755      1.0  0.57225  0.55304  0.61792  1.0000
  C   C756      1.0  0.57988  0.54716  0.58236  1.0000
  C   C757      1.0  0.57613  0.55179  0.54077  1.0000
  C   C758      1.0  0.56484  0.56257  0.53415  1.0000
  C   C759      1.0  0.55713  0.56836  0.56969  1.0000
  C   C760      1.0  0.56057  0.56343  0.61123  1.0000
  H   H614      1.0  0.58905  0.53924  0.58705  1.0000
  H   H615      1.0  0.58249  0.54756  0.51393  1.0000
  H   H616      1.0  0.54856  0.57689  0.56512  1.0000
  H   H617      1.0  0.55469  0.56818  0.63816  1.0000
  C   C761      1.0  0.57900  0.57281  0.92822  1.0000
  H   H618      1.0  0.54613  0.55799  0.93061  1.0000
  C   C762      1.0  0.46124  0.57781  0.24720  1.0000
  C   C763      1.0  0.54476  0.59908  0.88691  1.0000
  C   C764      1.0  0.55025  0.61479  0.91834  1.0000
  C   C765      1.0  0.53548  0.61475  0.94662  1.0000
  C   C766      1.0  0.51503  0.59910  0.94327  1.0000
  C   C767      1.0  0.50969  0.58327  0.91236  1.0000
  C   C768      1.0  0.52445  0.58318  0.88451  1.0000
  H   H619      1.0  0.56590  0.62718  0.92036  1.0000
  H   H620      1.0  0.53976  0.62707  0.97018  1.0000
  H   H621      1.0  0.49390  0.57118  0.90936  1.0000
  H   H622      1.0  0.51988  0.57117  0.86019  1.0000
  C   C769      1.0  0.57965  0.51201  0.90183  1.0000
  C   C770      1.0  0.59684  0.53145  0.90526  1.0000
  C   C771      1.0  0.61315  0.53501  0.93411  1.0000
  C   C772      1.0  0.61219  0.51927  0.96019  1.0000
  H   H623      1.0  0.46352  0.59208  0.23309  1.0000
  H   H624      1.0  0.54837  0.57441  0.02112  1.0000
  C   C773      1.0  0.60154  0.55459  0.10122  1.0000
  H   H625      1.0  0.51643  0.50041  0.48598  1.0000
  H   H626      1.0  0.48240  0.59263  0.30021  1.0000
  C   C774      1.0  0.47169  0.57812  0.28500  1.0000
  C   C775      1.0  0.54194  0.51261  0.07779  1.0000
  C   C776      1.0  0.37183  0.51352  0.23624  1.0000
  C   C777      1.0  0.39055  0.51716  0.21862  1.0000
  C   C778      1.0  0.51316  0.49625  0.55387  1.0000
  H   H627      1.0  0.32490  0.67065  0.11110  1.0000
  H   H628      1.0  0.64076  0.60077  0.13628  1.0000
  H   H629      1.0  0.55043  0.50166  0.13387  1.0000
  C   C779      1.0  0.58142  0.68348  0.44115  1.0000
  C   C780      1.0  0.57316  0.69725  0.44107  1.0000
  C   C781      1.0  0.55592  0.69314  0.41509  1.0000
  C   C782      1.0  0.54678  0.67516  0.38950  1.0000
  C   C783      1.0  0.55468  0.66097  0.39020  1.0000
  C   C784      1.0  0.57234  0.66552  0.41555  1.0000
  P   P25       1.0  0.54366  0.63787  0.35668  1.0000
  C   C785      1.0  0.53413  0.61468  0.38694  1.0000
  C   C786      1.0  0.52211  0.63584  0.32430  1.0000
  C   C787      1.0  0.50464  0.63501  0.34371  1.0000
  C   C788      1.0  0.48804  0.63386  0.31893  1.0000
  C   C789      1.0  0.48857  0.63299  0.27464  1.0000
  C   C790      1.0  0.50553  0.63292  0.25524  1.0000
  C   C791      1.0  0.52220  0.63431  0.27986  1.0000
  C   C792      1.0  0.52353  0.59543  0.36565  1.0000
  C   C793      1.0  0.51713  0.57725  0.38796  1.0000
  C   C794      1.0  0.52138  0.57812  0.43151  1.0000
  C   C795      1.0  0.53164  0.59718  0.45304  1.0000
  C   C796      1.0  0.53782  0.61543  0.43101  1.0000
  C   C797      1.0  0.56460  0.64013  0.32422  1.0000
  C   C798      1.0  0.57352  0.65657  0.29644  1.0000
  C   C799      1.0  0.58999  0.65877  0.27158  1.0000
  C   C800      1.0  0.57288  0.62635  0.32791  1.0000
  H   H630      1.0  0.51267  0.54621  0.95315  1.0000
  H   H631      1.0  0.59491  0.68675  0.46095  1.0000
  H   H632      1.0  0.59951  0.58814  0.05079  1.0000
  H   H633      1.0  0.53381  0.67267  0.36893  1.0000
  H   H634      1.0  0.57909  0.65511  0.41557  1.0000
  H   H635      1.0  0.50397  0.63547  0.37800  1.0000
  H   H636      1.0  0.47470  0.63351  0.33398  1.0000
  H   H637      1.0  0.47571  0.63199  0.25527  1.0000
  H   H638      1.0  0.50581  0.63166  0.22097  1.0000
  H   H639      1.0  0.53496  0.63400  0.26381  1.0000
  H   H640      1.0  0.52070  0.59444  0.33158  1.0000
  H   H641      1.0  0.50938  0.56244  0.37127  1.0000
  H   H642      1.0  0.51717  0.56406  0.44849  1.0000
  H   H643      1.0  0.53533  0.59775  0.48668  1.0000
  H   H644      1.0  0.54573  0.62990  0.44859  1.0000
  H   H645      1.0  0.56749  0.66750  0.29350  1.0000
  H   H646      1.0  0.59640  0.67114  0.24931  1.0000
  H   H647      1.0  0.56659  0.61372  0.34955  1.0000
  C   C801      1.0  0.50471  0.66607  0.95631  1.0000
  C   C802      1.0  0.50037  0.64697  0.93776  1.0000
  C   C803      1.0  0.48003  0.63283  0.92645  1.0000
  C   C804      1.0  0.46401  0.63773  0.93374  1.0000
  C   C805      1.0  0.46830  0.65706  0.95157  1.0000
  C   C806      1.0  0.48874  0.67107  0.96334  1.0000
  P   P26       1.0  0.44732  0.66219  0.96571  1.0000
  C   C807      1.0  0.45534  0.68944  0.97246  1.0000
  C   C808      1.0  0.42760  0.65328  0.92419  1.0000
  C   C809      1.0  0.40728  0.64868  0.93377  1.0000
  C   C810      1.0  0.39195  0.64201  0.90162  1.0000
  C   C811      1.0  0.39687  0.64019  0.85965  1.0000
  C   C812      1.0  0.41717  0.64520  0.84975  1.0000
  C   C813      1.0  0.43254  0.65188  0.88184  1.0000
  C   C814      1.0  0.44639  0.69660  0.00330  1.0000
  C   C815      1.0  0.47585  0.72469  0.95016  1.0000
  H   H648      1.0  0.59004  0.60701  0.99795  1.0000
  C   C816      1.0  0.48145  0.49972  0.90595  1.0000
  H   H649      1.0  0.47661  0.55986  0.33222  1.0000
  C   C817      1.0  0.43765  0.64854  0.01400  1.0000
  C   C818      1.0  0.42200  0.62799  0.01250  1.0000
  C   C819      1.0  0.41527  0.61717  0.04998  1.0000
  C   C820      1.0  0.42423  0.62674  0.08906  1.0000
  C   C821      1.0  0.44022  0.64698  0.09069  1.0000
  C   C822      1.0  0.44706  0.65776  0.05325  1.0000
  H   H650      1.0  0.52036  0.67675  0.96665  1.0000
  H   H651      1.0  0.51262  0.64279  0.93340  1.0000
  C   C823      1.0  0.39774  0.50071  0.27799  1.0000
  H   H652      1.0  0.44825  0.62619  0.92662  1.0000
  H   H653      1.0  0.49235  0.68559  0.97927  1.0000
  H   H654      1.0  0.40331  0.65025  0.96610  1.0000
  H   H655      1.0  0.37626  0.63831  0.90925  1.0000
  H   H656      1.0  0.38498  0.63501  0.83476  1.0000
  H   H657      1.0  0.42103  0.64397  0.81717  1.0000
  H   H658      1.0  0.44824  0.65600  0.87352  1.0000
  H   H659      1.0  0.43480  0.68601  0.02391  1.0000
  H   H660      1.0  0.42670  0.52602  0.03875  1.0000
  C   C824      1.0  0.50735  0.53148  0.55432  1.0000
  H   H661      1.0  0.47665  0.61771  0.91366  1.0000
  H   H662      1.0  0.36170  0.51825  0.21966  1.0000
  H   H663      1.0  0.41532  0.62010  0.98245  1.0000
  H   H664      1.0  0.40348  0.60118  0.04878  1.0000
  H   H665      1.0  0.41924  0.61820  0.11798  1.0000
  H   H666      1.0  0.44775  0.65408  0.12082  1.0000
  H   H667      1.0  0.46009  0.67306  0.05472  1.0000
  H   H668      1.0  0.62406  0.60363  0.29052  1.0000
  C   C825      1.0  0.51085  0.52375  0.51618  1.0000
  C   C826      1.0  0.53615  0.54752  0.17772  1.0000
  H   H669      1.0  0.50507  0.57205  0.11313  1.0000
  C   C827      1.0  0.51095  0.56414  0.09255  1.0000
  C   C828      1.0  0.52646  0.54373  0.03963  1.0000
  C   C829      1.0  0.63839  0.63681  0.20878  1.0000
  H   H670      1.0  0.44615  0.72328  0.03288  1.0000
  P   P27       1.0  0.53551  0.53020  0.00435  1.0000
  P   P28       1.0  0.42814  0.51618  0.21738  1.0000
  H   H671      1.0  0.48796  0.53395  0.10899  1.0000
  C   C830      1.0  0.50141  0.54263  0.09044  1.0000
  C   C831      1.0  0.45515  0.54080  0.28284  1.0000
  C   C832      1.0  0.48052  0.72724  0.10249  1.0000
  C   C833      1.0  0.61118  0.57433  0.12078  1.0000
  H   H672      1.0  0.50585  0.54551  0.55468  1.0000
  H   H673      1.0  0.63233  0.55653  0.22299  1.0000
  H   H674      1.0  0.51211  0.53180  0.48702  1.0000
  C   C834      1.0  0.57294  0.56440  0.16472  1.0000
  C   C835      1.0  0.58915  0.59920  0.10454  1.0000
  P   P29       1.0  0.59577  0.58527  0.14353  1.0000
  H   H675      1.0  0.58937  0.54844  0.18895  1.0000
  C   C836      1.0  0.42821  0.51843  0.16037  1.0000
  C   C837      1.0  0.44528  0.53579  0.09664  1.0000
  C   C838      1.0  0.44537  0.54038  0.24380  1.0000
  C   C839      1.0  0.44792  0.55902  0.22696  1.0000
  H   H676      1.0  0.64400  0.55018  0.07299  1.0000
  H   H677      1.0  0.57800  0.61370  0.15058  1.0000
  C   C840      1.0  0.59876  0.49551  0.79627  1.0000
  H   H678      1.0  0.55880  0.51988  0.21752  1.0000
  H   H679      1.0  0.45264  0.52666  0.29774  1.0000
  C   C841      1.0  0.45089  0.52668  0.60649  1.0000
  C   C842      1.0  0.45811  0.53615  0.64648  1.0000
  C   C843      1.0  0.45819  0.52437  0.68076  1.0000
  H   H680      1.0  0.47639  0.69838  0.92041  1.0000
  H   H681      1.0  0.58022  0.71119  0.46088  1.0000
  S   S113      1.0  0.48833  0.51469  0.75896  1.0000
  C   C844      1.0  0.45496  0.50004  0.23844  1.0000
  C   C845      1.0  0.54709  0.49911  0.01094  1.0000
  H   H682      1.0  0.53848  0.52321  0.09599  1.0000
  H   H683      1.0  0.53459  0.59216  0.06790  1.0000
  C   C846      1.0  0.50641  0.52146  0.59216  1.0000
  C   C847      1.0  0.59271  0.59764  0.06136  1.0000
  H   H684      1.0  0.57455  0.62914  0.02100  1.0000
  C   C848      1.0  0.50922  0.50385  0.59193  1.0000
  C   C849      1.0  0.41017  0.50823  0.09173  1.0000
  H   H685      1.0  0.45050  0.53575  0.58007  1.0000
  H   H686      1.0  0.46352  0.55256  0.65111  1.0000
  H   H687      1.0  0.46370  0.53161  0.71195  1.0000
  H   H688      1.0  0.43817  0.49841  0.56965  1.0000
  H   H689      1.0  0.54713  0.50458  0.61486  1.0000
  C   C850      1.0  0.55715  0.53192  0.20122  1.0000
  H   H690      1.0  0.54762  0.49936  0.97655  1.0000
  C   C851      1.0  0.63284  0.58547  0.12190  1.0000
  C   C852      1.0  0.63820  0.62964  0.24966  1.0000
  H   H691      1.0  0.54972  0.70399  0.41455  1.0000
  H   H692      1.0  0.50983  0.49796  0.80958  1.0000
  H   H693      1.0  0.58490  0.54578  0.09956  1.0000
  C   C853      1.0  0.59624  0.50455  0.75912  1.0000
  C   C854      1.0  0.44411  0.50550  0.60064  1.0000
  H   H694      1.0  0.40771  0.49586  0.29478  1.0000
  C   C855      1.0  0.41058  0.50556  0.13551  1.0000
  C   C856      1.0  0.45251  0.71768  0.00809  1.0000
  H   H695      1.0  0.46745  0.51567  0.23769  1.0000
  C   C857      1.0  0.58077  0.61212  0.11740  1.0000
  C   C858      1.0  0.57887  0.62101  0.04434  1.0000
  C   C859      1.0  0.46974  0.70360  0.94522  1.0000
  H   H696      1.0  0.50572  0.50010  0.34379  1.0000
  C   C860      1.0  0.44580  0.53312  0.14041  1.0000
  H   H697      1.0  0.62559  0.62924  0.14524  1.0000
  C   C861      1.0  0.49015  0.52080  0.91570  1.0000
  H   H698      1.0  0.61203  0.58544  0.93239  1.0000
  C   C862      1.0  0.58755  0.60849  0.03138  1.0000
  C   C863      1.0  0.51356  0.50608  0.51583  1.0000
  C   C864      1.0  0.59752  0.57520  0.94639  1.0000
  H   H699      1.0  0.61156  0.56530  0.99528  1.0000
  H   H700      1.0  0.45973  0.54299  0.15867  1.0000
  H   H701      1.0  0.63338  0.52795  0.18087  1.0000
  C   C865      1.0  0.59723  0.56391  0.98173  1.0000
  H   H702      1.0  0.57931  0.58121  0.90022  1.0000
  H   H703      1.0  0.56878  0.63257  0.09749  1.0000
  H   H704      1.0  0.50400  0.52763  0.62187  1.0000
  C   C866      1.0  0.57842  0.55024  0.99873  1.0000
  H   H705      1.0  0.39492  0.52516  0.18915  1.0000
  C   C867      1.0  0.61896  0.53855  0.78866  1.0000
  H   H706      1.0  0.50870  0.49646  0.62159  1.0000
  C   C868      1.0  0.56012  0.55937  0.94552  1.0000
  H   H707      1.0  0.50120  0.51573  0.06184  1.0000
  H   H708      1.0  0.57868  0.54127  0.02520  1.0000
  C   C869      1.0  0.58950  0.62872  0.30332  1.0000
  H   H709      1.0  0.60007  0.58057  0.23535  1.0000
  C   C870      1.0  0.62421  0.60938  0.25895  1.0000
  C   C871      1.0  0.57869  0.49628  0.92792  1.0000
  C   C872      1.0  0.55964  0.54789  0.98108  1.0000
  H   H710      1.0  0.61053  0.64645  0.25535  1.0000
  C   C873      1.0  0.63487  0.55697  0.08610  1.0000
  C   C874      1.0  0.62215  0.52968  0.82509  1.0000
  C   C875      1.0  0.54066  0.51181  0.03316  1.0000
  C   C876      1.0  0.51476  0.51810  0.96491  1.0000
  C   C877      1.0  0.50900  0.53243  0.06384  1.0000
  C   C878      1.0  0.61099  0.60308  0.18598  1.0000
  C   C879      1.0  0.46849  0.55962  0.30300  1.0000
  C   C880      1.0  0.59797  0.64485  0.27502  1.0000
  C   C881      1.0  0.61335  0.54593  0.08411  1.0000
  H   H711      1.0  0.45848  0.54786  0.08161  1.0000
  C   C882      1.0  0.53795  0.53159  0.19791  1.0000
  C   C883      1.0  0.57455  0.54825  0.18498  1.0000
  H   H712      1.0  0.59556  0.61782  0.30589  1.0000
  H   H713      1.0  0.64886  0.63973  0.27418  1.0000
  H   H714      1.0  0.59771  0.54363  0.88515  1.0000
  C   C884      1.0  0.53562  0.56535  0.04107  1.0000
  C   C885      1.0  0.32116  0.69628  0.08832  1.0000
  H   H715      1.0  0.48429  0.53014  0.89997  1.0000
  H   H716      1.0  0.55170  0.57609  0.14623  1.0000
  C   C886      1.0  0.55354  0.56386  0.16108  1.0000
  C   C887      1.0  0.55800  0.73910  0.08986  1.0000
  C   C888      1.0  0.40346  0.51045  0.23892  1.0000
  H   H717      1.0  0.43971  0.55916  0.19806  1.0000
  C   C889      1.0  0.52783  0.57549  0.06745  1.0000
  H   H718      1.0  0.52460  0.51934  0.21208  1.0000
  H   H719      1.0  0.62655  0.55003  0.93625  1.0000
  S   S114      1.0  0.63276  0.52451  0.99663  1.0000
  H   H720      1.0  0.46605  0.50389  0.14913  1.0000
  H   H721      1.0  0.52139  0.54757  0.17618  1.0000
  C   C890      1.0  0.59489  0.49985  0.95699  1.0000
  C   C891      1.0  0.56915  0.49881  0.48224  1.0000
  H   H722      1.0  0.64923  0.65252  0.20152  1.0000
  C   C892      1.0  0.46731  0.73172  0.98174  1.0000
  C   C893      1.0  0.50652  0.52991  0.94544  1.0000
  H   H723      1.0  0.55441  0.50983  0.52650  1.0000
  H   H724      1.0  0.58182  0.51401  0.47754  1.0000
  H   H725      1.0  0.62640  0.55517  0.78610  1.0000
  H   H726      1.0  0.61413  0.50186  0.85838  1.0000
  C   C894      1.0  0.60600  0.52598  0.75566  1.0000
  H   H727      1.0  0.39619  0.49904  0.07287  1.0000
  H   H728      1.0  0.63216  0.53945  0.85075  1.0000
  C   C895      1.0  0.37900  0.49710  0.29564  1.0000
  H   H729      1.0  0.60345  0.53289  0.72746  1.0000
  Fe  Fe56      1.0  0.63195  0.49914  0.03793  1.0000
  H   H730      1.0  0.35138  0.50043  0.28791  1.0000
  C   C896      1.0  0.59506  0.49980  0.24770  1.0000
  C   C897      1.0  0.54894  0.50048  0.09958  1.0000
  H   H731      1.0  0.56292  0.50127  0.68157  1.0000
  C   C898      1.0  0.55351  0.49641  0.50982  1.0000
  C   C899      1.0  0.43448  0.49573  0.22925  1.0000
  C   C900      1.0  0.60935  0.50399  0.21552  1.0000
  H   H732      1.0  0.48733  0.73563  0.92982  1.0000
  H   H733      1.0  0.33519  0.70246  0.07042  1.0000
  H   H734      1.0  0.52387  0.73316  0.02726  1.0000
  H   H735      1.0  0.58660  0.49506  0.73291  1.0000
  H   H736      1.0  0.39689  0.49393  0.15002  1.0000
  C   C901      1.0  0.44498  0.49373  0.63463  1.0000
  H   H737      1.0  0.45143  0.49435  0.70203  1.0000
  S   S115      1.0  0.35576  0.79612  0.07536  1.0000
  S   S116      1.0  0.34597  0.84399  0.11313  1.0000
  Fe  Fe57      1.0  0.47580  0.83183  0.07855  1.0000
  S   S117      1.0  0.49047  0.82009  0.12680  1.0000
  S   S118      1.0  0.45352  0.84391  0.09809  1.0000
  Fe  Fe58      1.0  0.50705  0.83589  0.01090  1.0000
  S   S119      1.0  0.52389  0.82438  0.05474  1.0000
  S   S120      1.0  0.51534  0.84517  0.94210  1.0000
  Fe  Fe59      1.0  0.49258  0.79991  0.07344  1.0000
  S   S121      1.0  0.48276  0.76541  0.08680  1.0000
  Fe  Fe60      1.0  0.52045  0.84505  0.10436  1.0000
  S   S122      1.0  0.54746  0.86840  0.14497  1.0000
  S   S123      1.0  0.47555  0.81022  0.02641  1.0000
  S   S124      1.0  0.50586  0.85794  0.05917  1.0000
  Fe  Fe61      1.0  0.56789  0.95121  0.82169  1.0000
  S   S125      1.0  0.59069  0.97849  0.78515  1.0000
  S   S126      1.0  0.57532  0.93470  0.87486  1.0000
  Fe  Fe62      1.0  0.53157  0.95386  0.78175  1.0000
  S   S127      1.0  0.49724  0.93652  0.78081  1.0000
  Fe  Fe63      1.0  0.56872  0.96466  0.72770  1.0000
  S   S128      1.0  0.57644  0.95852  0.65975  1.0000
  S   S129      1.0  0.54822  0.93625  0.76355  1.0000
  S   S130      1.0  0.54966  0.96706  0.84220  1.0000
  H   H738      1.0  0.53437  0.91428  0.64585  1.0000
  S   S131      1.0  0.41338  0.95736  0.80027  1.0000
  Fe  Fe64      1.0  0.43202  0.98283  0.84727  1.0000
  H   H739      1.0  0.36818  0.95435  0.66548  1.0000
  C   C902      1.0  0.44337  0.92992  0.18387  1.0000
  C   C903      1.0  0.34305  0.88638  0.98929  1.0000
  Fe  Fe65      1.0  0.38771  0.94875  0.84657  1.0000
  S   S132      1.0  0.37048  0.91452  0.86149  1.0000
  S   S133      1.0  0.37574  0.96899  0.81571  1.0000
  Fe  Fe66      1.0  0.54910  0.94504  0.32568  1.0000
  S   S134      1.0  0.55431  0.96858  0.27652  1.0000
  S   S135      1.0  0.53099  0.91086  0.30764  1.0000
  Fe  Fe67      1.0  0.56218  0.97673  0.40132  1.0000
  C   C904      1.0  0.54677  0.98655  0.10685  1.0000
  H   H740      1.0  0.55986  0.98219  0.99521  1.0000
  H   H741      1.0  0.34128  0.98176  0.44506  1.0000
  S   S136      1.0  0.53169  0.95598  0.36857  1.0000
  S   S137      1.0  0.57954  0.96425  0.36126  1.0000
  H   H742      1.0  0.35210  0.89682  0.33122  1.0000
  H   H743      1.0  0.48075  0.95051  0.68590  1.0000
  Fe  Fe68      1.0  0.37139  0.94722  0.34717  1.0000
  H   H744      1.0  0.38658  0.96550  0.24330  1.0000
  S   S138      1.0  0.34778  0.93084  0.29348  1.0000
  Fe  Fe69      1.0  0.40290  0.97904  0.77198  1.0000
  C   C905      1.0  0.32125  0.93692  0.52370  1.0000
  C   C906      1.0  0.46185  0.89576  0.70913  1.0000
  S   S139      1.0  0.38014  0.93237  0.39976  1.0000
  H   H745      1.0  0.39895  0.91376  0.61677  1.0000
  H   H746      1.0  0.47145  0.99233  0.08994  1.0000
  H   H747      1.0  0.59303  0.83313  0.70384  1.0000
  C   C907      1.0  0.41147  0.98537  0.61348  1.0000
  C   C908      1.0  0.33745  0.97373  0.51135  1.0000
  C   C909      1.0  0.40852  0.90936  0.73850  1.0000
  Fe  Fe70      1.0  0.38593  0.95999  0.44168  1.0000
  H   H748      1.0  0.51420  0.98272  0.61521  1.0000
  C   C910      1.0  0.46064  0.93660  0.97227  1.0000
  C   C911      1.0  0.37616  0.90954  0.75229  1.0000
  C   C912      1.0  0.42436  0.88810  0.00447  1.0000
  H   H749      1.0  0.50338  0.89838  0.69045  1.0000
  C   C913      1.0  0.46945  0.96430  0.20416  1.0000
  C   C914      1.0  0.56282  0.84495  0.63839  1.0000
  C   C915      1.0  0.43786  0.89779  0.64128  1.0000
  H   H750      1.0  0.55042  0.84234  0.22084  1.0000
  C   C916      1.0  0.53402  0.90496  0.67246  1.0000
  H   H751      1.0  0.51480  0.76175  0.03642  1.0000
  C   C917      1.0  0.57150  0.96544  0.60798  1.0000
  C   C918      1.0  0.49090  0.74579  0.08062  1.0000
  H   H752      1.0  0.54961  0.95091  0.15236  1.0000
  Fe  Fe71      1.0  0.40673  0.99017  0.36977  1.0000
  C   C919      1.0  0.57391  0.96305  0.53029  1.0000
  C   C920      1.0  0.57683  0.95754  0.57179  1.0000
  C   C921      1.0  0.32683  0.94900  0.45184  1.0000
  H   H753      1.0  0.62448  0.99126  0.18601  1.0000
  C   C922      1.0  0.50674  0.74778  0.05382  1.0000
  H   H754      1.0  0.36896  0.92928  0.71344  1.0000
  C   C923      1.0  0.48827  0.95197  0.80653  1.0000
  C   C924      1.0  0.50195  0.97256  0.81713  1.0000
  S   S140      1.0  0.37378  0.97330  0.39039  1.0000
  C   C925      1.0  0.32854  0.87931  0.21706  1.0000
  C   C926      1.0  0.46009  0.95654  0.83488  1.0000
  C   C927      1.0  0.46738  0.94388  0.81589  1.0000
  H   H755      1.0  0.61419  0.89750  0.69288  1.0000
  H   H756      1.0  0.38808  0.89262  0.78841  1.0000
  H   H757      1.0  0.44403  0.95017  0.84269  1.0000
  H   H758      1.0  0.45685  0.92784  0.80873  1.0000
  C   C928      1.0  0.54253  0.88048  0.18924  1.0000
  C   C929      1.0  0.55905  0.89714  0.21056  1.0000
  C   C930      1.0  0.55569  0.90673  0.24655  1.0000
  C   C931      1.0  0.53575  0.89972  0.26156  1.0000
  C   C932      1.0  0.51927  0.88283  0.24064  1.0000
  C   C933      1.0  0.52258  0.87343  0.20428  1.0000
  H   H759      1.0  0.57455  0.90257  0.19935  1.0000
  H   H760      1.0  0.56859  0.91930  0.26317  1.0000
  H   H761      1.0  0.50388  0.87689  0.25269  1.0000
  H   H762      1.0  0.50975  0.86048  0.18838  1.0000
  C   C934      1.0  0.53073  0.87092  0.92579  1.0000
  C   C935      1.0  0.52780  0.87632  0.88451  1.0000
  C   C936      1.0  0.54061  0.89615  0.86934  1.0000
  C   C937      1.0  0.55707  0.91059  0.89469  1.0000
  C   C938      1.0  0.56006  0.90515  0.93591  1.0000
  C   C939      1.0  0.54673  0.88560  0.95171  1.0000
  H   H763      1.0  0.51563  0.86504  0.86403  1.0000
  H   H764      1.0  0.53827  0.90002  0.83743  1.0000
  H   H765      1.0  0.57280  0.91613  0.95572  1.0000
  H   H766      1.0  0.54930  0.88165  0.98339  1.0000
  C   C940      1.0  0.45552  0.91104  0.70895  1.0000
  H   H767      1.0  0.57516  0.83865  0.17431  1.0000
  H   H768      1.0  0.35745  0.95983  0.12132  1.0000
  C   C941      1.0  0.37978  0.92337  0.71974  1.0000
  H   H769      1.0  0.41853  0.96983  0.20935  1.0000
  H   H770      1.0  0.44857  0.97682  0.33695  1.0000
  S   S141      1.0  0.41902  0.97845  0.42359  1.0000
  C   C942      1.0  0.63128  0.93031  0.68857  1.0000
  C   C943      1.0  0.36045  0.90426  0.91143  1.0000
  C   C944      1.0  0.35747  0.91612  0.94311  1.0000
  C   C945      1.0  0.34865  0.90716  0.98165  1.0000
  H   H771      1.0  0.36165  0.93210  0.93764  1.0000
  S   S142      1.0  0.40349  0.96520  0.32382  1.0000
  C   C946      1.0  0.38300  0.80984  0.08005  1.0000
  C   C947      1.0  0.39322  0.83066  0.09285  1.0000
  C   C948      1.0  0.41487  0.84090  0.09766  1.0000
  C   C949      1.0  0.42647  0.83049  0.08967  1.0000
  C   C950      1.0  0.41631  0.80976  0.07630  1.0000
  C   C951      1.0  0.39462  0.79947  0.07163  1.0000
  H   H772      1.0  0.38445  0.83877  0.09954  1.0000
  H   H773      1.0  0.42268  0.85694  0.10767  1.0000
  H   H774      1.0  0.42511  0.80161  0.07007  1.0000
  H   H775      1.0  0.38682  0.78338  0.06167  1.0000
  H   H776      1.0  0.42803  0.89802  0.61572  1.0000
  C   C952      1.0  0.41211  0.92300  0.70514  1.0000
  H   H777      1.0  0.45684  0.95645  0.92708  1.0000
  H   H778      1.0  0.43954  0.87121  0.61528  1.0000
  C   C953      1.0  0.45479  0.95599  0.69929  1.0000
  C   C954      1.0  0.43097  0.93724  0.62099  1.0000
  C   C955      1.0  0.44701  0.95272  0.59880  1.0000
  C   C956      1.0  0.44348  0.95717  0.55740  1.0000
  C   C957      1.0  0.42398  0.94613  0.53772  1.0000
  C   C958      1.0  0.40804  0.93050  0.55930  1.0000
  C   C959      1.0  0.41154  0.92590  0.60059  1.0000
  C   C960      1.0  0.44900  0.97017  0.71689  1.0000
  C   C961      1.0  0.45408  0.95056  0.34364  1.0000
  C   C962      1.0  0.57451  0.77477  0.06918  1.0000
  C   C963      1.0  0.40446  0.97854  0.57117  1.0000
  C   C964      1.0  0.47580  0.96105  0.69938  1.0000
  H   H779      1.0  0.55875  0.98506  0.62905  1.0000
  Fe  Fe72      1.0  0.33593  0.81175  0.08856  1.0000
  H   H780      1.0  0.46216  0.96161  0.61360  1.0000
  C   C965      1.0  0.43384  0.93812  0.15690  1.0000
  H   H781      1.0  0.42103  0.94988  0.50604  1.0000
  H   H782      1.0  0.39280  0.92235  0.54426  1.0000
  H   H783      1.0  0.43303  0.96692  0.71644  1.0000
  C   C966      1.0  0.40609  0.96703  0.14515  1.0000
  H   H784      1.0  0.55309  0.84563  0.85802  1.0000
  H   H785      1.0  0.35612  0.96004  0.20003  1.0000
  C   C967      1.0  0.61345  0.83091  0.10856  1.0000
  H   H786      1.0  0.40063  0.94140  0.67230  1.0000
  C   C968      1.0  0.50177  0.93188  0.61239  1.0000
  C   C969      1.0  0.50945  0.95212  0.62810  1.0000
  C   C970      1.0  0.63160  0.94929  0.69646  1.0000
  C   C971      1.0  0.49940  0.96175  0.56186  1.0000
  C   C972      1.0  0.49208  0.94152  0.54548  1.0000
  C   C973      1.0  0.49324  0.92661  0.57117  1.0000
  P   P30       1.0  0.48263  0.93482  0.49107  1.0000
  C   C974      1.0  0.48739  0.95793  0.46329  1.0000
  C   C975      1.0  0.49765  0.92412  0.46540  1.0000
  C   C976      1.0  0.51808  0.93028  0.47955  1.0000
  C   C977      1.0  0.53033  0.92332  0.45822  1.0000
  C   C978      1.0  0.52239  0.91021  0.42248  1.0000
  C   C979      1.0  0.48979  0.91086  0.42943  1.0000
  C   C980      1.0  0.50713  0.97065  0.44839  1.0000
  H   H787      1.0  0.34618  0.91641  0.00574  1.0000
  C   C981      1.0  0.47371  0.97722  0.84471  1.0000
  H   H788      1.0  0.46393  0.92712  0.34618  1.0000
  C   C982      1.0  0.47166  0.96355  0.45664  1.0000
  C   C983      1.0  0.45526  0.91706  0.48784  1.0000
  C   C984      1.0  0.44421  0.90788  0.52419  1.0000
  C   C985      1.0  0.42284  0.89498  0.52102  1.0000
  C   C986      1.0  0.41235  0.89144  0.48190  1.0000
  C   C987      1.0  0.42322  0.90050  0.44574  1.0000
  C   C988      1.0  0.44452  0.91319  0.44868  1.0000
  H   H789      1.0  0.50283  0.92042  0.63196  1.0000
  H   H790      1.0  0.51661  0.95631  0.65966  1.0000
  C   C989      1.0  0.46382  0.98874  0.73561  1.0000
  S   S143      1.0  0.55049  0.98137  0.74322  1.0000
  H   H791      1.0  0.48795  0.91100  0.55894  1.0000
  H   H792      1.0  0.52492  0.94110  0.50615  1.0000
  H   H793      1.0  0.54621  0.92862  0.46868  1.0000
  H   H794      1.0  0.47441  0.90614  0.41691  1.0000
  H   H795      1.0  0.51959  0.96688  0.45359  1.0000
  C   C990      1.0  0.33129  0.86538  0.24289  1.0000
  H   H796      1.0  0.41460  0.98547  0.54515  1.0000
  C   C991      1.0  0.48723  0.95508  0.32063  1.0000
  H   H797      1.0  0.45624  0.95409  0.46759  1.0000
  H   H798      1.0  0.45189  0.91100  0.55500  1.0000
  H   H799      1.0  0.41421  0.88803  0.54889  1.0000
  H   H800      1.0  0.39575  0.88198  0.47967  1.0000
  H   H801      1.0  0.41511  0.89820  0.41542  1.0000
  H   H802      1.0  0.45255  0.92062  0.42049  1.0000
  C   C992      1.0  0.39630  0.91829  0.24182  1.0000
  C   C993      1.0  0.38351  0.91311  0.20541  1.0000
  C   C994      1.0  0.37860  0.89486  0.18250  1.0000
  C   C995      1.0  0.38609  0.88153  0.19650  1.0000
  C   C996      1.0  0.39827  0.88622  0.23402  1.0000
  C   C997      1.0  0.40385  0.90502  0.25589  1.0000
  P   P31       1.0  0.40710  0.86862  0.25395  1.0000
  C   C998      1.0  0.39277  0.84336  0.22875  1.0000
  C   C999      1.0  0.43450  0.88020  0.24568  1.0000
  C   C1000     1.0  0.44189  0.87863  0.20574  1.0000
  C   C1001     1.0  0.46308  0.88675  0.19988  1.0000
  C   C1002     1.0  0.47708  0.89724  0.23339  1.0000
  C   C1003     1.0  0.46988  0.89976  0.27265  1.0000
  C   C1004     1.0  0.44865  0.89137  0.27878  1.0000
  C   C1005     1.0  0.40263  0.83238  0.21234  1.0000
  C   C1006     1.0  0.39104  0.81320  0.19168  1.0000
  C   C1007     1.0  0.36955  0.80458  0.18840  1.0000
  C   C1008     1.0  0.35959  0.81489  0.20673  1.0000
  C   C1009     1.0  0.37113  0.83411  0.22709  1.0000
  C   C1010     1.0  0.40151  0.86400  0.30938  1.0000
  C   C1011     1.0  0.38670  0.86835  0.32828  1.0000
  C   C1012     1.0  0.38138  0.86324  0.37037  1.0000
  C   C1013     1.0  0.39072  0.85366  0.39383  1.0000
  C   C1014     1.0  0.40549  0.84929  0.37525  1.0000
  C   C1015     1.0  0.41075  0.85429  0.33306  1.0000
  H   H803      1.0  0.39989  0.93232  0.25989  1.0000
  H   H804      1.0  0.37694  0.92294  0.19551  1.0000
  H   H805      1.0  0.36838  0.89070  0.15465  1.0000
  H   H806      1.0  0.38194  0.86743  0.17832  1.0000
  H   H807      1.0  0.41352  0.90915  0.28456  1.0000
  H   H808      1.0  0.43130  0.87072  0.17932  1.0000
  H   H809      1.0  0.46854  0.88445  0.16951  1.0000
  H   H810      1.0  0.49351  0.90329  0.22924  1.0000
  H   H811      1.0  0.48084  0.90801  0.29845  1.0000
  H   H812      1.0  0.44333  0.89354  0.30935  1.0000
  H   H813      1.0  0.41919  0.83843  0.21500  1.0000
  H   H814      1.0  0.39877  0.80523  0.17724  1.0000
  H   H815      1.0  0.36065  0.79003  0.17120  1.0000
  H   H816      1.0  0.34293  0.80820  0.20469  1.0000
  H   H817      1.0  0.36316  0.84195  0.24094  1.0000
  H   H818      1.0  0.37899  0.87539  0.31048  1.0000
  H   H819      1.0  0.36989  0.86664  0.38458  1.0000
  H   H820      1.0  0.60200  0.96354  0.23311  1.0000
  H   H821      1.0  0.41268  0.84179  0.39335  1.0000
  H   H822      1.0  0.42183  0.85034  0.31866  1.0000
  H   H823      1.0  0.53100  0.98191  0.04591  1.0000
  H   H824      1.0  0.58408  0.84939  0.08994  1.0000
  C   C1016     1.0  0.33379  0.89934  0.23281  1.0000
  H   H825      1.0  0.44436  0.92584  0.97111  1.0000
  C   C1017     1.0  0.61994  0.82771  0.19525  1.0000
  C   C1018     1.0  0.57062  0.75434  0.06245  1.0000
  C   C1019     1.0  0.59650  0.81980  0.13413  1.0000
  C   C1020     1.0  0.59993  0.81785  0.17739  1.0000
  H   H826      1.0  0.53210  0.90534  0.40507  1.0000
  C   C1021     1.0  0.56900  0.81835  0.06258  1.0000
  C   C1022     1.0  0.55854  0.80629  0.02635  1.0000
  C   C1023     1.0  0.55653  0.81569  0.98952  1.0000
  C   C1024     1.0  0.56460  0.83712  0.98880  1.0000
  C   C1025     1.0  0.57482  0.84920  0.02487  1.0000
  C   C1026     1.0  0.57691  0.83987  0.06171  1.0000
  C   C1027     1.0  0.44395  0.91253  0.67458  1.0000
  C   C1028     1.0  0.55936  0.82652  0.17388  1.0000
  C   C1029     1.0  0.54537  0.82868  0.20047  1.0000
  P   P32       1.0  0.56704  0.98147  0.08691  1.0000
  C   C1030     1.0  0.45927  0.86977  0.99970  1.0000
  H   H827      1.0  0.41964  0.90417  0.74720  1.0000
  H   H828      1.0  0.46829  0.93662  0.22911  1.0000
  C   C1031     1.0  0.57358  0.83474  0.65348  1.0000
  H   H829      1.0  0.58710  0.80879  0.19733  1.0000
  H   H830      1.0  0.46647  0.98912  0.17630  1.0000
  H   H831      1.0  0.54792  0.80630  0.96209  1.0000
  H   H832      1.0  0.56212  0.84426  0.96097  1.0000
  H   H833      1.0  0.58034  0.86573  0.02489  1.0000
  C   C1032     1.0  0.34567  0.89210  0.29936  1.0000
  C   C1033     1.0  0.39059  0.90268  0.76192  1.0000
  C   C1034     1.0  0.34242  0.90587  0.27400  1.0000
  H   H834      1.0  0.49152  0.91344  0.94912  1.0000
  C   C1035     1.0  0.50214  0.90398  0.40813  1.0000
  C   C1036     1.0  0.39774  0.93018  0.69646  1.0000
  P   P33       1.0  0.43540  0.93203  0.67511  1.0000
  C   C1037     1.0  0.44421  0.88248  0.64126  1.0000
  H   H835      1.0  0.35708  0.87418  0.89471  1.0000
  C   C1038     1.0  0.57697  0.87625  0.87403  1.0000
  C   C1039     1.0  0.63345  0.84074  0.12651  1.0000
  H   H836      1.0  0.50675  0.98320  0.71916  1.0000
  C   C1040     1.0  0.33976  0.87186  0.28413  1.0000
  H   H837      1.0  0.49631  0.89430  0.37960  1.0000
  H   H838      1.0  0.50987  0.89582  0.12964  1.0000
  C   C1041     1.0  0.45924  0.97068  0.33200  1.0000
  S   S144      1.0  0.56255  0.98518  0.47266  1.0000
  C   C1042     1.0  0.50717  0.92306  0.14691  1.0000
  C   C1043     1.0  0.49581  0.94721  0.99670  1.0000
  C   C1044     1.0  0.43306  0.89893  0.07836  1.0000
  C   C1045     1.0  0.50339  0.90595  0.12098  1.0000
  H   H839      1.0  0.44422  0.90603  0.10418  1.0000
  H   H840      1.0  0.48785  0.88794  0.06529  1.0000
  H   H841      1.0  0.51657  0.92618  0.17575  1.0000
  H   H842      1.0  0.35603  0.94173  0.59145  1.0000
  C   C1046     1.0  0.48862  0.96790  0.94667  1.0000
  C   C1047     1.0  0.43940  0.89818  0.03686  1.0000
  C   C1048     1.0  0.35486  0.88348  0.91907  1.0000
  C   C1049     1.0  0.49083  0.90151  0.08433  1.0000
  H   H843      1.0  0.65219  0.84692  0.18376  1.0000
  C   C1050     1.0  0.48329  0.89736  0.95697  1.0000
  C   C1051     1.0  0.47470  0.93303  0.99720  1.0000
  P   P34       1.0  0.46648  0.90918  0.02480  1.0000
  C   C1052     1.0  0.48218  0.91437  0.07295  1.0000
  C   C1053     1.0  0.49856  0.93589  0.13602  1.0000
  H   H844      1.0  0.33167  0.96004  0.57333  1.0000
  C   C1054     1.0  0.47559  0.98134  0.43460  1.0000
  C   C1055     1.0  0.52462  0.81387  0.19904  1.0000
  C   C1056     1.0  0.34635  0.87460  0.95793  1.0000
  H   H845      1.0  0.44878  0.86438  0.02575  1.0000
  C   C1057     1.0  0.48618  0.93164  0.09908  1.0000
  H   H846      1.0  0.50142  0.94906  0.15638  1.0000
  C   C1058     1.0  0.46762  0.95401  0.94725  1.0000
  H   H847      1.0  0.47960  0.94169  0.09101  1.0000
  H   H848      1.0  0.45956  0.92170  0.73577  1.0000
  H   H849      1.0  0.38919  0.96478  0.08630  1.0000
  H   H850      1.0  0.57855  0.95716  0.50314  1.0000
  H   H851      1.0  0.58359  0.94732  0.57593  1.0000
  P   P35       1.0  0.57068  0.80652  0.11129  1.0000
  C   C1059     1.0  0.55273  0.80928  0.14608  1.0000
  H   H852      1.0  0.51369  0.81590  0.21873  1.0000
  C   C1060     1.0  0.46982  0.89084  0.99105  1.0000
  H   H853      1.0  0.47893  0.85104  0.92353  1.0000
  C   C1061     1.0  0.46259  0.85548  0.97550  1.0000
  C   C1062     1.0  0.48641  0.88300  0.93253  1.0000
  H   H854      1.0  0.45481  0.83931  0.98324  1.0000
  C   C1063     1.0  0.47618  0.86210  0.94197  1.0000
  H   H855      1.0  0.49693  0.88810  0.90647  1.0000
  C   C1064     1.0  0.51782  0.79696  0.17074  1.0000
  C   C1065     1.0  0.39720  0.88017  0.05454  1.0000
  C   C1066     1.0  0.45631  0.88153  0.67514  1.0000
  C   C1067     1.0  0.56302  0.86137  0.66206  1.0000
  H   H856      1.0  0.58440  0.78643  0.04777  1.0000
  C   C1068     1.0  0.41202  0.88992  0.08707  1.0000
  H   H857      1.0  0.40717  0.89019  0.11912  1.0000
  H   H858      1.0  0.38648  0.84958  0.42635  1.0000
  H   H859      1.0  0.46112  0.86961  0.67543  1.0000
  H   H860      1.0  0.51905  0.97510  0.96994  1.0000
  H   H861      1.0  0.47098  0.89502  0.73593  1.0000
  C   C1069     1.0  0.58486  0.85741  0.71594  1.0000
  C   C1070     1.0  0.33011  0.95730  0.53940  1.0000
  S   S145      1.0  0.32336  0.83949  0.22589  1.0000
  C   C1071     1.0  0.57396  0.86765  0.70115  1.0000
  H   H862      1.0  0.54905  0.93565  0.08772  1.0000
  H   H863      1.0  0.59367  0.86221  0.74569  1.0000
  C   C1072     1.0  0.37012  0.96231  0.18456  1.0000
  H   H864      1.0  0.48310  0.97445  0.22300  1.0000
  C   C1073     1.0  0.44212  0.95955  0.15299  1.0000
  C   C1074     1.0  0.37156  0.95395  0.59736  1.0000
  H   H865      1.0  0.54453  0.95489  0.93933  1.0000
  C   C1075     1.0  0.40539  0.96773  0.18962  1.0000
  C   C1076     1.0  0.53173  0.79487  0.14381  1.0000
  C   C1077     1.0  0.55412  0.96629  0.00382  1.0000
  C   C1078     1.0  0.54522  0.95086  0.97207  1.0000
  H   H866      1.0  0.41981  0.92765  0.14001  1.0000
  C   C1079     1.0  0.56547  0.78004  0.10302  1.0000
  C   C1080     1.0  0.38887  0.96475  0.12066  1.0000
  H   H867      1.0  0.57342  0.82203  0.63507  1.0000
  C   C1081     1.0  0.39775  0.92548  0.02749  1.0000
  H   H868      1.0  0.44317  0.98092  0.03127  1.0000
  C   C1082     1.0  0.55571  0.96120  0.04609  1.0000
  C   C1083     1.0  0.57865  0.97466  0.13091  1.0000
  C   C1084     1.0  0.56289  0.97876  0.60180  1.0000
  H   H869      1.0  0.56460  0.94322  0.21537  1.0000
  H   H870      1.0  0.38458  0.91023  0.02583  1.0000
  H   H871      1.0  0.40168  0.92672  0.95984  1.0000
  H   H872      1.0  0.39617  0.92883  0.09457  1.0000
  C   C1085     1.0  0.40736  0.93477  0.99028  1.0000
  C   C1086     1.0  0.53740  0.93017  0.98231  1.0000
  H   H873      1.0  0.64646  0.84951  0.10675  1.0000
  H   H874      1.0  0.53059  0.91823  0.95763  1.0000
  C   C1087     1.0  0.40460  0.93606  0.06659  1.0000
  C   C1088     1.0  0.60826  0.98195  0.17752  1.0000
  C   C1089     1.0  0.37087  0.96212  0.14034  1.0000
  C   C1090     1.0  0.57455  0.95491  0.19425  1.0000
  H   H875      1.0  0.36249  0.90466  0.77106  1.0000
  C   C1091     1.0  0.46114  0.94298  0.20756  1.0000
  C   C1092     1.0  0.53875  0.92488  0.02416  1.0000
  C   C1093     1.0  0.54795  0.94029  0.05591  1.0000
  C   C1094     1.0  0.40336  0.87928  0.01327  1.0000
  H   H876      1.0  0.49782  0.94888  0.31544  1.0000
  C   C1095     1.0  0.45994  0.97257  0.17730  1.0000
  C   C1096     1.0  0.38441  0.96272  0.56277  1.0000
  C   C1097     1.0  0.63669  0.83923  0.16987  1.0000
  H   H877      1.0  0.50160  0.78578  0.16861  1.0000
  H   H878      1.0  0.50698  0.94440  0.01456  1.0000
  H   H879      1.0  0.53294  0.90878  0.03182  1.0000
  H   H880      1.0  0.49395  0.98099  0.92616  1.0000
  H   H881      1.0  0.61128  0.83200  0.07482  1.0000
  S   S146      1.0  0.51754  0.99154  0.29367  1.0000
  H   H882      1.0  0.42885  0.88699  0.97235  1.0000
  C   C1098     1.0  0.42380  0.95472  0.99216  1.0000
  C   C1099     1.0  0.50272  0.96457  0.97148  1.0000
  H   H883      1.0  0.43670  0.91341  0.18704  1.0000
  C   C1100     1.0  0.49276  0.97543  0.31066  1.0000
  C   C1101     1.0  0.53098  0.98543  0.07930  1.0000
  C   C1102     1.0  0.39858  0.97664  0.64809  1.0000
  H   H884      1.0  0.51805  0.97896  0.80954  1.0000
  H   H885      1.0  0.38089  0.87321  0.06119  1.0000
  H   H886      1.0  0.59959  0.90820  0.88104  1.0000
  H   H887      1.0  0.34156  0.86107  0.30454  1.0000
  H   H888      1.0  0.33114  0.90983  0.21298  1.0000
  H   H889      1.0  0.34212  0.85861  0.96337  1.0000
  H   H890      1.0  0.52600  0.78212  0.12089  1.0000
  H   H891      1.0  0.39182  0.87158  0.98812  1.0000
  C   C1103     1.0  0.46793  0.94267  0.33734  1.0000
  H   H892      1.0  0.43074  0.96216  0.96306  1.0000
  H   H893      1.0  0.45577  0.96949  0.54094  1.0000
  C   C1104     1.0  0.51096  0.98828  0.42601  1.0000
  C   C1105     1.0  0.51671  0.88483  0.73289  1.0000
  C   C1106     1.0  0.47863  0.98310  0.31525  1.0000
  C   C1107     1.0  0.38741  0.96535  0.20909  1.0000
  H   H894      1.0  0.55471  0.86914  0.64961  1.0000
  C   C1108     1.0  0.51663  0.89603  0.69752  1.0000
  H   H895      1.0  0.62245  0.82639  0.22880  1.0000
  P   P36       1.0  0.42923  0.97022  0.11949  1.0000
  H   H896      1.0  0.58510  0.93263  0.74192  1.0000
  C   C1109     1.0  0.55344  0.76474  0.13137  1.0000
  C   C1110     1.0  0.55153  0.90279  0.68290  1.0000
  H   H897      1.0  0.56498  0.91020  0.66347  1.0000
  H   H898      1.0  0.50344  0.87840  0.75299  1.0000
  H   H899      1.0  0.59857  0.91539  0.80571  1.0000
  C   C1111     1.0  0.61417  0.91199  0.69962  1.0000
  C   C1112     1.0  0.58979  0.89581  0.85900  1.0000
  H   H900      1.0  0.55435  0.84019  0.60825  1.0000
  C   C1113     1.0  0.58461  0.84098  0.69222  1.0000
  S   S147      1.0  0.43073  0.93525  0.36746  1.0000
  C   C1114     1.0  0.55190  0.89183  0.71881  1.0000
  C   C1115     1.0  0.58902  0.89987  0.81602  1.0000
  C   C1116     1.0  0.33565  0.96939  0.46740  1.0000
  C   C1117     1.0  0.56350  0.86059  0.84599  1.0000
  H   H901      1.0  0.54694  0.76840  0.15874  1.0000
  C   C1118     1.0  0.53424  0.88268  0.74349  1.0000
  H   H902      1.0  0.64467  0.96347  0.68735  1.0000
  C   C1119     1.0  0.42142  0.95604  0.06899  1.0000
  C   C1120     1.0  0.50808  0.96699  0.60301  1.0000
  Fe  Fe73      1.0  0.41225  0.95184  0.37859  1.0000
  C   C1121     1.0  0.59725  0.91258  0.71871  1.0000
  P   P37       1.0  0.57465  0.88906  0.73166  1.0000
  H   H903      1.0  0.53404  0.87435  0.77157  1.0000
  C   C1122     1.0  0.56295  0.86448  0.80282  1.0000
  C   C1123     1.0  0.37850  0.96091  0.63959  1.0000
  C   C1124     1.0  0.61493  0.94998  0.71579  1.0000
  C   C1125     1.0  0.57564  0.88420  0.78750  1.0000
  H   H904      1.0  0.61496  0.96465  0.72128  1.0000
  C   C1126     1.0  0.59789  0.93175  0.72711  1.0000
  H   H905      1.0  0.55231  0.85222  0.78154  1.0000
  C   C1127     1.0  0.43085  0.96531  0.03122  1.0000
  H   H906      1.0  0.49896  0.97366  0.54271  1.0000
  C   C1128     1.0  0.59560  0.96635  0.20417  1.0000
  S   S148      1.0  0.40756  0.97264  0.89545  1.0000
  H   H907      1.0  0.57694  0.87348  0.90766  1.0000
  C   C1129     1.0  0.56607  0.95919  0.15817  1.0000
  H   H908      1.0  0.59773  0.98840  0.02230  1.0000
  Fe  Fe74      1.0  0.53916  0.98070  0.32132  1.0000
  H   H909      1.0  0.55124  0.78964  0.02686  1.0000
  S   S149      1.0  0.37450  0.95321  0.51013  1.0000
  H   H910      1.0  0.47234  0.74810  0.98637  1.0000
  C   C1130     1.0  0.56566  0.97667  0.52417  1.0000
  H   H911      1.0  0.32190  0.87448  0.18534  1.0000
  C   C1131     1.0  0.49065  0.97972  0.71781  1.0000
  S   S150      1.0  0.33200  0.87605  0.03846  1.0000
  S   S151      1.0  0.40805  0.98683  0.70069  1.0000
  C   C1132     1.0  0.59990  0.98607  0.14092  1.0000
  H   H912      1.0  0.64421  0.92980  0.67349  1.0000
  C   C1133     1.0  0.51517  0.98914  0.09460  1.0000
  C   C1134     1.0  0.56008  0.98435  0.56032  1.0000
  C   C1135     1.0  0.54670  0.99187  0.14992  1.0000
  H   H913      1.0  0.32594  0.94579  0.41795  1.0000
  Fe  Fe75      1.0  0.58318  0.98885  0.31431  1.0000
  C   C1136     1.0  0.49465  0.98518  0.83629  1.0000
  Fe  Fe76      1.0  0.32290  0.84433  0.06547  1.0000
  H   H914      1.0  0.50310  0.98826  0.07296  1.0000
  H   H915      1.0  0.46324  0.98522  0.42838  1.0000
  H   H916      1.0  0.32816  0.98881  0.61177  1.0000
  H   H917      1.0  0.55894  0.99338  0.17182  1.0000
  H   H918      1.0  0.57719  0.75023  0.03571  1.0000
  H   H919      1.0  0.34120  0.99204  0.68588  1.0000
  C   C1137     1.0  0.54952  0.74432  0.12441  1.0000
  S   S152      1.0  0.46481  0.99312  0.86860  1.0000
  C   C1138     1.0  0.74641  0.16284  0.13572  1.0000
  Fe  Fe77      1.0  0.66618  0.14095  0.08283  1.0000
  S   S153      1.0  0.69584  0.16950  0.10910  1.0000
  H   H920      1.0  0.80237  0.16540  0.13856  1.0000
  C   C1139     1.0  0.75660  0.22433  0.06345  1.0000
  C   C1140     1.0  0.74952  0.22430  0.10444  1.0000
  C   C1141     1.0  0.73093  0.20758  0.11757  1.0000
  C   C1142     1.0  0.71866  0.19084  0.08968  1.0000
  C   C1143     1.0  0.72527  0.19134  0.04806  1.0000
  C   C1144     1.0  0.74421  0.20774  0.03544  1.0000
  C   C1145     1.0  0.81065  0.17315  0.16772  1.0000
  H   H921      1.0  0.72603  0.20759  0.14972  1.0000
  H   H922      1.0  0.71618  0.17871  0.02603  1.0000
  H   H923      1.0  0.74953  0.20742  0.00384  1.0000
  C   C1146     1.0  0.72306  0.18796  0.92634  1.0000
  H   H924      1.0  0.72591  0.14909  0.08140  1.0000
  H   H925      1.0  0.77378  0.21643  0.16953  1.0000
  H   H926      1.0  0.67515  0.14705  0.93168  1.0000
  C   C1147     1.0  0.75632  0.17131  0.06308  1.0000
  C   C1148     1.0  0.71874  0.20363  0.94103  1.0000
  C   C1149     1.0  0.66515  0.10982  0.29224  1.0000
  P   P38       1.0  0.80690  0.20712  0.13980  1.0000
  C   C1150     1.0  0.67333  0.19599  0.04143  1.0000
  H   H927      1.0  0.68683  0.19374  0.04541  1.0000
  C   C1151     1.0  0.69867  0.19901  0.95272  1.0000
  C   C1152     1.0  0.65393  0.20997  0.00310  1.0000
  H   H928      1.0  0.75226  0.16933  0.02949  1.0000
  C   C1153     1.0  0.68294  0.17853  0.94875  1.0000
  P   P39       1.0  0.69286  0.21911  0.97173  1.0000
  C   C1154     1.0  0.74147  0.15984  0.09231  1.0000
  C   C1155     1.0  0.70737  0.16759  0.92304  1.0000
  H   H929      1.0  0.73865  0.19159  0.91802  1.0000
  C   C1156     1.0  0.68731  0.16289  0.93411  1.0000
  C   C1157     1.0  0.67197  0.20787  0.00831  1.0000
  C   C1158     1.0  0.77604  0.18603  0.07717  1.0000
  H   H930      1.0  0.78699  0.19515  0.05388  1.0000
  H   H931      1.0  0.85927  0.20719  0.04198  1.0000
  C   C1159     1.0  0.76626  0.17718  0.14993  1.0000
  S   S154      1.0  0.65953  0.10737  0.08272  1.0000
  C   C1160     1.0  0.83682  0.23860  0.03570  1.0000
  C   C1161     1.0  0.80704  0.22947  0.16526  1.0000
  H   H932      1.0  0.71073  0.15540  0.91207  1.0000
  C   C1162     1.0  0.82573  0.20326  0.21508  1.0000
  H   H933      1.0  0.67736  0.12097  0.23079  1.0000
  C   C1163     1.0  0.66374  0.11449  0.24991  1.0000
  H   H934      1.0  0.82918  0.21892  0.22343  1.0000
  H   H935      1.0  0.67994  0.11270  0.30606  1.0000
  H   H936      1.0  0.73467  0.15426  0.15826  1.0000
  C   C1164     1.0  0.78120  0.18900  0.12077  1.0000
  H   H937      1.0  0.81308  0.14656  0.18905  1.0000
  H   H938      1.0  0.76985  0.17930  0.18371  1.0000
  H   H939      1.0  0.66726  0.17455  0.95708  1.0000
  C   C1165     1.0  0.84954  0.21414  0.05018  1.0000
  H   H940      1.0  0.83979  0.19991  0.27310  1.0000
  C   C1166     1.0  0.83176  0.19248  0.24353  1.0000
  C   C1167     1.0  0.83683  0.20728  0.08523  1.0000
  H   H941      1.0  0.83185  0.16373  0.25632  1.0000
  C   C1168     1.0  0.84947  0.22973  0.02534  1.0000
  C   C1169     1.0  0.81670  0.16243  0.19623  1.0000
  C   C1170     1.0  0.82398  0.21605  0.09564  1.0000
  C   C1171     1.0  0.78862  0.22958  0.17656  1.0000
  C   C1172     1.0  0.82726  0.17209  0.23412  1.0000
  C   C1173     1.0  0.81517  0.19368  0.17683  1.0000
  C   C1174     1.0  0.82415  0.23179  0.07070  1.0000
  H   H942      1.0  0.70763  0.23103  0.06144  1.0000
  H   H943      1.0  0.83699  0.19508  0.10376  1.0000
  H   H944      1.0  0.73121  0.21921  0.94390  1.0000
  H   H945      1.0  0.85904  0.23482  0.99780  1.0000
  H   H946      1.0  0.67549  0.20185  0.88630  1.0000
  C   C1175     1.0  0.68470  0.22900  0.92719  1.0000
  C   C1176     1.0  0.71565  0.24015  0.99643  1.0000
  H   H947      1.0  0.81424  0.23863  0.07799  1.0000
  H   H948      1.0  0.75855  0.23702  0.12624  1.0000
  C   C1177     1.0  0.71863  0.24217  0.04078  1.0000
  C   C1178     1.0  0.67676  0.21712  0.88954  1.0000
  H   H949      1.0  0.65845  0.17752  0.09473  1.0000
  H   H950      1.0  0.66420  0.21567  0.82648  1.0000
  C   C1179     1.0  0.67026  0.22489  0.85549  1.0000
  C   C1180     1.0  0.65713  0.18661  0.06925  1.0000
  Fe  Fe78      1.0  0.83330  0.46213  0.08866  1.0000
  S   S155      1.0  0.81243  0.46671  0.04115  1.0000
  S   S156      1.0  0.84205  0.43667  0.10198  1.0000
  C   C1181     1.0  0.98002  0.35983  0.60373  1.0000
  H   H951      1.0  0.91323  0.46202  0.32767  1.0000
  S   S157      1.0  0.82421  0.47612  0.14299  1.0000
  H   H952      1.0  0.94119  0.43487  0.95736  1.0000
  Fe  Fe79      1.0  0.83474  0.30904  0.13359  1.0000
  S   S158      1.0  0.84626  0.33451  0.08751  1.0000
  S   S159      1.0  0.84648  0.31947  0.20154  1.0000
  Fe  Fe80      1.0  0.80584  0.27699  0.06691  1.0000
  S   S160      1.0  0.81651  0.30085  0.01555  1.0000
  Fe  Fe81      1.0  0.84887  0.31198  0.04191  1.0000
  S   S161      1.0  0.88041  0.33039  0.01234  1.0000
  Fe  Fe82      1.0  0.81356  0.32186  0.06456  1.0000
  S   S162      1.0  0.79902  0.34188  0.04436  1.0000
  S   S163      1.0  0.83899  0.28675  0.08988  1.0000
  S   S164      1.0  0.80119  0.29772  0.11427  1.0000
  H   H953      1.0  0.89320  0.26763  0.02735  1.0000
  C   C1182     1.0  0.73261  0.49101  0.05125  1.0000
  S   S165      1.0  0.97350  0.38159  0.86304  1.0000
  H   H954      1.0  0.90280  0.40657  0.95740  1.0000
  S   S166      1.0  0.94431  0.37238  0.77512  1.0000
  H   H955      1.0  0.88951  0.37188  0.98710  1.0000
  Fe  Fe83      1.0  0.96620  0.39965  0.81496  1.0000
  H   H956      1.0  0.85694  0.43009  0.99771  1.0000
  Fe  Fe84      1.0  0.95315  0.35438  0.82073  1.0000
  S   S167      1.0  0.92850  0.32511  0.84954  1.0000
  H   H957      1.0  0.66659  0.25053  0.83237  1.0000
  Fe  Fe85      1.0  0.96231  0.39841  0.37485  1.0000
  S   S168      1.0  0.94832  0.41939  0.38727  1.0000
  Fe  Fe86      1.0  0.95161  0.35720  0.33107  1.0000
  H   H958      1.0  0.74616  0.37626  0.30750  1.0000
  S   S169      1.0  0.93107  0.33087  0.28535  1.0000
  C   C1183     1.0  0.90176  0.26344  0.22938  1.0000
  H   H959      1.0  0.74545  0.39498  0.37327  1.0000
  S   S170      1.0  0.94688  0.36593  0.39729  1.0000
  S   S171      1.0  0.96400  0.38920  0.30790  1.0000
  C   C1184     1.0  0.75039  0.47857  0.10020  1.0000
  C   C1185     1.0  0.76934  0.40339  0.27863  1.0000
  C   C1186     1.0  0.96561  0.44515  0.37866  1.0000
  P   P40       1.0  0.96250  0.38058  0.04850  1.0000
  H   H960      1.0  0.73268  0.46327  0.15434  1.0000
  S   S172      1.0  0.98317  0.36067  0.34726  1.0000
  C   C1187     1.0  0.93754  0.43412  0.72800  1.0000
  H   H961      1.0  0.72896  0.25352  0.93668  1.0000
  P   P41       1.0  0.97690  0.46181  0.63128  1.0000
  C   C1188     1.0  0.68578  0.24862  0.93046  1.0000
  H   H962      1.0  0.96955  0.45781  0.15258  1.0000
  H   H963      1.0  0.87348  0.45821  0.87554  1.0000
  H   H964      1.0  0.77133  0.48819  0.22924  1.0000
  C   C1189     1.0  0.97422  0.27728  0.05995  1.0000
  H   H965      1.0  0.83431  0.44592  0.00774  1.0000
  H   H966      1.0  0.88433  0.48851  0.28046  1.0000
  C   C1190     1.0  0.97189  0.48134  0.81021  1.0000
  H   H967      1.0  0.98045  0.46012  0.26189  1.0000
  C   C1191     1.0  0.78537  0.39737  0.14152  1.0000
  C   C1192     1.0  0.87075  0.32351  0.22233  1.0000
  C   C1193     1.0  0.87898  0.33604  0.25911  1.0000
  C   C1194     1.0  0.89787  0.33913  0.27778  1.0000
  C   C1195     1.0  0.90829  0.32897  0.26075  1.0000
  C   C1196     1.0  0.90001  0.31633  0.22404  1.0000
  C   C1197     1.0  0.88154  0.31390  0.20438  1.0000
  H   H968      1.0  0.87054  0.34320  0.27350  1.0000
  H   H969      1.0  0.90397  0.34874  0.30624  1.0000
  H   H970      1.0  0.90787  0.30828  0.21097  1.0000
  H   H971      1.0  0.87538  0.30418  0.17611  1.0000
  C   C1198     1.0  0.91388  0.32679  0.89248  1.0000
  C   C1199     1.0  0.91937  0.34557  0.91386  1.0000
  C   C1200     1.0  0.90866  0.34633  0.94990  1.0000
  C   C1201     1.0  0.89186  0.32847  0.96437  1.0000
  C   C1202     1.0  0.88590  0.30972  0.94233  1.0000
  C   C1203     1.0  0.89702  0.30888  0.90679  1.0000
  H   H972      1.0  0.93221  0.35944  0.90315  1.0000
  H   H973      1.0  0.91362  0.36083  0.96691  1.0000
  H   H974      1.0  0.87310  0.29583  0.95317  1.0000
  H   H975      1.0  0.89262  0.29428  0.89039  1.0000
  H   H976      1.0  0.85209  0.35056  0.99724  1.0000
  H   H977      1.0  0.95417  0.46472  0.70549  1.0000
  C   C1204     1.0  0.79246  0.40787  0.18067  1.0000
  S   S173      1.0  0.78103  0.24397  0.04595  1.0000
  S   S174      1.0  0.95524  0.42216  0.83731  1.0000
  H   H978      1.0  0.90497  0.26347  0.29753  1.0000
  C   C1205     1.0  0.82948  0.41042  0.08534  1.0000
  C   C1206     1.0  0.83579  0.39698  0.10423  1.0000
  C   C1207     1.0  0.82672  0.37605  0.09161  1.0000
  C   C1208     1.0  0.81102  0.36826  0.06026  1.0000
  C   C1209     1.0  0.80458  0.38166  0.04146  1.0000
  C   C1210     1.0  0.81385  0.40271  0.05377  1.0000
  H   H979      1.0  0.84759  0.40269  0.12920  1.0000
  H   H980      1.0  0.83162  0.36586  0.10671  1.0000
  H   H981      1.0  0.79240  0.37572  0.01723  1.0000
  H   H982      1.0  0.80879  0.41288  0.03912  1.0000
  H   H983      1.0  0.93937  0.39172  0.68763  1.0000
  C   C1211     1.0  0.90897  0.39989  0.30379  1.0000
  C   C1212     1.0  0.88821  0.38705  0.29338  1.0000
  C   C1213     1.0  0.88024  0.38802  0.25348  1.0000
  C   C1214     1.0  0.89302  0.40190  0.22401  1.0000
  C   C1215     1.0  0.91407  0.41489  0.23405  1.0000
  C   C1216     1.0  0.92189  0.41384  0.27450  1.0000
  P   P42       1.0  0.93079  0.43238  0.19508  1.0000
  C   C1217     1.0  0.95427  0.43020  0.18918  1.0000
  C   C1218     1.0  0.91646  0.42534  0.14507  1.0000
  C   C1219     1.0  0.91644  0.40961  0.11908  1.0000
  C   C1220     1.0  0.90276  0.40175  0.08396  1.0000
  C   C1221     1.0  0.88898  0.40949  0.07483  1.0000
  C   C1222     1.0  0.88929  0.42550  0.09988  1.0000
  C   C1223     1.0  0.90277  0.43325  0.13518  1.0000
  C   C1224     1.0  0.91283  0.26915  0.26812  1.0000
  H   H984      1.0  0.95571  0.38472  0.95683  1.0000
  H   H985      1.0  0.76486  0.28582  0.04781  1.0000
  H   H986      1.0  0.87965  0.43713  0.62861  1.0000
  C   C1225     1.0  0.95648  0.41389  0.20708  1.0000
  C   C1226     1.0  0.93787  0.45900  0.20868  1.0000
  C   C1227     1.0  0.93825  0.46549  0.25103  1.0000
  C   C1228     1.0  0.71497  0.48342  0.07641  1.0000
  H   H987      1.0  0.95117  0.49053  0.91970  1.0000
  H   H988      1.0  0.85767  0.44488  0.33319  1.0000
  C   C1229     1.0  0.94331  0.47358  0.17662  1.0000
  H   H989      1.0  0.91506  0.39867  0.33451  1.0000
  H   H990      1.0  0.87841  0.37605  0.31603  1.0000
  H   H991      1.0  0.86420  0.37768  0.24502  1.0000
  H   H992      1.0  0.88624  0.40199  0.19332  1.0000
  H   H993      1.0  0.93803  0.42347  0.28334  1.0000
  H   H994      1.0  0.92629  0.40277  0.12716  1.0000
  H   H995      1.0  0.90223  0.38915  0.06464  1.0000
  C   C1230     1.0  0.96939  0.43043  0.49922  1.0000
  H   H996      1.0  0.87835  0.43121  0.09287  1.0000
  H   H997      1.0  0.90173  0.44461  0.15598  1.0000
  H   H998      1.0  0.97440  0.36232  0.23176  1.0000
  C   C1231     1.0  0.78513  0.48654  0.23457  1.0000
  H   H999      1.0  0.90176  0.49149  0.18106  1.0000
  C   C1232     1.0  0.86477  0.44619  0.26691  1.0000
  H   H1000     1.0  0.94399  0.40185  0.22365  1.0000
  H   H1001     1.0  0.94247  0.28746  0.29921  1.0000
  H   H1002     1.0  0.82239  0.43995  0.32011  1.0000
  C   C1233     1.0  0.97077  0.44513  0.16689  1.0000
  H   H1003     1.0  0.93746  0.41232  0.51390  1.0000
  H   H1004     1.0  0.94328  0.46909  0.14372  1.0000
  Fe  Fe87      1.0  0.97198  0.37691  0.73726  1.0000
  H   H1005     1.0  0.94160  0.45318  0.36378  1.0000
  C   C1234     1.0  0.82643  0.26440  0.19444  1.0000
  C   C1235     1.0  0.97164  0.47969  0.36237  1.0000
  H   H1006     1.0  0.94846  0.46964  0.57761  1.0000
  H   H1007     1.0  0.84035  0.24746  0.16543  1.0000
  C   C1236     1.0  0.97037  0.48268  0.63016  1.0000
  C   C1237     1.0  0.97526  0.37589  0.61258  1.0000
  S   S175      1.0  0.97234  0.38318  0.66554  1.0000
  C   C1238     1.0  0.97512  0.41304  0.20419  1.0000
  H   H1008     1.0  0.83047  0.46750  0.95170  1.0000
  H   H1009     1.0  0.76821  0.43270  0.38145  1.0000
  C   C1239     1.0  0.76854  0.42451  0.35277  1.0000
  C   C1240     1.0  0.97382  0.44998  0.57897  1.0000
  C   C1241     1.0  0.85767  0.44600  0.22540  1.0000
  C   C1242     1.0  0.95597  0.39788  0.01926  1.0000
  C   C1243     1.0  0.96123  0.33530  0.19016  1.0000
  H   H1010     1.0  0.96826  0.37656  0.14046  1.0000
  C   C1244     1.0  0.78917  0.24709  0.19630  1.0000
  C   C1245     1.0  0.98341  0.35550  0.56155  1.0000
  H   H1011     1.0  0.97702  0.40078  0.21906  1.0000
  H   H1012     1.0  0.97688  0.46969  0.45883  1.0000
  C   C1246     1.0  0.78176  0.43522  0.32033  1.0000
  H   H1013     1.0  0.86904  0.46234  0.60075  1.0000
  C   C1247     1.0  0.73625  0.25866  0.05916  1.0000
  Fe  Fe88      1.0  0.66027  0.48194  0.07422  1.0000
  C   C1248     1.0  0.97413  0.36225  0.98343  1.0000
  H   H1014     1.0  0.88531  0.25319  0.22878  1.0000
  C   C1249     1.0  0.73072  0.25483  0.97095  1.0000
  H   H1015     1.0  0.96042  0.30140  0.23305  1.0000
  C   C1250     1.0  0.85197  0.44404  0.30091  1.0000
  C   C1251     1.0  0.95343  0.32735  0.95587  1.0000
  C   C1252     1.0  0.95081  0.44882  0.70037  1.0000
  H   H1016     1.0  0.69160  0.25793  0.95944  1.0000
  C   C1253     1.0  0.82595  0.24708  0.17419  1.0000
  H   H1017     1.0  0.92477  0.30958  0.98677  1.0000
  H   H1018     1.0  0.91443  0.41188  0.80904  1.0000
  C   C1254     1.0  0.94497  0.37172  0.09196  1.0000
  C   C1255     1.0  0.95230  0.42462  0.52479  1.0000
  C   C1256     1.0  0.95445  0.43441  0.56442  1.0000
  C   C1257     1.0  0.78357  0.46685  0.23736  1.0000
  C   C1258     1.0  0.94418  0.48020  0.98391  1.0000
  H   H1019     1.0  0.91859  0.46356  0.88882  1.0000
  H   H1020     1.0  0.90699  0.35609  0.18524  1.0000
  C   C1259     1.0  0.94325  0.48601  0.26081  1.0000
  C   C1260     1.0  0.94408  0.29064  0.23140  1.0000
  C   C1261     1.0  0.97262  0.26043  0.12616  1.0000
  P   P43       1.0  0.79940  0.43884  0.24133  1.0000
  Fe  Fe89      1.0  0.80488  0.48287  0.09484  1.0000
  H   H1021     1.0  0.88037  0.44862  0.27271  1.0000
  C   C1262     1.0  0.97704  0.35424  0.20531  1.0000
  H   H1022     1.0  0.94574  0.40762  0.91872  1.0000
  H   H1023     1.0  0.94642  0.32905  0.20498  1.0000
  C   C1263     1.0  0.71519  0.47328  0.11358  1.0000
  C   C1264     1.0  0.88119  0.43061  0.40127  1.0000
  C   C1265     1.0  0.89025  0.43695  0.36201  1.0000
  C   C1266     1.0  0.90644  0.45684  0.35812  1.0000
  C   C1267     1.0  0.89166  0.29307  0.05885  1.0000
  C   C1268     1.0  0.90532  0.46385  0.43341  1.0000
  C   C1269     1.0  0.88851  0.44406  0.43677  1.0000
  C   C1270     1.0  0.90404  0.46680  0.52633  1.0000
  C   C1271     1.0  0.95988  0.44297  0.66747  1.0000
  C   C1272     1.0  0.90936  0.45191  0.54143  1.0000
  C   C1273     1.0  0.96762  0.44655  0.81513  1.0000
  C   C1274     1.0  0.93834  0.36598  0.16708  1.0000
  C   C1275     1.0  0.91752  0.36024  0.15920  1.0000
  C   C1276     1.0  0.91668  0.28142  0.07696  1.0000
  C   C1277     1.0  0.93886  0.32407  0.98673  1.0000
  H   H1024     1.0  0.93997  0.45976  0.45387  1.0000
  H   H1025     1.0  0.97546  0.39175  0.51055  1.0000
  C   C1278     1.0  0.92579  0.29725  0.10828  1.0000
  C   C1279     1.0  0.91024  0.35969  0.11775  1.0000
  C   C1280     1.0  0.95571  0.42229  0.66328  1.0000
  C   C1281     1.0  0.82461  0.44078  0.25167  1.0000
  C   C1282     1.0  0.75108  0.27318  0.03356  1.0000
  S   S176      1.0  0.86112  0.49194  0.07510  1.0000
  H   H1026     1.0  0.89340  0.46979  0.05150  1.0000
  H   H1027     1.0  0.83653  0.25057  0.01637  1.0000
  H   H1028     1.0  0.90277  0.26726  0.16217  1.0000
  H   H1029     1.0  0.86855  0.41522  0.40427  1.0000
  H   H1030     1.0  0.88467  0.42647  0.33459  1.0000
  C   C1283     1.0  0.95360  0.39624  0.97485  1.0000
  H   H1031     1.0  0.98632  0.25587  0.06967  1.0000
  H   H1032     1.0  0.88116  0.43880  0.46674  1.0000
  C   C1284     1.0  0.94520  0.42455  0.97480  1.0000
  H   H1033     1.0  0.98101  0.35073  0.62938  1.0000
  C   C1285     1.0  0.94796  0.40933  0.95290  1.0000
  C   C1286     1.0  0.90012  0.30838  0.09080  1.0000
  H   H1034     1.0  0.77761  0.44515  0.16665  1.0000
  H   H1035     1.0  0.92977  0.33721  0.03787  1.0000
  C   C1287     1.0  0.95211  0.37183  0.13363  1.0000
  H   H1036     1.0  0.80041  0.40265  0.20277  1.0000
  C   C1288     1.0  0.91429  0.47005  0.39378  1.0000
  H   H1037     1.0  0.95821  0.49272  0.99750  1.0000
  H   H1038     1.0  0.92034  0.44856  0.52492  1.0000
  H   H1039     1.0  0.90504  0.43008  0.59014  1.0000
  H   H1040     1.0  0.95063  0.31540  0.93204  1.0000
  H   H1041     1.0  0.76552  0.42685  0.09836  1.0000
  C   C1289     1.0  0.75614  0.39273  0.31114  1.0000
  C   C1290     1.0  0.86804  0.41190  0.80192  1.0000
  C   C1291     1.0  0.88513  0.40971  0.78922  1.0000
  C   C1292     1.0  0.90146  0.41416  0.81809  1.0000
  C   C1293     1.0  0.90098  0.42117  0.85927  1.0000
  C   C1294     1.0  0.88409  0.42384  0.87203  1.0000
  C   C1295     1.0  0.86735  0.41860  0.84342  1.0000
  P   P44       1.0  0.88238  0.43001  0.92686  1.0000
  C   C1296     1.0  0.87286  0.40556  0.95234  1.0000
  C   C1297     1.0  0.90716  0.44876  0.94858  1.0000
  C   C1298     1.0  0.91112  0.45011  0.99251  1.0000
  C   C1299     1.0  0.92959  0.46577  0.01012  1.0000
  H   H1042     1.0  0.86760  0.44808  0.19890  1.0000
  C   C1300     1.0  0.96415  0.28752  0.07829  1.0000
  C   C1301     1.0  0.92177  0.46345  0.92252  1.0000
  C   C1302     1.0  0.85157  0.39313  0.95720  1.0000
  C   C1303     1.0  0.84419  0.37350  0.97391  1.0000
  C   C1304     1.0  0.85790  0.36594  0.98500  1.0000
  C   C1305     1.0  0.87903  0.37801  0.97931  1.0000
  C   C1306     1.0  0.88650  0.39771  0.96287  1.0000
  C   C1307     1.0  0.86578  0.44171  0.93440  1.0000
  C   C1308     1.0  0.86430  0.45464  0.90367  1.0000
  C   C1309     1.0  0.85126  0.46355  0.90962  1.0000
  C   C1310     1.0  0.84014  0.46012  0.94677  1.0000
  C   C1311     1.0  0.84234  0.44807  0.97833  1.0000
  C   C1312     1.0  0.85524  0.43906  0.97242  1.0000
  H   H1043     1.0  0.85516  0.40804  0.77988  1.0000
  H   H1044     1.0  0.88557  0.40422  0.75732  1.0000
  C   C1313     1.0  0.96485  0.32407  0.15780  1.0000
  H   H1045     1.0  0.91366  0.42409  0.88124  1.0000
  H   H1046     1.0  0.85361  0.41935  0.85323  1.0000
  H   H1047     1.0  0.89961  0.43948  0.01313  1.0000
  C   C1314     1.0  0.89994  0.27961  0.05189  1.0000
  H   H1048     1.0  0.94825  0.45740  0.84579  1.0000
  H   H1049     1.0  0.80855  0.27819  0.22007  1.0000
  H   H1050     1.0  0.94108  0.42957  0.58399  1.0000
  H   H1051     1.0  0.84054  0.39831  0.94736  1.0000
  H   H1052     1.0  0.82776  0.36395  0.97764  1.0000
  C   C1315     1.0  0.91177  0.27153  0.19163  1.0000
  H   H1053     1.0  0.96575  0.49028  0.35433  1.0000
  C   C1316     1.0  0.98424  0.45167  0.78851  1.0000
  H   H1054     1.0  0.83276  0.44400  0.18559  1.0000
  C   C1317     1.0  0.82075  0.48203  0.24571  1.0000
  C   C1318     1.0  0.94174  0.33993  0.01567  1.0000
  H   H1055     1.0  0.70183  0.46723  0.13329  1.0000
  H   H1056     1.0  0.89327  0.31845  0.09652  1.0000
  C   C1319     1.0  0.92389  0.36538  0.08424  1.0000
  S   S177      1.0  0.77236  0.47568  0.11791  1.0000
  C   C1320     1.0  0.73277  0.47101  0.12541  1.0000
  C   C1321     1.0  0.80143  0.46441  0.24149  1.0000
  C   C1322     1.0  0.88034  0.45945  0.58421  1.0000
  H   H1057     1.0  0.77492  0.24726  0.20424  1.0000
  H   H1058     1.0  0.85042  0.47386  0.88632  1.0000
  H   H1059     1.0  0.92361  0.40217  0.74531  1.0000
  H   H1060     1.0  0.97886  0.27996  0.02724  1.0000
  C   C1323     1.0  0.93340  0.41355  0.72335  1.0000
  C   C1324     1.0  0.97844  0.26373  0.08386  1.0000
  C   C1325     1.0  0.94031  0.47894  0.94011  1.0000
  H   H1061     1.0  0.95396  0.41411  0.07550  1.0000
  C   C1326     1.0  0.83779  0.44356  0.21787  1.0000
  Fe  Fe90      1.0  0.97953  0.37234  0.41228  1.0000
  C   C1327     1.0  0.83195  0.44132  0.29337  1.0000
  C   C1328     1.0  0.96125  0.46133  0.82555  1.0000
  C   C1329     1.0  0.74834  0.27124  0.98948  1.0000
  H   H1062     1.0  0.90792  0.49299  0.95365  1.0000
  C   C1330     1.0  0.67931  0.25636  0.89633  1.0000
  C   C1331     1.0  0.95503  0.48175  0.60170  1.0000
  H   H1063     1.0  0.87763  0.40277  0.04904  1.0000
  H   H1064     1.0  0.94373  0.36597  0.19936  1.0000
  C   C1332     1.0  0.94240  0.40764  0.69090  1.0000
  C   C1333     1.0  0.95801  0.45880  0.36770  1.0000
  S   S178      1.0  0.69348  0.48749  0.06027  1.0000
  H   H1065     1.0  0.93100  0.43890  0.75377  1.0000
  H   H1066     1.0  0.94475  0.43764  0.03620  1.0000
  H   H1067     1.0  0.78795  0.38430  0.13361  1.0000
  H   H1068     1.0  0.88439  0.46354  0.12703  1.0000
  C   C1334     1.0  0.88628  0.44522  0.59986  1.0000
  C   C1335     1.0  0.77966  0.43170  0.16078  1.0000
  S   S179      1.0  0.97922  0.35635  0.77982  1.0000
  H   H1069     1.0  0.87858  0.29161  0.03963  1.0000
  C   C1336     1.0  0.88899  0.47005  0.54733  1.0000
  C   C1337     1.0  0.94731  0.42616  0.01904  1.0000
  C   C1338     1.0  0.77556  0.40410  0.11193  1.0000
  C   C1339     1.0  0.80807  0.26450  0.20520  1.0000
  H   H1070     1.0  0.79162  0.45168  0.32448  1.0000
  C   C1340     1.0  0.95817  0.28422  0.12076  1.0000
  C   C1341     1.0  0.90063  0.44130  0.57825  1.0000
  C   C1342     1.0  0.95939  0.35919  0.01420  1.0000
  C   C1343     1.0  0.93296  0.28553  0.19245  1.0000
  H   H1071     1.0  0.96119  0.29816  0.05946  1.0000
  H   H1072     1.0  0.96296  0.41745  0.63912  1.0000
  C   C1344     1.0  0.97112  0.34638  0.95441  1.0000
  C   C1345     1.0  0.77276  0.42129  0.12154  1.0000
  C   C1346     1.0  0.95252  0.41279  0.04121  1.0000
  H   H1073     1.0  0.89396  0.35477  0.11152  1.0000
  C   C1347     1.0  0.78958  0.42511  0.19081  1.0000
  P   P45       1.0  0.94553  0.29784  0.14446  1.0000
  C   C1348     1.0  0.78225  0.42475  0.28294  1.0000
  H   H1074     1.0  0.83476  0.48071  0.24978  1.0000
  H   H1075     1.0  0.76928  0.39487  0.25026  1.0000
  H   H1076     1.0  0.76004  0.28242  0.96978  1.0000
  H   H1077     1.0  0.96776  0.42263  0.46876  1.0000
  H   H1078     1.0  0.93228  0.46705  0.04420  1.0000
  H   H1079     1.0  0.92338  0.32243  0.14014  1.0000
  C   C1349     1.0  0.91723  0.31062  0.11523  1.0000
  H   H1080     1.0  0.91797  0.36484  0.05221  1.0000
  H   H1081     1.0  0.77047  0.39621  0.08127  1.0000
  C   C1350     1.0  0.96254  0.27065  0.14462  1.0000
  C   C1351     1.0  0.98185  0.36696  0.52746  1.0000
  H   H1082     1.0  0.93470  0.45489  0.27665  1.0000
  H   H1083     1.0  0.76847  0.45350  0.23468  1.0000
  C   C1352     1.0  0.75573  0.40327  0.34818  1.0000
  H   H1084     1.0  0.98217  0.34899  0.92983  1.0000
  C   C1353     1.0  0.93399  0.28261  0.26906  1.0000
  C   C1354     1.0  0.97670  0.38275  0.53623  1.0000
  H   H1085     1.0  0.95833  0.26799  0.17752  1.0000
  H   H1086     1.0  0.84103  0.27790  0.20144  1.0000
  H   H1087     1.0  0.67640  0.47857  0.17020  1.0000
  C   C1355     1.0  0.95042  0.47444  0.46901  1.0000
  H   H1088     1.0  0.94329  0.49100  0.29343  1.0000
  H   H1089     1.0  0.92735  0.48517  0.39040  1.0000
  P   P46       1.0  0.91605  0.48092  0.47957  1.0000
  C   C1356     1.0  0.97140  0.47988  0.47215  1.0000
  C   C1357     1.0  0.89654  0.47828  0.11786  1.0000
  H   H1090     1.0  0.96981  0.39963  0.58444  1.0000
  H   H1091     1.0  0.73864  0.25997  0.09332  1.0000
  C   C1358     1.0  0.90170  0.48184  0.07534  1.0000
  H   H1092     1.0  0.68032  0.27157  0.89896  1.0000
  C   C1359     1.0  0.98438  0.33267  0.13950  1.0000
  C   C1360     1.0  0.97347  0.38718  0.57840  1.0000
  H   H1093     1.0  0.92212  0.27013  0.07230  1.0000
  H   H1094     1.0  0.88387  0.48072  0.53542  1.0000
  C   C1361     1.0  0.94325  0.48799  0.48439  1.0000
  H   H1095     1.0  0.97602  0.25002  0.14476  1.0000
  C   C1362     1.0  0.75010  0.48850  0.06281  1.0000
  H   H1096     1.0  0.96706  0.49278  0.81868  1.0000
  C   C1363     1.0  0.67158  0.24452  0.85883  1.0000
  H   H1097     1.0  0.95154  0.51602  0.23630  1.0000
  S   S180      1.0  0.83128  0.51418  0.08195  1.0000
  S   S181      1.0  0.87580  0.53067  0.16948  1.0000
  H   H1098     1.0  0.69345  0.55130  0.20232  1.0000
  C   C1364     1.0  0.69024  0.53560  0.19557  1.0000
  S   S182      1.0  0.98484  0.53843  0.85537  1.0000
  C   C1365     1.0  0.66721  0.49910  0.20212  1.0000
  S   S183      1.0  0.95761  0.52375  0.76710  1.0000
  C   C1366     1.0  0.69821  0.54686  0.03311  1.0000
  Fe  Fe91      1.0  0.98438  0.55903  0.42638  1.0000
  C   C1367     1.0  0.75390  0.57864  0.21111  1.0000
  Fe  Fe92      1.0  0.95350  0.53331  0.83312  1.0000
  S   S184      1.0  0.92949  0.51178  0.87887  1.0000
  C   C1368     1.0  0.98251  0.55734  0.04902  1.0000
  C   C1369     1.0  0.91691  0.56837  0.99201  1.0000
  S   S185      1.0  0.96717  0.52568  0.40526  1.0000
  Fe  Fe93      1.0  0.85081  0.50615  0.12633  1.0000
  C   C1370     1.0  0.95512  0.53656  0.99826  1.0000
  H   H1099     1.0  0.78031  0.54380  0.06862  1.0000
  H   H1100     1.0  0.72760  0.61398  0.21335  1.0000
  Fe  Fe94      1.0  0.95492  0.53593  0.34937  1.0000
  S   S186      1.0  0.92207  0.51430  0.32590  1.0000
  S   S187      1.0  0.85273  0.51309  0.96886  1.0000
  C   C1371     1.0  0.76383  0.52414  0.16555  1.0000
  H   H1101     1.0  0.89952  0.53534  0.09237  1.0000
  S   S188      1.0  0.96097  0.56367  0.68584  1.0000
  C   C1372     1.0  0.97092  0.58378  0.19852  1.0000
  C   C1373     1.0  0.73496  0.60413  0.21267  1.0000
  H   H1102     1.0  0.87700  0.53554  0.89873  1.0000
  C   C1374     1.0  0.94815  0.50024  0.22862  1.0000
  H   H1103     1.0  0.78616  0.52309  0.12335  1.0000
  C   C1375     1.0  0.96129  0.54536  0.03938  1.0000
  C   C1376     1.0  0.96977  0.53938  0.96786  1.0000
  H   H1104     1.0  0.75461  0.55615  0.07900  1.0000
  C   C1377     1.0  0.88922  0.52546  0.21095  1.0000
  C   C1378     1.0  0.90833  0.54121  0.22639  1.0000
  C   C1379     1.0  0.91894  0.53788  0.26071  1.0000
  C   C1380     1.0  0.91021  0.51890  0.28067  1.0000
  C   C1381     1.0  0.94771  0.49624  0.60495  1.0000
  C   C1382     1.0  0.88090  0.50627  0.22993  1.0000
  H   H1105     1.0  0.91490  0.55612  0.21187  1.0000
  H   H1106     1.0  0.93356  0.55018  0.27245  1.0000
  H   H1107     1.0  0.91648  0.54470  0.53599  1.0000
  C   C1383     1.0  0.71926  0.55777  0.09824  1.0000
  H   H1108     1.0  0.70819  0.50647  0.14306  1.0000
  C   C1384     1.0  0.75212  0.60873  0.23929  1.0000
  C   C1385     1.0  0.90118  0.52676  0.89120  1.0000
  C   C1386     1.0  0.90978  0.51448  0.90602  1.0000
  Fe  Fe95      1.0  0.97163  0.55733  0.75084  1.0000
  P   P47       1.0  0.94203  0.54376  0.07675  1.0000
  C   C1387     1.0  0.70812  0.56702  0.01882  1.0000
  H   H1109     1.0  0.90721  0.53578  0.86327  1.0000
  C   C1388     1.0  0.75715  0.54746  0.10372  1.0000
  C   C1389     1.0  0.90883  0.54018  0.46905  1.0000
  H   H1110     1.0  0.87503  0.54340  0.05290  1.0000
  C   C1390     1.0  0.90464  0.54458  0.06443  1.0000
  H   H1111     1.0  0.74040  0.52706  0.20048  1.0000
  H   H1112     1.0  0.94652  0.56988  0.00292  1.0000
  C   C1391     1.0  0.70363  0.53109  0.17126  1.0000
  C   C1392     1.0  0.97038  0.56413  0.63353  1.0000
  C   C1393     1.0  0.98542  0.49872  0.49106  1.0000
  C   C1394     1.0  0.91377  0.53473  0.50822  1.0000
  H   H1113     1.0  0.92024  0.51320  0.54193  1.0000
  C   C1395     1.0  0.92032  0.51385  0.13604  1.0000
  H   H1114     1.0  0.97866  0.52613  0.68668  1.0000
  C   C1396     1.0  0.72726  0.58681  0.18524  1.0000
  C   C1397     1.0  0.95388  0.56001  0.12360  1.0000
  C   C1398     1.0  0.69848  0.51038  0.16261  1.0000
  H   H1115     1.0  0.77492  0.59959  0.25907  1.0000
  C   C1399     1.0  0.82229  0.50171  0.24285  1.0000
  H   H1116     1.0  0.95013  0.52305  0.63880  1.0000
  C   C1400     1.0  0.89121  0.50313  0.26501  1.0000
  C   C1401     1.0  0.67214  0.51965  0.21096  1.0000
  H   H1117     1.0  0.66167  0.52314  0.22916  1.0000
  H   H1118     1.0  0.96470  0.53322  0.93590  1.0000
  H   H1119     1.0  0.73276  0.49890  0.02249  1.0000
  C   C1402     1.0  0.93098  0.56390  0.01429  1.0000
  H   H1120     1.0  0.95282  0.51799  0.51535  1.0000
  H   H1121     1.0  0.68612  0.53470  0.01370  1.0000
  C   C1403     1.0  0.97199  0.51363  0.66312  1.0000
  C   C1404     1.0  0.96475  0.56366  0.55610  1.0000
  H   H1122     1.0  0.92626  0.52612  0.16002  1.0000
  C   C1405     1.0  0.94948  0.57619  0.13447  1.0000
  H   H1123     1.0  0.92152  0.57727  0.96350  1.0000
  C   C1406     1.0  0.73664  0.57387  0.18429  1.0000
  H   H1124     1.0  0.88561  0.56380  0.98792  1.0000
  C   C1407     1.0  0.90161  0.50275  0.94220  1.0000
  C   C1408     1.0  0.88496  0.50312  0.96317  1.0000
  H   H1125     1.0  0.94319  0.56281  0.60305  1.0000
  H   H1126     1.0  0.73197  0.59803  0.03205  1.0000
  H   H1127     1.0  0.95536  0.56369  0.52931  1.0000
  H   H1128     1.0  0.69659  0.52645  0.08230  1.0000
  C   C1409     1.0  0.87564  0.51456  0.94712  1.0000
  C   C1410     1.0  0.70397  0.54223  0.07236  1.0000
  C   C1411     1.0  0.89071  0.54927  0.04234  1.0000
  C   C1412     1.0  0.91586  0.51678  0.51143  1.0000
  C   C1413     1.0  0.72399  0.58250  0.04360  1.0000
  H   H1129     1.0  0.90197  0.53172  0.40259  1.0000
  S   S189      1.0  0.96506  0.56652  0.81624  1.0000
  H   H1130     1.0  0.93931  0.57962  0.11460  1.0000
  H   H1131     1.0  0.75808  0.62215  0.26058  1.0000
  C   C1414     1.0  0.92476  0.55148  0.05007  1.0000
  C   C1415     1.0  0.95801  0.56338  0.59802  1.0000
  C   C1416     1.0  0.89673  0.56091  0.00584  1.0000
  C   C1417     1.0  0.72968  0.57788  0.08304  1.0000
  C   C1418     1.0  0.95749  0.50690  0.50367  1.0000
  H   H1132     1.0  0.71394  0.58344  0.16483  1.0000
  H   H1133     1.0  0.93901  0.52875  0.98835  1.0000
  H   H1134     1.0  0.83738  0.51518  0.24402  1.0000
  H   H1135     1.0  0.74227  0.58995  0.10142  1.0000
  C   C1419     1.0  0.80449  0.50396  0.23686  1.0000
  C   C1420     1.0  0.88403  0.52658  0.91136  1.0000
  H   H1136     1.0  0.70364  0.57052  0.98828  1.0000
  C   C1421     1.0  0.90553  0.52743  0.43324  1.0000
  C   C1422     1.0  0.97534  0.56770  0.18804  1.0000
  C   C1423     1.0  0.95607  0.51207  0.63581  1.0000
  H   H1137     1.0  0.95443  0.60037  0.18024  1.0000
  C   C1424     1.0  0.92581  0.51765  0.09333  1.0000
  C   C1425     1.0  0.74569  0.54276  0.14086  1.0000
  C   C1426     1.0  0.74920  0.53107  0.17181  1.0000
  H   H1138     1.0  0.90777  0.55438  0.46635  1.0000
  C   C1427     1.0  0.96681  0.55579  0.15082  1.0000
  C   C1428     1.0  0.76159  0.59601  0.23847  1.0000
  H   H1139     1.0  0.76606  0.51458  0.18872  1.0000
  C   C1429     1.0  0.90719  0.50926  0.43652  1.0000
  H   H1140     1.0  0.97747  0.59292  0.22752  1.0000
  H   H1141     1.0  0.76154  0.56907  0.21105  1.0000
  S   S190      1.0  0.96996  0.56916  0.37306  1.0000
  C   C1430     1.0  0.77184  0.54057  0.09772  1.0000
  C   C1431     1.0  0.98414  0.56501  0.54898  1.0000
  C   C1432     1.0  0.97843  0.51212  0.50721  1.0000
  C   C1433     1.0  0.95799  0.58801  0.17180  1.0000
  P   P48       1.0  0.72653  0.55144  0.14883  1.0000
  H   H1142     1.0  0.91906  0.50395  0.02978  1.0000
  C   C1434     1.0  0.91629  0.50140  0.06310  1.0000
  H   H1143     1.0  0.95266  0.50523  0.16182  1.0000
  C   C1435     1.0  0.91265  0.50385  0.47553  1.0000
  H   H1144     1.0  0.97017  0.54322  0.14335  1.0000
  H   H1145     1.0  0.80576  0.51919  0.23345  1.0000
  C   C1436     1.0  0.77520  0.52895  0.12862  1.0000
  H   H1146     1.0  0.66130  0.58527  0.10606  1.0000
  S   S191      1.0  0.98067  0.53958  0.30725  1.0000
  H   H1147     1.0  0.76344  0.49449  0.04301  1.0000
  H   H1148     1.0  0.93548  0.49522  0.58382  1.0000
  Fe  Fe96      1.0  0.84022  0.49775  0.03157  1.0000
  C   C1437     1.0  0.97891  0.49882  0.66081  1.0000
  H   H1149     1.0  0.90440  0.49977  0.40820  1.0000
  H   H1150     1.0  0.98535  0.56453  0.20912  1.0000
  H   H1151     1.0  0.86642  0.49397  0.21782  1.0000
  H   H1152     1.0  0.87867  0.49372  0.99043  1.0000
  C   C1438     1.0  0.68040  0.49448  0.17797  1.0000
  C   C1439     1.0  0.90607  0.49417  0.14822  1.0000
  C   C1440     1.0  0.94859  0.49411  0.18666  1.0000
  S   S192      1.0  0.65312  0.50764  0.09568  1.0000
