data_image0
_chemical_formula_structural       SCSHFeS2FeS2FeSFeS3HC2HCHC2HCH3C2HC4H5C9H5C2HPCHCFeHCHSCHC3HCSHCHC2H2C3H2SHC2H2CHFeHCH3CH3FeHC2HC6PC2H2CHCHCFeSC2HC4HCHCHCHCH2CPHC5HC4HC2HCH3C5HC2HSC2H4CH2CH2CHCHCHC2H2C2HCH2CHCH2C2HCHC3PC5HCHCHCH2CHC5H5SC2HSHFeHSHSHC3FeSCFeS2FeSCFeSFeS3CSC2SHFeSH2C2FeS2FeS2FeSFeS2CHCHCSCHC6H4C6H2CHC6H5C5H2C6H2CH8C2H2C2H2C2HC6PC8FeHCHC6H14CH6C6PH2C3H4FeC2HCH2C2PSH2SC2H2C5H3CH3CFeHC10PC14H13C2H2CH2CHC2H2CHCH2C3H2C2HC3HCHCHC5HCH2C2SC6H2SCHC2SH2C3HC2HFeH2PC2SH2SHC3HC3H4CPH3CHCH7C4H4CHCHC3H2FeS2FeS2FeSFeS3FeS2FeSCFeSFeS3HCH2C2HPHFeCSH3SC2HCHCHCHCH2C2H2CHCHC6H2C6PH2CHC5H3C7H4C6H5C2HCHC5H4C6PC18H20CHCHC3H2CH2C5H3CPC2H2C8PC2HCH2C7HC2HCH2C2H2CH2C2H2CH2C2HCHCSH3CHC2HCSCHCH2CPC2HSHC3S2C2HCHCHC2H3CSC2HCHC3HC2H2CFeHC3H2C4HSC2HC3HC3H2CHCH4CHC3HC2HC2HCHC3HCHCHCHFeCHC2H2C2HCH2CH2CHC2H3CHSC2HCH2CHCH4C2H2C3HCFeC3H2C2HC2HC2H2C2SC3H6CHCSHCFeHCHCFeC2H2SH3CHCH4SHC2H2C2H2C4H2PHFeSFeS2C3SH3SH2C3FeCH3CHCHCH3CHCH5SCH4CHFeS2FeS2FeHFeCS2C2SH4CHCHC2HC7H4C6H6CH2CHC8H3CHCHC4PHC2H2CH2CHCSH4CSCPHCHCHCHCHC2HC2H2CHSC3H3C5HCH3C4HC4FeC4HFeHC3HC2HCH2CHCSH3C3S2CHC4H5CFeCSHC4H3CHC3H6CHCHC3SH4SCFeSHFeS2FeS2FeSFeS3FeS2FeS2Fe2SCSFeS2HCFeS2FeS2FeS2Fe2HS4FeSFeSC3HCHC6H4C2H2C6H3FeC6H4C6H4C6H4C5HC5H2C7H4C6H6CH6C2H4C3HC2H6C3HCH3SC3HC6PC18HCH19C6PC18H13C2FeCH3CHCH4C2HC4HC2HPHC3H2SC3HC4HC2H2CPC5H3CH4SC3H2CHC2H3C2H2C3H3C3H2CHCHPH2C2HC4H3C4HCH2C2PC2HC4H2C2HC2HC2HCSHCHCH2C5HC2H4C2HCH2C2H2CHCHPHCHCH3C2HCHFeHC2PC2FeHCHCSC3HC2H2CSHCHC4SC2HFePCH3C3HC3H2C3SH2SC4HC4HC4H3CH3C2H2C2HCH2CH4C8H4SHC2H2CH2CHC3HCHCHC2H2C3HCHPHCHCHCPCHC2HC3HC2FeHCH3C3PHCHC2H6CH2C2H3SC6HC3H2CH3CH3CHC3HC2HCHSHC2HCH2C3H3C2PCHC3HCH2C2HC3SCH2CH2SFeS2FeS2FeSFeS3FeCSCH2SCSHFeSHFeS2FeSFeS3FeS2FeS2FeSFeCS2FeCSFeS2FeSFeHS2C6HCH2C6H4C6H6C5HC4H4C6H4C4HCH4C2HCH2PCHC6H4C5H3C6H6C2H3CH2C7PC18H18C2HSC2PC4H2C12FeC3H4CH11C3HC2FeH3CHCHC5H2CH2C2FeSH2CHFeSHCH4SC3HC2HCH3C3PC2H2C4H2C2HC4H5PC4HC5H2CHCHC2SHC4H2C3H2C2HC2HC2H2C2H2CHCH2C4HC3HC4H2C2H2C2HC3H3C2PCHC2S2C2HCH2C2H2C3PCH2CFeH3CHC2PH3CH2CHC8H2CHC2HC5H5CHC2SHSC3H2CH2C2HC2SHC2H5P2H2CH2C2HCHC3HCHSCHC3H2C2HCHC7H4C4H2C3HC6HFeHCH2C2H3CHC7H3C2HC4H8S2C6SC2H2CHCH4CHCHCHCH3SH2CHC4HCHC2HC2H2C3HCHPHC3HCHCH2CHC2PCH3CHC4HCH5C2HCH3C2PC2H2CH2SCHCHFeH2CSHC4HCH2CH2C2HC3FeS2FeS2FeSFeS3HFeS2FeCFeS4FeSFeS2FeS2FeSFeS3FeS2FeS2FeSFeS4C3FeCS3C3HCH3C3HPCH2C8H5CH5CSC7H4C6H4C6H4CH3C6H2CHC4H3C6H4C6H4CH3C3H2CHCH4CHC2HC3SC3HC7PC18H20C6PC14H10CH5CFeCH3SH2C3HC2HFeC2H2C3H2SCPH2CHC6H5CHCHC3FeC3H2PC3HCH2C3HCHC2H8C2SH2C5HCHCPCFeC8HCH2CHCHSHC2HPHC3HC6HC4HC4H2CHC3H2CHC5HC2FeC2H2FeCHCHCHCHCHCPCHC2HC2HCH2C3HC10HSC4HC2H4C4HC2SH2CPHFeC4H2CH5C5HSC3HC2HC4HC3H3C2H2CPH2C2HC2HC2HC2SH4C2H8CH4C6H5C3HCHC2HCH2C3H2CHPCHPC4SCHC2H2C2H3C2H3C2HCSH6C5H7C5H3SH3CHC2H3C3HC3H4C2SH2CHC3HPC2H4C4HCH2CH3C4HCH2FeH2CH2CSH5CSH2CH2C4HC3SHCFeSHFeS2FeSFeS3FeS2FeS2FeSFeS3FeS2FePFeCFeS3FeS2FeS2FeSFeS3FeSCFeS2FeSFeS4HSHFeS2FeSFeHSC6H4C6H4C2HFeC7H4C8H2C4HCH4C6H4CHCH5C7H5C6H4C6H4C6HCH2PCHC2HC2H4CHCH2CHC6H3C6PC14H20PH2C8H4CH2C12H10C9PC10H11C2HCSHC2HCHCHS2HCHCSC2H3CHC5PHC4H4C2HPHC5HC5HCH4C2HCH2C4HC2HCH2C2HPH2C4H3C2H2C7H2C2HCSHC2H2C2H3FeH2C2H2CHC4H2CH2CH2CHCHC2HC2HC2HCH3C3H2C3PC5HCHCHC2HCH2CHC3HCHC2HCH2CHCH2CH4SH3C2HC3HCH2CSH3CHC2H2CHC4HC2HCHCSC2HC2H2CHC3H2CH7C5H3C2HC2HC2HCHC7H2C5HPC2H2CH2C4HC4HC2PC3HC4HC2H8C3H2SCHC5H3C4HCH5C6HC3H4PCHC5H2C3HCH3CHC4HCH3CHC2H4CH2C4H4CSHC2HSCHPC5HCHCH3C2H2CHC2HC2FeSCFeSHFeSFeS2HCSHC6H4C2H2CHC11H9CHCPCSC3H6CH2CHC3HC2H3C4H2CHC3H2CSH3C5HC4HC3SH2SHFeSCHC4H2CH2C11H4CFeC3HPSCHCHCH2CH3C2H3CHC3HCHCSHPFeCH2CHC6HC2H2SC2HFeHC2H2SHC4H3C6H2CH3SHSCH2C2SC2H2C2HCH2C5H4C4HC3H3C4HCH2PCHC2FeCSFeS2FeHC2S2CPHC2H2CHCH2CHCHC4HC2HCHCHCH3CHC2H2CHC2H4C5FeHCH4C9H6C3HCHCH2C2H2C3FeS2FeS2FeSFeS4FeSHFeSFeCH2FeS2FeCSCHCHS2C3FeCH4CHC6H2C2FeHCH2CH3C2HSC2H2C8H4C6H4C2H2C10HC2PHC2H2CH2CHSH7CPHCHC2H2CHCHCHSH2SHCH2CH2C6PC18H17CHCHCHC7HCHC2HCH2C3HCH6C2HCH4C7H3CPCH2C2HCH4CHC2SCHC6PC17H11SH2CH2SH2CH2FeHC5HC2H2CHC2HC4HCH2CHCH3C5HC2PCHC3HCH6CH3FeS2FeHSFeSC2S2FeS2FeS2FeSFeS3FeSFeS2FeS3FeS2FeS2FeSFeS3CSFeSCHCFeSCSFeS2FeS2FeS3C6H4C6H4C6H4C6H4C6H4C6H4C6H4C6H4C6H5CH2CHCHCHC2H2C3HCHC6HCHCHC2HC2H11CH2CH2C6H2C6PC4HC13H6C2H8CHC2HCFeCH2C3H2CHSC2HC6PC18H19FeHC2H2CHC3HC2H3C3H2CH2C4HC2H2C2H2C2HC5HCH4CHC3H5C3HCHC2H4PHCH2CHC4HC2SH2C3H2C5HC2HC5HCHSHPC3HC2HC2H3C3HCHC2H2C2H2C3H2C4PC3HCHC2HC2PCH3C3HC3H2CHC2HC2HC5HPH4CHC2PHCHC5PH3CSCHCHPH4CH6C2H2C3HC2HC2H2C3HCHC2HCFeC3H3CH3C3H2C2H2CPCH4SCHC3H2C2HCH5C3FeCH2CH2PC2HSHC2HCHC3H3CSCPSC4H3C3H2C2H2C3H2C5H3CH2CH2C4H3C2H2CH2CHCH4CPC4H2C3H2C2FeHC2HCHC
_chemical_formula_sum              "S384 C2880 H2304 Fe192 P96"
_cell_length_a       117.125
_cell_length_b       115.306
_cell_length_c       31.0792
_cell_angle_alpha    77.6489
_cell_angle_beta     77.9684
_cell_angle_gamma    102.821

_space_group_name_H-M_alt    "P 1"
_space_group_IT_number       1

loop_
  _space_group_symop_operation_xyz
  'x, y, z'

loop_
  _atom_site_type_symbol
  _atom_site_label
  _atom_site_symmetry_multiplicity
  _atom_site_fract_x
  _atom_site_fract_y
  _atom_site_fract_z
  _atom_site_occupancy
  S   S1        1.0  0.12714  0.50325  0.41778  1.0000
  C   C1        1.0  0.07119  0.49066  0.27832  1.0000
  S   S2        1.0  0.10380  0.49283  0.23873  1.0000
  H   H1        1.0  0.14460  0.49190  0.16472  1.0000
  Fe  Fe1       1.0  0.07054  0.46545  0.06868  1.0000
  S   S3        1.0  0.07103  0.48432  0.02903  1.0000
  S   S4        1.0  0.08566  0.46296  0.10313  1.0000
  Fe  Fe2       1.0  0.04678  0.45281  0.04524  1.0000
  S   S5        1.0  0.04606  0.47101  0.00453  1.0000
  S   S6        1.0  0.03070  0.43532  0.06158  1.0000
  Fe  Fe3       1.0  0.06626  0.47511  0.97611  1.0000
  S   S7        1.0  0.07410  0.48491  0.90090  1.0000
  Fe  Fe4       1.0  0.05092  0.47829  0.06135  1.0000
  S   S8        1.0  0.04069  0.49069  0.08772  1.0000
  S   S9        1.0  0.06697  0.45637  0.01297  1.0000
  S   S10       1.0  0.05060  0.46000  0.10471  1.0000
  H   H2        1.0  0.14156  0.47558  0.97034  1.0000
  C   C2        1.0  0.14325  0.44227  0.78439  1.0000
  C   C3        1.0  0.01910  0.42997  0.03495  1.0000
  H   H3        1.0  0.14983  0.47840  0.88278  1.0000
  C   C4        1.0  0.10739  0.49789  0.81081  1.0000
  H   H4        1.0  0.07687  0.49312  0.30021  1.0000
  C   C5        1.0  0.12332  0.42326  0.78706  1.0000
  C   C6        1.0  0.01945  0.43556  0.98979  1.0000
  H   H5        1.0  0.02329  0.47764  0.04585  1.0000
  C   C7        1.0  0.09706  0.46489  0.82215  1.0000
  H   H6        1.0  0.01563  0.40867  0.93654  1.0000
  H   H7        1.0  0.02683  0.44364  0.96996  1.0000
  H   H8        1.0  0.10205  0.50338  0.47672  1.0000
  C   C8        1.0  0.02186  0.45707  0.18031  1.0000
  C   C9        1.0  0.05667  0.42436  0.07918  1.0000
  H   H9        1.0  0.09134  0.47028  0.80971  1.0000
  C   C10       1.0  0.10938  0.48459  0.87889  1.0000
  C   C11       1.0  0.09711  0.48286  0.90089  1.0000
  C   C12       1.0  0.08985  0.48823  0.87712  1.0000
  C   C13       1.0  0.09505  0.49588  0.83237  1.0000
  H   H10       1.0  0.13036  0.47292  0.07438  1.0000
  H   H11       1.0  0.11481  0.47990  0.89655  1.0000
  H   H12       1.0  0.09317  0.47695  0.93544  1.0000
  H   H13       1.0  0.13914  0.51273  0.04267  1.0000
  H   H14       1.0  0.15571  0.47518  0.72356  1.0000
  C   C14       1.0  0.06172  0.50163  0.10511  1.0000
  C   C15       1.0  0.11450  0.49202  0.83369  1.0000
  C   C16       1.0  0.06319  0.47585  0.23975  1.0000
  C   C17       1.0  0.10084  0.48631  0.19351  1.0000
  C   C18       1.0  0.09168  0.48906  0.17343  1.0000
  C   C19       1.0  0.08729  0.48237  0.14430  1.0000
  C   C20       1.0  0.09197  0.47275  0.13485  1.0000
  C   C21       1.0  0.10161  0.47045  0.15279  1.0000
  C   C22       1.0  0.10603  0.47719  0.18185  1.0000
  H   H15       1.0  0.06719  0.50262  0.94804  1.0000
  H   H16       1.0  0.07997  0.48435  0.13058  1.0000
  H   H17       1.0  0.10537  0.46310  0.14560  1.0000
  H   H18       1.0  0.11298  0.47484  0.19726  1.0000
  H   H19       1.0  0.09815  0.44550  0.91929  1.0000
  C   C23       1.0  0.07021  0.51172  0.10902  1.0000
  C   C24       1.0  0.16375  0.48282  0.77086  1.0000
  H   H20       1.0  0.02782  0.45482  0.20124  1.0000
  P   P1        1.0  0.05772  0.41953  0.95160  1.0000
  C   C25       1.0  0.11616  0.45941  0.81047  1.0000
  H   H21       1.0  0.11711  0.50116  0.93129  1.0000
  C   C26       1.0  0.13386  0.48155  0.08187  1.0000
  Fe  Fe5       1.0  0.14021  0.50812  0.74148  1.0000
  H   H22       1.0  0.06268  0.46711  0.23149  1.0000
  C   C27       1.0  0.16256  0.51256  0.87188  1.0000
  H   H23       1.0  0.17224  0.48791  0.74532  1.0000
  S   S11       1.0  0.15714  0.50625  0.69691  1.0000
  C   C28       1.0  0.01858  0.48348  0.02888  1.0000
  H   H24       1.0  0.02482  0.50947  0.94162  1.0000
  C   C29       1.0  0.06818  0.51258  0.32707  1.0000
  C   C30       1.0  0.01956  0.50142  0.96959  1.0000
  C   C31       1.0  0.04214  0.41005  0.96731  1.0000
  H   H25       1.0  0.09694  0.45667  0.01358  1.0000
  C   C32       1.0  0.11794  0.50122  0.00032  1.0000
  S   S12       1.0  0.13326  0.49219  0.29785  1.0000
  H   H26       1.0  0.06563  0.43071  0.85130  1.0000
  C   C33       1.0  0.13747  0.48120  0.12221  1.0000
  H   H27       1.0  0.15555  0.50778  0.98679  1.0000
  C   C34       1.0  0.13284  0.46049  0.68247  1.0000
  C   C35       1.0  0.14180  0.49217  0.13340  1.0000
  H   H28       1.0  0.07490  0.47301  0.28367  1.0000
  H   H29       1.0  0.08996  0.39634  0.86122  1.0000
  C   C36       1.0  0.05871  0.49564  0.22791  1.0000
  C   C37       1.0  0.07002  0.47914  0.26934  1.0000
  C   C38       1.0  0.05110  0.50318  0.09398  1.0000
  H   H30       1.0  0.06764  0.45155  0.80407  1.0000
  H   H31       1.0  0.02445  0.44369  0.14302  1.0000
  S   S13       1.0  0.12946  0.49286  0.80563  1.0000
  H   H32       1.0  0.13336  0.48568  0.72352  1.0000
  C   C39       1.0  0.09743  0.51031  0.00407  1.0000
  C   C40       1.0  0.14162  0.50040  0.90636  1.0000
  H   H33       1.0  0.08759  0.49611  0.18193  1.0000
  H   H34       1.0  0.08471  0.45715  0.88947  1.0000
  C   C41       1.0  0.06546  0.49900  0.25804  1.0000
  H   H35       1.0  0.11104  0.44518  0.98381  1.0000
  Fe  Fe6       1.0  0.12101  0.50036  0.26026  1.0000
  H   H36       1.0  0.08943  0.50003  0.81401  1.0000
  C   C42       1.0  0.15146  0.50611  0.86766  1.0000
  H   H37       1.0  0.06329  0.49261  0.11142  1.0000
  H   H38       1.0  0.11477  0.50120  0.07195  1.0000
  H   H39       1.0  0.13327  0.49516  0.90197  1.0000
  C   C43       1.0  0.14241  0.50349  0.10448  1.0000
  H   H40       1.0  0.10495  0.47740  0.02122  1.0000
  H   H41       1.0  0.11799  0.44666  0.86912  1.0000
  H   H42       1.0  0.13336  0.45472  0.96241  1.0000
  Fe  Fe7       1.0  0.14865  0.50761  0.24585  1.0000
  H   H43       1.0  0.13680  0.47242  0.14519  1.0000
  C   C44       1.0  0.13877  0.50389  0.06425  1.0000
  C   C45       1.0  0.11206  0.50353  0.04070  1.0000
  H   H44       1.0  0.00901  0.41492  0.09461  1.0000
  C   C46       1.0  0.10669  0.46084  0.00328  1.0000
  C   C47       1.0  0.11463  0.45439  0.98669  1.0000
  C   C48       1.0  0.12719  0.45976  0.97471  1.0000
  C   C49       1.0  0.13181  0.47159  0.97917  1.0000
  C   C50       1.0  0.12388  0.47821  0.99501  1.0000
  C   C51       1.0  0.11129  0.47267  0.00765  1.0000
  P   P2        1.0  0.12992  0.49356  0.99997  1.0000
  C   C52       1.0  0.13460  0.49292  0.05227  1.0000
  C   C53       1.0  0.14272  0.50123  0.94990  1.0000
  H   H45       1.0  0.11127  0.50360  0.77596  1.0000
  H   H46       1.0  0.01011  0.51180  0.20099  1.0000
  C   C54       1.0  0.05753  0.48409  0.21910  1.0000
  H   H47       1.0  0.05493  0.51220  0.99701  1.0000
  C   C55       1.0  0.02540  0.49381  0.99259  1.0000
  H   H48       1.0  0.13658  0.49569  0.64162  1.0000
  C   C56       1.0  0.11221  0.45178  0.85562  1.0000
  Fe  Fe8       1.0  0.13253  0.50626  0.33933  1.0000
  S   S14       1.0  0.16561  0.50617  0.19904  1.0000
  C   C57       1.0  0.10844  0.46591  0.79389  1.0000
  C   C58       1.0  0.13231  0.46742  0.71462  1.0000
  H   H49       1.0  0.11122  0.47200  0.75964  1.0000
  C   C59       1.0  0.09333  0.45748  0.86722  1.0000
  C   C60       1.0  0.01771  0.39591  0.99394  1.0000
  C   C61       1.0  0.15410  0.50739  0.95394  1.0000
  C   C62       1.0  0.05462  0.44316  0.93569  1.0000
  H   H50       1.0  0.05249  0.48166  0.19522  1.0000
  C   C63       1.0  0.06894  0.42796  0.07821  1.0000
  H   H51       1.0  0.08164  0.50118  0.52621  1.0000
  C   C64       1.0  0.13359  0.48013  0.69952  1.0000
  H   H52       1.0  0.13305  0.46599  0.86179  1.0000
  C   C65       1.0  0.13221  0.44485  0.78181  1.0000
  H   H53       1.0  0.02205  0.50253  0.07589  1.0000
  C   C66       1.0  0.10093  0.45097  0.88402  1.0000
  H   H54       1.0  0.13516  0.46091  0.61130  1.0000
  H   H55       1.0  0.09912  0.50874  0.93528  1.0000
  C   C67       1.0  0.00931  0.51167  0.16700  1.0000
  P   P3        1.0  0.13085  0.46041  0.77428  1.0000
  H   H56       1.0  0.15050  0.50540  0.83428  1.0000
  C   C68       1.0  0.07212  0.39376  0.90440  1.0000
  C   C69       1.0  0.15112  0.47746  0.84835  1.0000
  C   C70       1.0  0.14306  0.46948  0.79105  1.0000
  C   C71       1.0  0.13462  0.46623  0.63612  1.0000
  C   C72       1.0  0.00939  0.41942  0.05982  1.0000
  H   H57       1.0  0.13754  0.48344  0.58547  1.0000
  C   C73       1.0  0.14161  0.47033  0.83623  1.0000
  C   C74       1.0  0.14425  0.43023  0.78877  1.0000
  C   C75       1.0  0.06896  0.51258  0.93933  1.0000
  C   C76       1.0  0.14815  0.51168  0.44510  1.0000
  H   H58       1.0  0.13515  0.41144  0.79313  1.0000
  C   C77       1.0  0.11326  0.50338  0.96211  1.0000
  C   C78       1.0  0.12227  0.43528  0.78284  1.0000
  H   H59       1.0  0.13208  0.45073  0.69266  1.0000
  C   C79       1.0  0.13538  0.48583  0.65321  1.0000
  H   H60       1.0  0.11567  0.41593  0.78739  1.0000
  H   H61       1.0  0.01205  0.44953  0.09196  1.0000
  H   H62       1.0  0.14566  0.51195  0.11358  1.0000
  C   C80       1.0  0.13594  0.47891  0.62149  1.0000
  C   C81       1.0  0.09898  0.51150  0.47909  1.0000
  C   C82       1.0  0.13430  0.42073  0.79013  1.0000
  C   C83       1.0  0.15429  0.47567  0.75862  1.0000
  C   C84       1.0  0.02571  0.39265  0.01887  1.0000
  H   H63       1.0  0.11378  0.43718  0.77971  1.0000
  C   C85       1.0  0.02192  0.40607  0.95539  1.0000
  C   C86       1.0  0.01676  0.50632  0.14096  1.0000
  H   H64       1.0  0.15113  0.44950  0.78281  1.0000
  S   S15       1.0  0.11907  0.51310  0.30558  1.0000
  C   C87       1.0  0.07961  0.41908  0.89592  1.0000
  C   C88       1.0  0.01278  0.45404  0.11888  1.0000
  H   H65       1.0  0.08263  0.42891  0.89208  1.0000
  H   H66       1.0  0.04394  0.39709  0.02553  1.0000
  H   H67       1.0  0.08733  0.43140  0.03887  1.0000
  H   H68       1.0  0.02239  0.38483  0.04901  1.0000
  C   C89       1.0  0.16215  0.48377  0.81561  1.0000
  H   H69       1.0  0.03697  0.42117  0.91283  1.0000
  H   H70       1.0  0.09182  0.51102  0.24957  1.0000
  C   C90       1.0  0.06976  0.50991  0.41733  1.0000
  H   H71       1.0  0.06139  0.46716  0.84067  1.0000
  H   H72       1.0  0.04973  0.42425  0.10861  1.0000
  C   C91       1.0  0.07447  0.42554  0.00168  1.0000
  H   H73       1.0  0.07155  0.43061  0.10702  1.0000
  C   C92       1.0  0.05329  0.42137  0.04147  1.0000
  H   H74       1.0  0.05592  0.49265  0.43377  1.0000
  C   C93       1.0  0.01616  0.50647  0.09647  1.0000
  H   H75       1.0  0.05449  0.50190  0.21040  1.0000
  C   C94       1.0  0.05558  0.45486  0.90854  1.0000
  C   C95       1.0  0.06784  0.41213  0.92248  1.0000
  H   H76       1.0  0.09661  0.41886  0.85366  1.0000
  H   H77       1.0  0.05517  0.39377  0.94653  1.0000
  C   C96       1.0  0.01038  0.43052  0.96979  1.0000
  C   C97       1.0  0.03405  0.41316  0.94215  1.0000
  H   H78       1.0  0.01094  0.43480  0.93460  1.0000
  C   C98       1.0  0.16391  0.51312  0.91503  1.0000
  H   H79       1.0  0.15281  0.42830  0.79070  1.0000
  H   H80       1.0  0.05060  0.44087  0.97221  1.0000
  C   C99       1.0  0.13517  0.50893  0.53533  1.0000
  H   H81       1.0  0.04375  0.41894  0.04265  1.0000
  C   C100      1.0  0.06307  0.43745  0.86789  1.0000
  H   H82       1.0  0.03523  0.49590  0.98254  1.0000
  H   H83       1.0  0.05259  0.46161  0.92412  1.0000
  C   C101      1.0  0.08382  0.40075  0.87820  1.0000
  C   C102      1.0  0.03789  0.39964  0.00551  1.0000
  H   H84       1.0  0.07046  0.50881  0.45203  1.0000
  C   C103      1.0  0.08756  0.41342  0.87394  1.0000
  H   H85       1.0  0.15326  0.51269  0.41059  1.0000
  C   C104      1.0  0.06048  0.45797  0.86128  1.0000
  C   C105      1.0  0.06213  0.42192  0.00231  1.0000
  C   C106      1.0  0.07783  0.42848  0.03958  1.0000
  P   P4        1.0  0.06744  0.51410  0.26871  1.0000
  C   C107      1.0  0.00883  0.46946  0.15754  1.0000
  C   C108      1.0  0.06156  0.50080  0.40701  1.0000
  C   C109      1.0  0.05871  0.43449  0.91574  1.0000
  C   C110      1.0  0.10299  0.50774  0.96420  1.0000
  C   C111      1.0  0.01638  0.46648  0.18506  1.0000
  H   H86       1.0  0.05441  0.49496  0.35444  1.0000
  C   C112      1.0  0.06075  0.50213  0.36205  1.0000
  H   H87       1.0  0.06921  0.38393  0.90768  1.0000
  C   C113      1.0  0.02000  0.45082  0.14740  1.0000
  H   H88       1.0  0.08153  0.42628  0.97198  1.0000
  C   C114      1.0  0.06416  0.39940  0.92648  1.0000
  H   H89       1.0  0.02325  0.50230  0.15458  1.0000
  H   H90       1.0  0.08932  0.51347  0.00605  1.0000
  C   C115      1.0  0.06408  0.44921  0.84086  1.0000
  H   H91       1.0  0.13006  0.50776  0.56997  1.0000
  C   C116      1.0  0.10201  0.50825  0.04219  1.0000
  C   C117      1.0  0.08748  0.51028  0.50660  1.0000
  C   C118      1.0  0.13544  0.50753  0.45706  1.0000
  C   C119      1.0  0.12902  0.50626  0.50240  1.0000
  C   C120      1.0  0.14789  0.51269  0.52369  1.0000
  H   H92       1.0  0.11922  0.50300  0.51236  1.0000
  H   H93       1.0  0.07828  0.51047  0.11886  1.0000
  H   H94       1.0  0.09746  0.50980  0.07370  1.0000
  H   H95       1.0  0.01816  0.47162  0.20942  1.0000
  H   H96       1.0  0.16939  0.48960  0.82462  1.0000
  S   S16       1.0  0.13641  0.51462  0.20701  1.0000
  C   C121      1.0  0.04898  0.51483  0.08653  1.0000
  C   C122      1.0  0.15430  0.51412  0.47825  1.0000
  H   H97       1.0  0.07856  0.51442  0.74851  1.0000
  S   S17       1.0  0.15627  0.51522  0.56450  1.0000
  H   H98       1.0  0.16734  0.54938  0.49953  1.0000
  Fe  Fe9       1.0  0.13539  0.52658  0.25431  1.0000
  H   H99       1.0  0.16119  0.67851  0.87381  1.0000
  S   S18       1.0  0.13485  0.54584  0.22612  1.0000
  H   H100      1.0  0.05910  0.53502  0.97807  1.0000
  S   S19       1.0  0.14882  0.52085  0.28973  1.0000
  H   H101      1.0  0.08355  0.52744  0.39066  1.0000
  C   C123      1.0  0.09444  0.54427  0.18207  1.0000
  C   C124      1.0  0.06820  0.52339  0.10052  1.0000
  C   C125      1.0  0.10661  0.52320  0.45411  1.0000
  Fe  Fe10      1.0  0.14603  0.53496  0.69244  1.0000
  S   S20       1.0  0.13896  0.55145  0.69181  1.0000
  C   C126      1.0  0.10642  0.53597  0.76802  1.0000
  Fe  Fe11      1.0  0.15700  0.62637  0.26664  1.0000
  S   S21       1.0  0.13856  0.61907  0.31868  1.0000
  S   S22       1.0  0.16393  0.64665  0.22853  1.0000
  Fe  Fe12      1.0  0.16139  0.60137  0.28192  1.0000
  S   S23       1.0  0.14376  0.59259  0.33545  1.0000
  C   C127      1.0  0.06205  0.51799  0.96701  1.0000
  Fe  Fe13      1.0  0.13569  0.60327  0.28551  1.0000
  S   S24       1.0  0.11996  0.59074  0.26739  1.0000
  Fe  Fe14      1.0  0.14843  0.60906  0.36325  1.0000
  S   S25       1.0  0.14571  0.60507  0.44173  1.0000
  S   S26       1.0  0.15348  0.61153  0.23121  1.0000
  S   S27       1.0  0.16678  0.61705  0.31225  1.0000
  C   C128      1.0  0.09801  0.52212  0.72674  1.0000
  S   S28       1.0  0.17240  0.58873  0.26222  1.0000
  C   C129      1.0  0.12621  0.56024  0.84571  1.0000
  C   C130      1.0  0.16624  0.70641  0.91283  1.0000
  S   S29       1.0  0.15472  0.61253  0.71138  1.0000
  H   H102      1.0  0.16484  0.55303  0.81373  1.0000
  Fe  Fe15      1.0  0.15517  0.62639  0.75254  1.0000
  S   S30       1.0  0.13894  0.62847  0.80210  1.0000
  H   H103      1.0  0.08350  0.51555  0.88001  1.0000
  H   H104      1.0  0.02506  0.53339  0.96356  1.0000
  C   C131      1.0  0.17176  0.69721  0.90480  1.0000
  C   C132      1.0  0.03443  0.52795  0.24620  1.0000
  Fe  Fe16      1.0  0.07485  0.55366  0.07782  1.0000
  S   S31       1.0  0.06180  0.56100  0.12023  1.0000
  S   S32       1.0  0.07876  0.53588  0.10565  1.0000
  Fe  Fe17      1.0  0.08260  0.57626  0.99572  1.0000
  S   S33       1.0  0.06980  0.58519  0.03241  1.0000
  S   S34       1.0  0.09418  0.58204  0.92149  1.0000
  Fe  Fe18      1.0  0.07692  0.57891  0.09384  1.0000
  S   S35       1.0  0.08377  0.59161  0.13700  1.0000
  Fe  Fe19      1.0  0.05594  0.56623  0.05526  1.0000
  S   S36       1.0  0.09014  0.57091  0.05561  1.0000
  S   S37       1.0  0.06843  0.55786  0.01485  1.0000
  C   C133      1.0  0.02058  0.55106  0.18407  1.0000
  H   H105      1.0  0.02896  0.55700  0.15953  1.0000
  C   C134      1.0  0.11565  0.55714  0.83142  1.0000
  H   H106      1.0  0.16059  0.58979  0.64754  1.0000
  C   C135      1.0  0.05757  0.52496  0.08956  1.0000
  S   S38       1.0  0.16357  0.53535  0.64562  1.0000
  C   C136      1.0  0.02557  0.55236  0.03442  1.0000
  H   H107      1.0  0.05592  0.53395  0.08374  1.0000
  C   C137      1.0  0.12666  0.61542  0.83559  1.0000
  C   C138      1.0  0.11791  0.61675  0.87134  1.0000
  C   C139      1.0  0.10802  0.60660  0.89840  1.0000
  C   C140      1.0  0.10680  0.59499  0.89016  1.0000
  C   C141      1.0  0.11556  0.59366  0.85439  1.0000
  C   C142      1.0  0.12546  0.60379  0.82736  1.0000
  H   H108      1.0  0.11867  0.62572  0.87769  1.0000
  H   H109      1.0  0.10112  0.60787  0.92459  1.0000
  H   H110      1.0  0.11467  0.58476  0.84735  1.0000
  H   H111      1.0  0.13208  0.60263  0.79986  1.0000
  C   C143      1.0  0.15327  0.61203  0.47869  1.0000
  C   C144      1.0  0.14912  0.60671  0.52647  1.0000
  C   C145      1.0  0.15457  0.61205  0.55703  1.0000
  C   C146      1.0  0.16437  0.62280  0.54037  1.0000
  C   C147      1.0  0.16530  0.67377  0.85118  1.0000
  C   C148      1.0  0.16320  0.62263  0.46203  1.0000
  H   H112      1.0  0.14153  0.59847  0.54009  1.0000
  H   H113      1.0  0.15111  0.60789  0.59351  1.0000
  C   C149      1.0  0.16868  0.62793  0.49253  1.0000
  H   H114      1.0  0.16675  0.54369  0.06885  1.0000
  C   C150      1.0  0.11127  0.59202  0.22611  1.0000
  C   C151      1.0  0.10857  0.58236  0.20534  1.0000
  C   C152      1.0  0.10055  0.58225  0.17689  1.0000
  C   C153      1.0  0.09490  0.59174  0.16919  1.0000
  C   C154      1.0  0.09791  0.60158  0.18874  1.0000
  C   C155      1.0  0.10605  0.60177  0.21670  1.0000
  H   H115      1.0  0.11262  0.57482  0.21178  1.0000
  H   H116      1.0  0.09850  0.57471  0.16174  1.0000
  H   H117      1.0  0.09367  0.60901  0.18312  1.0000
  H   H118      1.0  0.10787  0.60923  0.23254  1.0000
  H   H119      1.0  0.02663  0.53100  0.24064  1.0000
  C   C156      1.0  0.14785  0.56185  0.71357  1.0000
  C   C157      1.0  0.14372  0.57154  0.72531  1.0000
  C   C158      1.0  0.15090  0.58001  0.74204  1.0000
  C   C159      1.0  0.16229  0.57893  0.74629  1.0000
  C   C160      1.0  0.16629  0.56909  0.73545  1.0000
  H   H120      1.0  0.13498  0.57250  0.72142  1.0000
  H   H121      1.0  0.14751  0.58726  0.75212  1.0000
  C   C161      1.0  0.14530  0.55722  0.23838  1.0000
  C   C162      1.0  0.14225  0.56802  0.24272  1.0000
  C   C163      1.0  0.15066  0.57769  0.24928  1.0000
  C   C164      1.0  0.16218  0.57667  0.25174  1.0000
  C   C165      1.0  0.16525  0.56583  0.24763  1.0000
  C   C166      1.0  0.15682  0.55607  0.24087  1.0000
  H   H122      1.0  0.13330  0.56890  0.24156  1.0000
  H   H123      1.0  0.14809  0.58591  0.25247  1.0000
  C   C167      1.0  0.01276  0.54229  0.17086  1.0000
  H   H124      1.0  0.15929  0.54779  0.23694  1.0000
  H   H125      1.0  0.09934  0.51737  0.70033  1.0000
  H   H126      1.0  0.01524  0.54161  0.13606  1.0000
  H   H127      1.0  0.09006  0.58514  0.83062  1.0000
  H   H128      1.0  0.07518  0.54823  0.90961  1.0000
  H   H129      1.0  0.17090  0.60601  0.07795  1.0000
  H   H130      1.0  0.15214  0.53977  0.14341  1.0000
  H   H131      1.0  0.16613  0.67350  0.00023  1.0000
  C   C168      1.0  0.10377  0.52810  0.20513  1.0000
  C   C169      1.0  0.01757  0.55225  0.22850  1.0000
  H   H132      1.0  0.08165  0.58707  0.76344  1.0000
  H   H133      1.0  0.00972  0.55691  0.06715  1.0000
  C   C170      1.0  0.00909  0.53758  0.99770  1.0000
  C   C171      1.0  0.10802  0.52990  0.73376  1.0000
  H   H134      1.0  0.14548  0.53704  0.82802  1.0000
  H   H135      1.0  0.11369  0.54632  0.16164  1.0000
  C   C172      1.0  0.01307  0.55163  0.04511  1.0000
  C   C173      1.0  0.07710  0.52041  0.38281  1.0000
  H   H136      1.0  0.16506  0.53157  0.18917  1.0000
  C   C174      1.0  0.11553  0.58351  0.43963  1.0000
  C   C175      1.0  0.11043  0.58126  0.48644  1.0000
  C   C176      1.0  0.10556  0.56911  0.51414  1.0000
  C   C177      1.0  0.10589  0.55919  0.49504  1.0000
  C   C178      1.0  0.11074  0.56138  0.44776  1.0000
  C   C179      1.0  0.11572  0.57363  0.42040  1.0000
  P   P5        1.0  0.11259  0.54888  0.42289  1.0000
  C   C180      1.0  0.10281  0.53383  0.45656  1.0000
  C   C181      1.0  0.10885  0.55083  0.36883  1.0000
  C   C182      1.0  0.11186  0.54333  0.34067  1.0000
  C   C183      1.0  0.10815  0.54401  0.30048  1.0000
  C   C184      1.0  0.10174  0.55240  0.28745  1.0000
  C   C185      1.0  0.09870  0.55989  0.31524  1.0000
  C   C186      1.0  0.10204  0.55897  0.35620  1.0000
  C   C187      1.0  0.09098  0.53250  0.48228  1.0000
  Fe  Fe20      1.0  0.16662  0.52405  0.70895  1.0000
  H   H137      1.0  0.13570  0.55499  0.89567  1.0000
  C   C188      1.0  0.15566  0.63328  0.89941  1.0000
  H   H138      1.0  0.09518  0.55352  0.16262  1.0000
  C   C189      1.0  0.12834  0.54924  0.41645  1.0000
  C   C190      1.0  0.13191  0.54276  0.45271  1.0000
  C   C191      1.0  0.14418  0.54354  0.44879  1.0000
  C   C192      1.0  0.15300  0.55102  0.40911  1.0000
  C   C193      1.0  0.14955  0.55772  0.37337  1.0000
  C   C194      1.0  0.13726  0.55681  0.37683  1.0000
  H   H139      1.0  0.11964  0.59294  0.41836  1.0000
  H   H140      1.0  0.11057  0.58898  0.50129  1.0000
  H   H141      1.0  0.10192  0.56741  0.55065  1.0000
  H   H142      1.0  0.10272  0.54989  0.51746  1.0000
  H   H143      1.0  0.11992  0.57556  0.38413  1.0000
  H   H144      1.0  0.11704  0.53691  0.34973  1.0000
  H   H145      1.0  0.11044  0.53815  0.27903  1.0000
  H   H146      1.0  0.09920  0.55320  0.25564  1.0000
  H   H147      1.0  0.09393  0.56659  0.30463  1.0000
  H   H148      1.0  0.09932  0.56471  0.37746  1.0000
  H   H149      1.0  0.08758  0.54050  0.48237  1.0000
  H   H150      1.0  0.14286  0.52767  0.97134  1.0000
  H   H151      1.0  0.17388  0.63990  0.34906  1.0000
  H   H152      1.0  0.16324  0.63626  0.12104  1.0000
  C   C195      1.0  0.05466  0.51989  0.26032  1.0000
  H   H153      1.0  0.12525  0.53712  0.48413  1.0000
  H   H154      1.0  0.14683  0.53835  0.47663  1.0000
  H   H155      1.0  0.16251  0.55162  0.40604  1.0000
  H   H156      1.0  0.15641  0.56370  0.34302  1.0000
  H   H157      1.0  0.13478  0.56214  0.34881  1.0000
  H   H158      1.0  0.13339  0.56854  0.82628  1.0000
  C   C196      1.0  0.08834  0.57745  0.81568  1.0000
  C   C197      1.0  0.14996  0.55664  0.56265  1.0000
  C   C198      1.0  0.13746  0.55110  0.57340  1.0000
  C   C199      1.0  0.13048  0.55600  0.54691  1.0000
  C   C200      1.0  0.13601  0.56646  0.50975  1.0000
  C   C201      1.0  0.14847  0.57205  0.49908  1.0000
  P   P6        1.0  0.16419  0.54613  0.97657  1.0000
  H   H159      1.0  0.15675  0.65274  0.79355  1.0000
  H   H160      1.0  0.13026  0.53585  0.14955  1.0000
  C   C202      1.0  0.08187  0.52423  0.23197  1.0000
  C   C203      1.0  0.13244  0.53823  0.07739  1.0000
  C   C204      1.0  0.02162  0.53842  0.98650  1.0000
  H   H161      1.0  0.15518  0.55290  0.58415  1.0000
  H   H162      1.0  0.13319  0.54316  0.60290  1.0000
  H   H163      1.0  0.12079  0.55178  0.55560  1.0000
  H   H164      1.0  0.13074  0.57046  0.48918  1.0000
  Fe  Fe21      1.0  0.15251  0.51762  0.63747  1.0000
  C   C205      1.0  0.03537  0.52374  0.29063  1.0000
  C   C206      1.0  0.08358  0.57853  0.77787  1.0000
  H   H165      1.0  0.06062  0.52446  0.18690  1.0000
  C   C207      1.0  0.14294  0.53145  0.90086  1.0000
  H   H166      1.0  0.16144  0.67357  0.08174  1.0000
  H   H167      1.0  0.08201  0.52998  0.31165  1.0000
  C   C208      1.0  0.16533  0.66527  0.02636  1.0000
  C   C209      1.0  0.08468  0.52655  0.78810  1.0000
  P   P7        1.0  0.09248  0.54248  0.83883  1.0000
  S   S39       1.0  0.13472  0.51792  0.68156  1.0000
  H   H168      1.0  0.14790  0.66362  0.84676  1.0000
  H   H169      1.0  0.10051  0.53063  0.91592  1.0000
  S   S40       1.0  0.16853  0.64190  0.69409  1.0000
  C   C210      1.0  0.17173  0.52593  0.01636  1.0000
  C   C211      1.0  0.15556  0.56712  0.52526  1.0000
  H   H170      1.0  0.11175  0.52484  0.20516  1.0000
  H   H171      1.0  0.02365  0.55912  0.23845  1.0000
  C   C212      1.0  0.05364  0.52426  0.21597  1.0000
  C   C213      1.0  0.10620  0.54650  0.85683  1.0000
  C   C214      1.0  0.15986  0.54779  0.84832  1.0000
  C   C215      1.0  0.04360  0.52827  0.20884  1.0000
  C   C216      1.0  0.06437  0.53084  0.95610  1.0000
  H   H172      1.0  0.03931  0.54606  0.99617  1.0000
  H   H173      1.0  0.14376  0.62425  0.01444  1.0000
  H   H174      1.0  0.14321  0.62530  0.09209  1.0000
  C   C217      1.0  0.07350  0.53830  0.91705  1.0000
  H   H175      1.0  0.13732  0.54239  0.00450  1.0000
  H   H176      1.0  0.07768  0.56947  0.72937  1.0000
  H   H177      1.0  0.11435  0.54204  0.77227  1.0000
  C   C218      1.0  0.10483  0.54015  0.18084  1.0000
  Fe  Fe22      1.0  0.17012  0.60895  0.73950  1.0000
  H   H178      1.0  0.16291  0.56942  0.91877  1.0000
  C   C219      1.0  0.16307  0.63048  0.98053  1.0000
  C   C220      1.0  0.08036  0.53292  0.88850  1.0000
  C   C221      1.0  0.02977  0.54562  0.00502  1.0000
  C   C222      1.0  0.12750  0.55263  0.88484  1.0000
  C   C223      1.0  0.10415  0.55721  0.96810  1.0000
  C   C224      1.0  0.10070  0.54623  0.00297  1.0000
  C   C225      1.0  0.10585  0.54559  0.03976  1.0000
  C   C226      1.0  0.11400  0.55605  0.04285  1.0000
  C   C227      1.0  0.11761  0.56711  0.00778  1.0000
  C   C228      1.0  0.11276  0.56751  0.96996  1.0000
  P   P8        1.0  0.12869  0.58060  0.00954  1.0000
  C   C229      1.0  0.12149  0.59215  0.02419  1.0000
  C   C230      1.0  0.13674  0.57608  0.05100  1.0000
  C   C231      1.0  0.13078  0.57280  0.09781  1.0000
  C   C232      1.0  0.13674  0.56900  0.13031  1.0000
  C   C233      1.0  0.14869  0.56841  0.11652  1.0000
  C   C234      1.0  0.15476  0.57186  0.07006  1.0000
  C   C235      1.0  0.14881  0.57570  0.03733  1.0000
  C   C236      1.0  0.11243  0.59494  0.00407  1.0000
  C   C237      1.0  0.13848  0.58634  0.95214  1.0000
  C   C238      1.0  0.14082  0.59869  0.92778  1.0000
  C   C239      1.0  0.14677  0.60264  0.88123  1.0000
  C   C240      1.0  0.15023  0.59426  0.85848  1.0000
  C   C241      1.0  0.14822  0.58200  0.88259  1.0000
  C   C242      1.0  0.14237  0.57802  0.92942  1.0000
  H   H179      1.0  0.10007  0.55784  0.93977  1.0000
  H   H180      1.0  0.09381  0.53833  0.00219  1.0000
  H   H181      1.0  0.10299  0.53711  0.06722  1.0000
  H   H182      1.0  0.11731  0.55540  0.07285  1.0000
  H   H183      1.0  0.11549  0.57584  0.94201  1.0000
  H   H184      1.0  0.12148  0.57313  0.10924  1.0000
  H   H185      1.0  0.13203  0.56646  0.16628  1.0000
  H   H186      1.0  0.15322  0.56525  0.14191  1.0000
  H   H187      1.0  0.16402  0.57138  0.05957  1.0000
  H   H188      1.0  0.15361  0.57833  0.00164  1.0000
  H   H189      1.0  0.09875  0.60474  0.00380  1.0000
  H   H190      1.0  0.10975  0.59037  0.97943  1.0000
  H   H191      1.0  0.13753  0.60515  0.94399  1.0000
  C   C243      1.0  0.08344  0.52078  0.50792  1.0000
  C   C244      1.0  0.15768  0.66532  0.83589  1.0000
  H   H192      1.0  0.15100  0.57562  0.86437  1.0000
  H   H193      1.0  0.14044  0.56839  0.94761  1.0000
  C   C245      1.0  0.07814  0.51998  0.90045  1.0000
  H   H194      1.0  0.11545  0.52388  0.43262  1.0000
  H   H195      1.0  0.07522  0.54003  0.20953  1.0000
  C   C246      1.0  0.08135  0.56861  0.75875  1.0000
  H   H196      1.0  0.15243  0.58030  0.47070  1.0000
  C   C247      1.0  0.15907  0.56052  0.71922  1.0000
  C   C248      1.0  0.10626  0.60321  0.01739  1.0000
  H   H197      1.0  0.12279  0.53630  0.08069  1.0000
  H   H198      1.0  0.11488  0.56307  0.80064  1.0000
  C   C249      1.0  0.17173  0.63512  0.93766  1.0000
  H   H199      1.0  0.15719  0.57533  0.60103  1.0000
  C   C250      1.0  0.08303  0.53646  0.20831  1.0000
  H   H200      1.0  0.16880  0.65478  0.97858  1.0000
  H   H201      1.0  0.16231  0.55304  0.71032  1.0000
  C   C251      1.0  0.14904  0.53865  0.85636  1.0000
  C   C252      1.0  0.15479  0.59696  0.13252  1.0000
  C   C253      1.0  0.14071  0.54123  0.03444  1.0000
  H   H202      1.0  0.13739  0.62682  0.94314  1.0000
  H   H203      1.0  0.15944  0.65475  0.14158  1.0000
  C   C254      1.0  0.09472  0.53428  0.79568  1.0000
  C   C255      1.0  0.08875  0.55648  0.81531  1.0000
  H   H204      1.0  0.04300  0.53166  0.17423  1.0000
  C   C256      1.0  0.14896  0.53992  0.11300  1.0000
  C   C257      1.0  0.16203  0.60657  0.09433  1.0000
  C   C258      1.0  0.15720  0.54226  0.07058  1.0000
  H   H205      1.0  0.14813  0.61209  0.86228  1.0000
  C   C259      1.0  0.12491  0.59852  0.05544  1.0000
  H   H206      1.0  0.08217  0.55011  0.76179  1.0000
  C   C260      1.0  0.16271  0.66534  0.07220  1.0000
  H   H207      1.0  0.09457  0.56583  0.86372  1.0000
  C   C261      1.0  0.14647  0.61734  0.10227  1.0000
  C   C262      1.0  0.11825  0.54190  0.90973  1.0000
  C   C263      1.0  0.09089  0.56648  0.83439  1.0000
  C   C264      1.0  0.14337  0.59746  0.15513  1.0000
  C   C265      1.0  0.14745  0.53370  0.93747  1.0000
  H   H208      1.0  0.15277  0.63431  0.86818  1.0000
  C   C266      1.0  0.16444  0.55001  0.88471  1.0000
  H   H209      1.0  0.15813  0.58925  0.14551  1.0000
  H   H210      1.0  0.13217  0.59698  0.07038  1.0000
  C   C267      1.0  0.09236  0.52020  0.23040  1.0000
  C   C268      1.0  0.13659  0.53778  0.11646  1.0000
  S   S41       1.0  0.14991  0.52525  0.75580  1.0000
  C   C269      1.0  0.16174  0.65476  0.10598  1.0000
  C   C270      1.0  0.16265  0.65915  0.80601  1.0000
  C   C271      1.0  0.07626  0.52178  0.33788  1.0000
  C   C272      1.0  0.10932  0.60905  0.04995  1.0000
  C   C273      1.0  0.14699  0.62900  0.94175  1.0000
  C   C274      1.0  0.15315  0.54276  0.03093  1.0000
  H   H211      1.0  0.11919  0.53604  0.94032  1.0000
  H   H212      1.0  0.15420  0.59717  0.82192  1.0000
  S   S42       1.0  0.03537  0.56182  0.05889  1.0000
  C   C275      1.0  0.15796  0.54339  0.92990  1.0000
  H   H213      1.0  0.16339  0.52310  0.04337  1.0000
  C   C276      1.0  0.15065  0.62748  0.98215  1.0000
  C   C277      1.0  0.15794  0.61688  0.07894  1.0000
  S   S43       1.0  0.16972  0.62177  0.78446  1.0000
  H   H214      1.0  0.12084  0.61118  0.09459  1.0000
  H   H215      1.0  0.13064  0.60829  0.15906  1.0000
  C   C278      1.0  0.11872  0.60680  0.06864  1.0000
  C   C279      1.0  0.13928  0.60770  0.14028  1.0000
  C   C280      1.0  0.10764  0.53884  0.89578  1.0000
  H   H216      1.0  0.11706  0.53132  0.71249  1.0000
  C   C281      1.0  0.16692  0.65462  0.01429  1.0000
  C   C282      1.0  0.08391  0.55762  0.77736  1.0000
  H   H217      1.0  0.16657  0.62685  0.42566  1.0000
  Fe  Fe23      1.0  0.16926  0.62733  0.65504  1.0000
  H   H218      1.0  0.13781  0.59011  0.18512  1.0000
  H   H219      1.0  0.10415  0.61502  0.06176  1.0000
  P   P9        1.0  0.16771  0.63000  0.03281  1.0000
  C   C283      1.0  0.16616  0.64398  0.04807  1.0000
  C   C284      1.0  0.16374  0.64422  0.09407  1.0000
  S   S44       1.0  0.17158  0.63028  0.57705  1.0000
  H   H220      1.0  0.17312  0.55683  0.87731  1.0000
  H   H221      1.0  0.07555  0.52525  0.80858  1.0000
  S   S45       1.0  0.17167  0.58978  0.76495  1.0000
  H   H222      1.0  0.02830  0.52360  0.31958  1.0000
  C   C285      1.0  0.16802  0.63633  0.89734  1.0000
  C   C286      1.0  0.16557  0.58272  0.58975  1.0000
  C   C287      1.0  0.17239  0.56217  0.96593  1.0000
  H   H223      1.0  0.13479  0.52406  0.90674  1.0000
  C   C288      1.0  0.16951  0.57163  0.93735  1.0000
  C   C289      1.0  0.16979  0.71790  0.88044  1.0000
  C   C290      1.0  0.04543  0.51971  0.29774  1.0000
  H   H224      1.0  0.15922  0.70465  0.94421  1.0000
  H   H225      1.0  0.17261  0.51800  0.91820  1.0000
  H   H226      1.0  0.17203  0.66066  0.31616  1.0000
  H   H227      1.0  0.07441  0.51982  0.52846  1.0000
  C   C291      1.0  0.08633  0.52048  0.75381  1.0000
  P   P10       1.0  0.17165  0.57439  0.51193  1.0000
  H   H228      1.0  0.17405  0.67210  0.18673  1.0000
  H   H229      1.0  0.17015  0.51702  0.84169  1.0000
  H   H230      1.0  0.16889  0.68835  0.93015  1.0000
  C   C292      1.0  0.16749  0.59084  0.61671  1.0000
  H   H231      1.0  0.04095  0.51618  0.07684  1.0000
  C   C293      1.0  0.17257  0.53147  0.16243  1.0000
  H   H232      1.0  0.16552  0.72504  0.88668  1.0000
  H   H233      1.0  0.17277  0.59127  0.91061  1.0000
  H   H234      1.0  0.16413  0.51699  0.46868  1.0000
  H   H235      1.0  0.17403  0.56494  0.25038  1.0000
  H   H236      1.0  0.04593  0.51647  0.33240  1.0000
  H   H237      1.0  0.17472  0.63982  0.86437  1.0000
  H   H238      1.0  0.17358  0.60010  0.46620  1.0000
  C   C294      1.0  0.17427  0.58440  0.54858  1.0000
  C   C295      1.0  0.17456  0.53675  0.98052  1.0000
  C   C296      1.0  0.17480  0.52023  0.15909  1.0000
  C   C297      1.0  0.31079  0.48993  0.61005  1.0000
  H   H239      1.0  0.32845  0.48712  0.70269  1.0000
  H   H240      1.0  0.17768  0.51044  0.04609  1.0000
  H   H241      1.0  0.32957  0.51028  0.69489  1.0000
  H   H242      1.0  0.29555  0.47691  0.66246  1.0000
  C   C298      1.0  0.30501  0.48215  0.65406  1.0000
  H   H243      1.0  0.32725  0.50270  0.56487  1.0000
  C   C299      1.0  0.32950  0.49578  0.63232  1.0000
  H   H244      1.0  0.30581  0.49071  0.58430  1.0000
  C   C300      1.0  0.32298  0.49673  0.59915  1.0000
  C   C301      1.0  0.31142  0.48116  0.68727  1.0000
  C   C302      1.0  0.32362  0.48794  0.67648  1.0000
  H   H245      1.0  0.30694  0.47516  0.72146  1.0000
  H   H246      1.0  0.18656  0.51163  0.12196  1.0000
  Fe  Fe24      1.0  0.21511  0.56060  0.99832  1.0000
  S   S46       1.0  0.22137  0.54798  0.95828  1.0000
  S   S47       1.0  0.20026  0.55719  0.06358  1.0000
  Fe  Fe25      1.0  0.23124  0.58394  0.92475  1.0000
  S   S48       1.0  0.23855  0.57324  0.87869  1.0000
  S   S49       1.0  0.23657  0.60471  0.89905  1.0000
  Fe  Fe26      1.0  0.21938  0.56096  0.89605  1.0000
  S   S50       1.0  0.20821  0.55904  0.84377  1.0000
  Fe  Fe27      1.0  0.24014  0.56135  0.94379  1.0000
  S   S51       1.0  0.25767  0.55575  0.94267  1.0000
  S   S52       1.0  0.21213  0.57276  0.93759  1.0000
  S   S53       1.0  0.23389  0.57292  0.98840  1.0000
  Fe  Fe28      1.0  0.24226  0.65878  0.99850  1.0000
  S   S54       1.0  0.25321  0.67244  0.93128  1.0000
  S   S55       1.0  0.24349  0.63960  0.02911  1.0000
  Fe  Fe29      1.0  0.22672  0.67519  0.02215  1.0000
  S   S56       1.0  0.23636  0.69011  0.95634  1.0000
  C   C303      1.0  0.20133  0.55269  0.21100  1.0000
  Fe  Fe30      1.0  0.23489  0.67443  0.92282  1.0000
  S   S57       1.0  0.22913  0.67556  0.85553  1.0000
  Fe  Fe31      1.0  0.25385  0.68707  0.97058  1.0000
  S   S58       1.0  0.27155  0.70314  0.95685  1.0000
  S   S59       1.0  0.22416  0.65999  0.98777  1.0000
  S   S60       1.0  0.24408  0.67295  0.03820  1.0000
  H   H247      1.0  0.27768  0.75291  0.79503  1.0000
  C   C304      1.0  0.19492  0.59030  0.08266  1.0000
  H   H248      1.0  0.20318  0.61307  0.13181  1.0000
  H   H249      1.0  0.24693  0.59548  0.13520  1.0000
  C   C305      1.0  0.21899  0.63651  0.16533  1.0000
  C   C306      1.0  0.19332  0.68646  0.93866  1.0000
  H   H250      1.0  0.18631  0.56618  0.17783  1.0000
  P   P11       1.0  0.28310  0.61921  0.96635  1.0000
  H   H251      1.0  0.21871  0.67179  0.71406  1.0000
  Fe  Fe32      1.0  0.32167  0.57714  0.00324  1.0000
  C   C307      1.0  0.18097  0.56533  0.98987  1.0000
  S   S61       1.0  0.30282  0.58064  0.01057  1.0000
  H   H252      1.0  0.30633  0.74607  0.84919  1.0000
  H   H253      1.0  0.21342  0.60033  0.04568  1.0000
  H   H254      1.0  0.26524  0.61173  0.13172  1.0000
  S   S62       1.0  0.32441  0.55821  0.02093  1.0000
  C   C308      1.0  0.26155  0.64591  0.77553  1.0000
  C   C309      1.0  0.18037  0.54265  0.13243  1.0000
  H   H255      1.0  0.26688  0.66324  0.84893  1.0000
  C   C310      1.0  0.19612  0.61937  0.18954  1.0000
  H   H256      1.0  0.22236  0.58818  0.09802  1.0000
  C   C311      1.0  0.18339  0.58711  0.95789  1.0000
  H   H257      1.0  0.20802  0.59273  0.18875  1.0000
  C   C312      1.0  0.25391  0.59978  0.10328  1.0000
  H   H258      1.0  0.25787  0.56356  0.10149  1.0000
  C   C313      1.0  0.20754  0.59289  0.07469  1.0000
  H   H259      1.0  0.25451  0.56965  0.17394  1.0000
  H   H260      1.0  0.20167  0.53512  0.91971  1.0000
  C   C314      1.0  0.19059  0.52194  0.98308  1.0000
  C   C315      1.0  0.19234  0.57360  0.14926  1.0000
  H   H261      1.0  0.19639  0.62125  0.77186  1.0000
  H   H262      1.0  0.18477  0.58068  0.83265  1.0000
  C   C316      1.0  0.18546  0.64881  0.16330  1.0000
  H   H263      1.0  0.23456  0.57189  0.20956  1.0000
  C   C317      1.0  0.28058  0.71201  0.98592  1.0000
  H   H264      1.0  0.32998  0.62223  0.99671  1.0000
  C   C318      1.0  0.22595  0.62062  0.31684  1.0000
  C   C319      1.0  0.20968  0.58824  0.22020  1.0000
  C   C320      1.0  0.28426  0.71815  0.05395  1.0000
  C   C321      1.0  0.27687  0.71089  0.03295  1.0000
  C   C322      1.0  0.20934  0.59421  0.25497  1.0000
  C   C323      1.0  0.21258  0.58590  0.10422  1.0000
  H   H265      1.0  0.28117  0.71712  0.09023  1.0000
  H   H266      1.0  0.26827  0.70443  0.05323  1.0000
  C   C324      1.0  0.18985  0.53337  0.76702  1.0000
  C   C325      1.0  0.19919  0.53062  0.78592  1.0000
  C   C326      1.0  0.20462  0.53805  0.81109  1.0000
  C   C327      1.0  0.20092  0.54848  0.81685  1.0000
  C   C328      1.0  0.19147  0.55110  0.79841  1.0000
  C   C329      1.0  0.18587  0.54354  0.77418  1.0000
  P   P12       1.0  0.18799  0.68741  0.85456  1.0000
  H   H267      1.0  0.21193  0.53592  0.82468  1.0000
  H   H268      1.0  0.18852  0.55911  0.80248  1.0000
  C   C330      1.0  0.18006  0.65804  0.30226  1.0000
  H   H269      1.0  0.23266  0.70440  0.79606  1.0000
  C   C331      1.0  0.26902  0.60327  0.87637  1.0000
  C   C332      1.0  0.31604  0.75861  0.88122  1.0000
  C   C333      1.0  0.19040  0.54275  0.09837  1.0000
  C   C334      1.0  0.19248  0.53151  0.09413  1.0000
  C   C335      1.0  0.17807  0.60062  0.60313  1.0000
  H   H270      1.0  0.24507  0.66136  0.85864  1.0000
  H   H271      1.0  0.20797  0.63852  0.06428  1.0000
  H   H272      1.0  0.20021  0.53147  0.06810  1.0000
  C   C336      1.0  0.22609  0.65973  0.20843  1.0000
  C   C337      1.0  0.27004  0.56273  0.96236  1.0000
  C   C338      1.0  0.26925  0.57135  0.98768  1.0000
  C   C339      1.0  0.27926  0.57654  0.00289  1.0000
  C   C340      1.0  0.29027  0.57334  0.99245  1.0000
  C   C341      1.0  0.29103  0.56471  0.96726  1.0000
  C   C342      1.0  0.28097  0.55940  0.95255  1.0000
  H   H273      1.0  0.26095  0.57404  0.99548  1.0000
  H   H274      1.0  0.27850  0.58316  0.02245  1.0000
  H   H275      1.0  0.29939  0.56211  0.95906  1.0000
  H   H276      1.0  0.28169  0.55270  0.93324  1.0000
  C   C343      1.0  0.23902  0.61406  0.93606  1.0000
  C   C344      1.0  0.24277  0.62693  0.91781  1.0000
  C   C345      1.0  0.24412  0.63477  0.94627  1.0000
  C   C346      1.0  0.24209  0.62980  0.99313  1.0000
  C   C347      1.0  0.23872  0.61693  0.01147  1.0000
  C   C348      1.0  0.23710  0.60904  0.98298  1.0000
  H   H277      1.0  0.24469  0.63087  0.88146  1.0000
  H   H278      1.0  0.24687  0.64468  0.93189  1.0000
  H   H279      1.0  0.23721  0.61307  0.04777  1.0000
  H   H280      1.0  0.23434  0.59912  0.99727  1.0000
  H   H281      1.0  0.20741  0.60310  0.24990  1.0000
  C   C349      1.0  0.24325  0.65062  0.81052  1.0000
  C   C350      1.0  0.19051  0.63498  0.04990  1.0000
  H   H282      1.0  0.29235  0.65872  0.84813  1.0000
  C   C351      1.0  0.32105  0.62184  0.99144  1.0000
  H   H283      1.0  0.29271  0.60206  0.02264  1.0000
  C   C352      1.0  0.23497  0.67781  0.14295  1.0000
  C   C353      1.0  0.20738  0.65607  0.76883  1.0000
  C   C354      1.0  0.18359  0.53870  0.26994  1.0000
  C   C355      1.0  0.20499  0.57618  0.14181  1.0000
  C   C356      1.0  0.20212  0.69433  0.81016  1.0000
  H   H284      1.0  0.32664  0.64013  0.94548  1.0000
  H   H285      1.0  0.27749  0.65317  0.79627  1.0000
  H   H286      1.0  0.20229  0.65154  0.11201  1.0000
  H   H287      1.0  0.29283  0.63713  0.87645  1.0000
  C   C357      1.0  0.25349  0.59055  0.64467  1.0000
  C   C358      1.0  0.25511  0.58146  0.67881  1.0000
  C   C359      1.0  0.24539  0.57473  0.71687  1.0000
  C   C360      1.0  0.23403  0.57697  0.72060  1.0000
  C   C361      1.0  0.23230  0.58605  0.68637  1.0000
  C   C362      1.0  0.24214  0.59287  0.64842  1.0000
  P   P13       1.0  0.21741  0.58856  0.69169  1.0000
  C   C363      1.0  0.21790  0.60300  0.65351  1.0000
  C   C364      1.0  0.20749  0.57644  0.67726  1.0000
  C   C365      1.0  0.19735  0.57854  0.66268  1.0000
  C   C366      1.0  0.18983  0.56934  0.65020  1.0000
  C   C367      1.0  0.19230  0.55795  0.65269  1.0000
  C   C368      1.0  0.20234  0.55578  0.66705  1.0000
  C   C369      1.0  0.20986  0.56493  0.67964  1.0000
  C   C370      1.0  0.21516  0.61266  0.67067  1.0000
  C   C371      1.0  0.21456  0.62338  0.64108  1.0000
  C   C372      1.0  0.21662  0.62451  0.59427  1.0000
  C   C373      1.0  0.21940  0.61496  0.57687  1.0000
  C   C374      1.0  0.21999  0.60422  0.60636  1.0000
  C   C375      1.0  0.21147  0.58860  0.75006  1.0000
  C   C376      1.0  0.21941  0.59277  0.77515  1.0000
  C   C377      1.0  0.21493  0.59224  0.82104  1.0000
  C   C378      1.0  0.20247  0.58780  0.84187  1.0000
  C   C379      1.0  0.19445  0.58410  0.81666  1.0000
  C   C380      1.0  0.19895  0.58447  0.77089  1.0000
  H   H288      1.0  0.26105  0.59578  0.61522  1.0000
  H   H289      1.0  0.26389  0.57963  0.67586  1.0000
  H   H290      1.0  0.24660  0.56769  0.74354  1.0000
  H   H291      1.0  0.22656  0.57156  0.75026  1.0000
  H   H292      1.0  0.24112  0.59997  0.62173  1.0000
  H   H293      1.0  0.19509  0.58720  0.66171  1.0000
  H   H294      1.0  0.19789  0.68582  0.00285  1.0000
  H   H295      1.0  0.18711  0.64025  0.07201  1.0000
  H   H296      1.0  0.20404  0.54681  0.66998  1.0000
  H   H297      1.0  0.21736  0.56284  0.69182  1.0000
  H   H298      1.0  0.21314  0.61181  0.70696  1.0000
  H   H299      1.0  0.21221  0.63074  0.65456  1.0000
  H   H300      1.0  0.21584  0.63272  0.57170  1.0000
  H   H301      1.0  0.22086  0.61578  0.54064  1.0000
  H   H302      1.0  0.22180  0.59673  0.59263  1.0000
  H   H303      1.0  0.22907  0.59608  0.75963  1.0000
  H   H304      1.0  0.22113  0.59499  0.84083  1.0000
  H   H305      1.0  0.18635  0.55068  0.64426  1.0000
  H   H306      1.0  0.29669  0.75740  0.05258  1.0000
  H   H307      1.0  0.19267  0.58128  0.75217  1.0000
  C   C381      1.0  0.18015  0.66752  0.17063  1.0000
  H   H308      1.0  0.29496  0.72168  0.92435  1.0000
  C   C382      1.0  0.28783  0.60210  0.91829  1.0000
  H   H309      1.0  0.21846  0.66402  0.15125  1.0000
  C   C383      1.0  0.20293  0.54274  0.19338  1.0000
  C   C384      1.0  0.17504  0.58405  0.93304  1.0000
  C   C385      1.0  0.19737  0.66882  0.98444  1.0000
  H   H310      1.0  0.19716  0.65339  0.95593  1.0000
  H   H311      1.0  0.19303  0.57997  0.00490  1.0000
  C   C386      1.0  0.27140  0.74249  0.86587  1.0000
  H   H312      1.0  0.20238  0.52280  0.78051  1.0000
  H   H313      1.0  0.22981  0.61311  0.31216  1.0000
  C   C387      1.0  0.19196  0.54450  0.53391  1.0000
  C   C388      1.0  0.24171  0.65965  0.69560  1.0000
  C   C389      1.0  0.19059  0.67457  0.13595  1.0000
  C   C390      1.0  0.21139  0.65595  0.84375  1.0000
  C   C391      1.0  0.29933  0.72777  0.98177  1.0000
  H   H314      1.0  0.19150  0.62734  0.24462  1.0000
  H   H315      1.0  0.21826  0.63559  0.39697  1.0000
  H   H316      1.0  0.17864  0.55127  0.13591  1.0000
  C   C392      1.0  0.19008  0.56486  0.53655  1.0000
  P   P14       1.0  0.21359  0.64618  0.23996  1.0000
  C   C393      1.0  0.22586  0.66681  0.16600  1.0000
  C   C394      1.0  0.29798  0.62047  0.97634  1.0000
  H   H317      1.0  0.21291  0.70460  0.69392  1.0000
  H   H318      1.0  0.33161  0.52863  0.72424  1.0000
  C   C395      1.0  0.19258  0.66799  0.91277  1.0000
  C   C396      1.0  0.31424  0.74867  0.86149  1.0000
  C   C397      1.0  0.24717  0.56808  0.15774  1.0000
  C   C398      1.0  0.24909  0.56464  0.11694  1.0000
  C   C399      1.0  0.18732  0.58063  0.11987  1.0000
  C   C400      1.0  0.22837  0.56404  0.11545  1.0000
  C   C401      1.0  0.22630  0.56741  0.15667  1.0000
  C   C402      1.0  0.23581  0.56937  0.17776  1.0000
  P   P15       1.0  0.21128  0.56819  0.18362  1.0000
  C   C403      1.0  0.21180  0.57652  0.22682  1.0000
  C   C404      1.0  0.21359  0.57094  0.26880  1.0000
  H   H319      1.0  0.21501  0.56182  0.27494  1.0000
  C   C405      1.0  0.21117  0.58860  0.29651  1.0000
  H   H320      1.0  0.24114  0.55961  0.06486  1.0000
  H   H321      1.0  0.29003  0.58745  0.88726  1.0000
  C   C406      1.0  0.23966  0.56252  0.09605  1.0000
  C   C407      1.0  0.24968  0.65714  0.83510  1.0000
  C   C408      1.0  0.20698  0.62721  0.01773  1.0000
  C   C409      1.0  0.30768  0.63123  0.95488  1.0000
  C   C410      1.0  0.30123  0.76232  0.97897  1.0000
  C   C411      1.0  0.20373  0.62185  0.78819  1.0000
  C   C412      1.0  0.26200  0.65812  0.82985  1.0000
  H   H322      1.0  0.23371  0.65003  0.81492  1.0000
  C   C413      1.0  0.26420  0.60895  0.10129  1.0000
  C   C414      1.0  0.21786  0.63732  0.28635  1.0000
  H   H323      1.0  0.23868  0.66985  0.58854  1.0000
  C   C415      1.0  0.19163  0.55053  0.24973  1.0000
  H   H324      1.0  0.19014  0.55800  0.26402  1.0000
  H   H325      1.0  0.17935  0.61174  0.38546  1.0000
  C   C416      1.0  0.21079  0.61746  0.85601  1.0000
  C   C417      1.0  0.21564  0.62818  0.76226  1.0000
  H   H326      1.0  0.20905  0.61319  0.89217  1.0000
  H   H327      1.0  0.21719  0.63255  0.72639  1.0000
  C   C418      1.0  0.24106  0.66779  0.65635  1.0000
  H   H328      1.0  0.31292  0.60333  0.03534  1.0000
  H   H329      1.0  0.30653  0.63912  0.93224  1.0000
  C   C419      1.0  0.23934  0.66355  0.61866  1.0000
  C   C420      1.0  0.25263  0.59617  0.06400  1.0000
  H   H330      1.0  0.24471  0.58903  0.06534  1.0000
  H   H331      1.0  0.29490  0.60115  0.93526  1.0000
  C   C421      1.0  0.21331  0.57698  0.30340  1.0000
  H   H332      1.0  0.24275  0.66311  0.72470  1.0000
  H   H333      1.0  0.24020  0.61229  0.80415  1.0000
  C   C422      1.0  0.22527  0.62905  0.78282  1.0000
  C   C423      1.0  0.22270  0.62368  0.82997  1.0000
  H   H334      1.0  0.28103  0.62183  0.05870  1.0000
  C   C424      1.0  0.27314  0.61464  0.05988  1.0000
  H   H335      1.0  0.23444  0.68346  0.11106  1.0000
  C   C425      1.0  0.24912  0.64491  0.78067  1.0000
  S   S63       1.0  0.33355  0.58430  0.04652  1.0000
  H   H336      1.0  0.19974  0.66456  0.01472  1.0000
  H   H337      1.0  0.27322  0.58830  0.85079  1.0000
  H   H338      1.0  0.25273  0.67739  0.21653  1.0000
  C   C426      1.0  0.26794  0.65247  0.80016  1.0000
  H   H339      1.0  0.25149  0.59726  0.79092  1.0000
  C   C427      1.0  0.26153  0.60185  0.02253  1.0000
  C   C428      1.0  0.24655  0.61413  0.77127  1.0000
  H   H340      1.0  0.22993  0.62423  0.84663  1.0000
  C   C429      1.0  0.28511  0.59428  0.89088  1.0000
  S   S64       1.0  0.33240  0.75095  0.10528  1.0000
  C   C430      1.0  0.28157  0.63447  0.94444  1.0000
  H   H341      1.0  0.23635  0.65838  0.25909  1.0000
  C   C431      1.0  0.23828  0.65115  0.62016  1.0000
  H   H342      1.0  0.19205  0.61161  0.85491  1.0000
  H   H343      1.0  0.22998  0.68143  0.76175  1.0000
  C   C432      1.0  0.28086  0.65890  0.91168  1.0000
  P   P16       1.0  0.24083  0.63646  0.74892  1.0000
  C   C433      1.0  0.25303  0.60560  0.76389  1.0000
  C   C434      1.0  0.27179  0.61126  0.02003  1.0000
  H   H344      1.0  0.24168  0.67735  0.65557  1.0000
  S   S65       1.0  0.21169  0.67886  0.07174  1.0000
  H   H345      1.0  0.23774  0.63333  0.66050  1.0000
  C   C435      1.0  0.29561  0.72665  0.02880  1.0000
  C   C436      1.0  0.28737  0.65344  0.88281  1.0000
  C   C437      1.0  0.23587  0.66361  0.22654  1.0000
  S   S66       1.0  0.18477  0.62287  0.68166  1.0000
  S   S67       1.0  0.30452  0.73565  0.05790  1.0000
  C   C438      1.0  0.18539  0.53996  0.94580  1.0000
  C   C439      1.0  0.31916  0.63188  0.96242  1.0000
  H   H346      1.0  0.26619  0.61733  0.90947  1.0000
  C   C440      1.0  0.24840  0.62498  0.73685  1.0000
  H   H347      1.0  0.26913  0.65622  0.97851  1.0000
  C   C441      1.0  0.26154  0.60789  0.72209  1.0000
  H   H348      1.0  0.26025  0.59890  0.99269  1.0000
  C   C442      1.0  0.27174  0.61115  0.90362  1.0000
  C   C443      1.0  0.19607  0.65598  0.12810  1.0000
  H   H349      1.0  0.26959  0.63490  0.00741  1.0000
  H   H350      1.0  0.19259  0.67091  0.79692  1.0000
  H   H351      1.0  0.26665  0.60132  0.71667  1.0000
  C   C444      1.0  0.21299  0.70260  0.72953  1.0000
  S   S68       1.0  0.19992  0.65005  0.73003  1.0000
  C   C445      1.0  0.31143  0.61121  0.01335  1.0000
  C   C446      1.0  0.22045  0.66736  0.82447  1.0000
  H   H352      1.0  0.23681  0.64785  0.59111  1.0000
  C   C447      1.0  0.28763  0.64122  0.89895  1.0000
  H   H353      1.0  0.19296  0.69594  0.93344  1.0000
  C   C448      1.0  0.25718  0.62735  0.69521  1.0000
  C   C449      1.0  0.26362  0.61876  0.68774  1.0000
  C   C450      1.0  0.27472  0.63992  0.97270  1.0000
  H   H354      1.0  0.25934  0.63596  0.66898  1.0000
  C   C451      1.0  0.27440  0.65208  0.95632  1.0000
  C   C452      1.0  0.20046  0.65091  0.26399  1.0000
  H   H355      1.0  0.30800  0.73412  0.96161  1.0000
  H   H356      1.0  0.18722  0.61276  0.19888  1.0000
  C   C453      1.0  0.19333  0.53254  0.94689  1.0000
  Fe  Fe33      1.0  0.18305  0.63621  0.72462  1.0000
  H   H357      1.0  0.27041  0.62065  0.65567  1.0000
  C   C454      1.0  0.23889  0.64297  0.65941  1.0000
  C   C455      1.0  0.29188  0.72061  0.96065  1.0000
  C   C456      1.0  0.24518  0.67443  0.20262  1.0000
  H   H358      1.0  0.25184  0.69002  0.14255  1.0000
  H   H359      1.0  0.26634  0.64164  0.75265  1.0000
  C   C457      1.0  0.22427  0.62347  0.35882  1.0000
  C   C458      1.0  0.29995  0.61052  0.00595  1.0000
  C   C459      1.0  0.24070  0.64718  0.69734  1.0000
  C   C460      1.0  0.24470  0.68157  0.16094  1.0000
  H   H360      1.0  0.28075  0.66841  0.89957  1.0000
  S   S69       1.0  0.33710  0.58424  0.93833  1.0000
  C   C461      1.0  0.28109  0.61053  0.92519  1.0000
  C   C462      1.0  0.22293  0.67281  0.77749  1.0000
  H   H361      1.0  0.19147  0.66301  0.88743  1.0000
  C   C463      1.0  0.20232  0.63393  0.04595  1.0000
  C   C464      1.0  0.21655  0.66726  0.75020  1.0000
  C   C465      1.0  0.19123  0.67998  0.90622  1.0000
  H   H362      1.0  0.22423  0.62520  0.24838  1.0000
  C   C466      1.0  0.20208  0.69716  0.76390  1.0000
  C   C467      1.0  0.22277  0.62751  0.28070  1.0000
  C   C468      1.0  0.29151  0.75881  0.87756  1.0000
  H   H363      1.0  0.20947  0.65146  0.87977  1.0000
  H   H364      1.0  0.17829  0.53354  0.51098  1.0000
  C   C469      1.0  0.22411  0.70262  0.78696  1.0000
  H   H365      1.0  0.21626  0.62667  0.01411  1.0000
  C   C470      1.0  0.19863  0.66893  0.11445  1.0000
  H   H366      1.0  0.18767  0.54821  0.91778  1.0000
  H   H367      1.0  0.32114  0.73405  0.84310  1.0000
  H   H368      1.0  0.22796  0.64296  0.15556  1.0000
  H   H369      1.0  0.26781  0.73339  0.93748  1.0000
  C   C471      1.0  0.22401  0.70535  0.74105  1.0000
  H   H370      1.0  0.19246  0.68454  0.12582  1.0000
  C   C472      1.0  0.27362  0.74105  0.90886  1.0000
  C   C473      1.0  0.20475  0.65041  0.81613  1.0000
  C   C474      1.0  0.27562  0.59476  0.87035  1.0000
  H   H371      1.0  0.19777  0.64173  0.83122  1.0000
  C   C475      1.0  0.33503  0.75493  0.89152  1.0000
  C   C476      1.0  0.20129  0.61651  0.83508  1.0000
  H   H372      1.0  0.22351  0.62827  0.11035  1.0000
  C   C477      1.0  0.19624  0.55580  0.54295  1.0000
  C   C478      1.0  0.18637  0.57773  0.98621  1.0000
  H   H373      1.0  0.19909  0.58709  0.87765  1.0000
  C   C479      1.0  0.19574  0.66248  0.95159  1.0000
  H   H374      1.0  0.21459  0.57255  0.33581  1.0000
  C   C480      1.0  0.28359  0.74918  0.91476  1.0000
  C   C481      1.0  0.17522  0.66118  0.79232  1.0000
  C   C482      1.0  0.21652  0.62811  0.13971  1.0000
  H   H375      1.0  0.19488  0.61008  0.55182  1.0000
  C   C483      1.0  0.18438  0.71099  0.83189  1.0000
  H   H376      1.0  0.22117  0.56235  0.09869  1.0000
  C   C484      1.0  0.27925  0.75199  0.82857  1.0000
  H   H377      1.0  0.26375  0.73605  0.86140  1.0000
  C   C485      1.0  0.21951  0.63331  0.36454  1.0000
  H   H378      1.0  0.22674  0.61813  0.38679  1.0000
  Fe  Fe34      1.0  0.32282  0.75053  0.04848  1.0000
  C   C486      1.0  0.18918  0.66625  0.26494  1.0000
  H   H379      1.0  0.21071  0.59317  0.32363  1.0000
  C   C487      1.0  0.21323  0.69714  0.82140  1.0000
  C   C488      1.0  0.32636  0.76147  0.89728  1.0000
  H   H380      1.0  0.17880  0.54585  0.75950  1.0000
  H   H381      1.0  0.21286  0.64796  0.33324  1.0000
  C   C489      1.0  0.19504  0.53088  0.21429  1.0000
  C   C490      1.0  0.21001  0.63638  0.20349  1.0000
  H   H382      1.0  0.18822  0.67526  0.25001  1.0000
  C   C491      1.0  0.19973  0.62125  0.99411  1.0000
  H   H383      1.0  0.21006  0.54404  0.16302  1.0000
  H   H384      1.0  0.17894  0.51974  0.26712  1.0000
  C   C492      1.0  0.19928  0.66270  0.24560  1.0000
  H   H385      1.0  0.19362  0.69512  0.75437  1.0000
  H   H386      1.0  0.19352  0.57349  0.54406  1.0000
  C   C493      1.0  0.17541  0.55133  0.51158  1.0000
  H   H387      1.0  0.19660  0.53738  0.53958  1.0000
  C   C494      1.0  0.19858  0.62769  0.21546  1.0000
  C   C495      1.0  0.28936  0.76002  0.83419  1.0000
  H   H388      1.0  0.23248  0.70941  0.71447  1.0000
  H   H389      1.0  0.20598  0.66920  0.21612  1.0000
  H   H390      1.0  0.26151  0.60350  0.86119  1.0000
  C   C496      1.0  0.21640  0.64027  0.32838  1.0000
  H   H391      1.0  0.30303  0.75359  0.97739  1.0000
  S   S70       1.0  0.33828  0.55417  0.12594  1.0000
  C   C497      1.0  0.17977  0.51861  0.01775  1.0000
  C   C498      1.0  0.18324  0.62928  0.02544  1.0000
  H   H392      1.0  0.18772  0.59670  0.95459  1.0000
  C   C499      1.0  0.18782  0.62212  0.99843  1.0000
  H   H393      1.0  0.20425  0.55746  0.55549  1.0000
  H   H394      1.0  0.20339  0.61598  0.97252  1.0000
  C   C500      1.0  0.19623  0.68082  0.97784  1.0000
  H   H395      1.0  0.19103  0.59574  0.05995  1.0000
  C   C501      1.0  0.20510  0.61954  0.15178  1.0000
  H   H396      1.0  0.21363  0.69491  0.85662  1.0000
  H   H397      1.0  0.19180  0.63354  0.31629  1.0000
  H   H398      1.0  0.17754  0.57855  0.12625  1.0000
  H   H399      1.0  0.19181  0.59567  0.50389  1.0000
  C   C502      1.0  0.18162  0.54232  0.51789  1.0000
  C   C503      1.0  0.33736  0.51818  0.67804  1.0000
  H   H400      1.0  0.19620  0.52328  0.20006  1.0000
  H   H401      1.0  0.18347  0.55821  0.01162  1.0000
  C   C504      1.0  0.18276  0.59646  0.36010  1.0000
  C   C505      1.0  0.17659  0.59563  0.44033  1.0000
  C   C506      1.0  0.19123  0.64272  0.30167  1.0000
  H   H402      1.0  0.28531  0.74753  0.94810  1.0000
  C   C507      1.0  0.18286  0.66951  0.80792  1.0000
  Fe  Fe35      1.0  0.33748  0.56581  0.05841  1.0000
  C   C508      1.0  0.18110  0.64630  0.32067  1.0000
  C   C509      1.0  0.17884  0.72018  0.84001  1.0000
  C   C510      1.0  0.18268  0.58405  0.37191  1.0000
  H   H403      1.0  0.18221  0.61722  0.98075  1.0000
  H   H404      1.0  0.18476  0.60145  0.32439  1.0000
  C   C511      1.0  0.17799  0.67614  0.83654  1.0000
  C   C512      1.0  0.17974  0.60225  0.39433  1.0000
  H   H405      1.0  0.33977  0.73981  0.86890  1.0000
  C   C513      1.0  0.32269  0.74182  0.85762  1.0000
  C   C514      1.0  0.18500  0.59417  0.53554  1.0000
  H   H406      1.0  0.17622  0.63623  0.47895  1.0000
  C   C515      1.0  0.18473  0.52028  0.12461  1.0000
  C   C516      1.0  0.18685  0.60228  0.56266  1.0000
  H   H407      1.0  0.19138  0.71304  0.80038  1.0000
  H   H408      1.0  0.18333  0.63885  0.17339  1.0000
  C   C517      1.0  0.17675  0.58322  0.45256  1.0000
  C   C518      1.0  0.17977  0.57746  0.41796  1.0000
  S   S71       1.0  0.18390  0.52429  0.73273  1.0000
  C   C519      1.0  0.18530  0.52888  0.25220  1.0000
  C   C520      1.0  0.17755  0.65465  0.18498  1.0000
  C   C521      1.0  0.17953  0.56265  0.52129  1.0000
  H   H409      1.0  0.18452  0.57947  0.34522  1.0000
  H   H410      1.0  0.18191  0.57093  0.63979  1.0000
  H   H411      1.0  0.18160  0.72910  0.81491  1.0000
  H   H412      1.0  0.18134  0.63808  0.93504  1.0000
  H   H413      1.0  0.17928  0.60712  0.62338  1.0000
  H   H414      1.0  0.19691  0.51635  0.98437  1.0000
  C   C522      1.0  0.18088  0.69940  0.86429  1.0000
  H   H415      1.0  0.17502  0.56812  0.73919  1.0000
  C   C523      1.0  0.33314  0.74502  0.87230  1.0000
  S   S72       1.0  0.34001  0.75218  0.99670  1.0000
  H   H416      1.0  0.17952  0.56780  0.42636  1.0000
  C   C524      1.0  0.33845  0.52860  0.69482  1.0000
  Fe  Fe36      1.0  0.34044  0.56560  0.95870  1.0000
  H   H417      1.0  0.17904  0.65635  0.76927  1.0000
  C   C525      1.0  0.29762  0.76445  0.02172  1.0000
  H   H418      1.0  0.17593  0.53716  0.29900  1.0000
  C   C526      1.0  0.32535  0.80652  0.00664  1.0000
  Fe  Fe37      1.0  0.33684  0.77186  0.08396  1.0000
  C   C527      1.0  0.30955  0.80084  0.79159  1.0000
  C   C528      1.0  0.32212  0.80619  0.77840  1.0000
  H   H419      1.0  0.33652  0.94196  0.84333  1.0000
  H   H420      1.0  0.29487  0.79348  0.98735  1.0000
  S   S73       1.0  0.33585  0.78402  0.13457  1.0000
  H   H421      1.0  0.29474  0.78532  0.83386  1.0000
  H   H422      1.0  0.32325  0.82064  0.95359  1.0000
  H   H423      1.0  0.33612  0.79868  0.91729  1.0000
  C   C529      1.0  0.30233  0.77130  0.93883  1.0000
  H   H424      1.0  0.33762  0.81983  0.87141  1.0000
  C   C530      1.0  0.33352  0.80219  0.02808  1.0000
  H   H425      1.0  0.29279  0.77733  0.05801  1.0000
  H   H426      1.0  0.32604  0.81536  0.75490  1.0000
  H   H427      1.0  0.33941  0.80409  0.78675  1.0000
  H   H428      1.0  0.32788  0.76896  0.91324  1.0000
  S   S74       1.0  0.32583  0.77136  0.03136  1.0000
  H   H429      1.0  0.31582  0.80144  0.01782  1.0000
  C   C531      1.0  0.32953  0.81734  0.97081  1.0000
  C   C532      1.0  0.29541  0.77569  0.02477  1.0000
  H   H430      1.0  0.30369  0.80588  0.77821  1.0000
  H   H431      1.0  0.33083  0.78358  0.84088  1.0000
  C   C533      1.0  0.32968  0.79982  0.79618  1.0000
  C   C534      1.0  0.29662  0.78477  0.98501  1.0000
  H   H432      1.0  0.33347  0.79995  0.19371  1.0000
  H   H433      1.0  0.30063  0.78966  0.91212  1.0000
  C   C535      1.0  0.30453  0.78911  0.82272  1.0000
  C   C536      1.0  0.31207  0.78255  0.84043  1.0000
  C   C537      1.0  0.32471  0.78807  0.82703  1.0000
  C   C538      1.0  0.29996  0.78255  0.94224  1.0000
  H   H434      1.0  0.33020  0.79393  0.05633  1.0000
  H   H435      1.0  0.34090  0.92856  0.79293  1.0000
  P   P17       1.0  0.30546  0.76790  0.88406  1.0000
  H   H436      1.0  0.29570  0.76685  0.80439  1.0000
  Fe  Fe38      1.0  0.48766  0.02733  0.03587  1.0000
  S   S75       1.0  0.50183  0.03361  0.96867  1.0000
  Fe  Fe39      1.0  0.49899  0.05141  0.06363  1.0000
  S   S76       1.0  0.48410  0.04610  0.02903  1.0000
  S   S77       1.0  0.50107  0.03207  0.07705  1.0000
  C   C539      1.0  0.49202  0.08333  0.99025  1.0000
  C   C540      1.0  0.50303  0.01853  0.88057  1.0000
  C   C541      1.0  0.49940  0.11029  0.80409  1.0000
  S   S78       1.0  0.49700  0.06351  0.11361  1.0000
  H   H437      1.0  0.50304  0.12268  0.73710  1.0000
  H   H438      1.0  0.47941  0.08331  0.05144  1.0000
  H   H439      1.0  0.49399  0.01679  0.87551  1.0000
  S   S79       1.0  0.49789  0.06494  0.89978  1.0000
  H   H440      1.0  0.48860  0.07349  0.99484  1.0000
  H   H441      1.0  0.49113  0.10431  0.80171  1.0000
  C   C542      1.0  0.48680  0.08891  0.02189  1.0000
  C   C543      1.0  0.49118  0.10164  0.01547  1.0000
  C   C544      1.0  0.50097  0.10874  0.97795  1.0000
  Fe  Fe40      1.0  0.49930  0.05250  0.96412  1.0000
  C   C545      1.0  0.50170  0.09042  0.95261  1.0000
  H   H442      1.0  0.48710  0.10594  0.04003  1.0000
  H   H443      1.0  0.49802  0.09952  0.87106  1.0000
  H   H444      1.0  0.49410  0.07834  0.17641  1.0000
  C   C546      1.0  0.50340  0.10757  0.84350  1.0000
  H   H445      1.0  0.50086  0.14686  0.98412  1.0000
  C   C547      1.0  0.50339  0.07784  0.17033  1.0000
  H   H446      1.0  0.50395  0.08557  0.82092  1.0000
  C   C548      1.0  0.50639  0.10313  0.94644  1.0000
  H   H447      1.0  0.50404  0.09304  0.08342  1.0000
  H   H448      1.0  0.50430  0.11852  0.97395  1.0000
  H   H449      1.0  0.50564  0.08595  0.92843  1.0000
  C   C549      1.0  0.50611  0.12061  0.76771  1.0000
  H   H450      1.0  0.50708  0.12294  0.26045  1.0000
  C   C550      1.0  0.50737  0.07089  0.14105  1.0000
  H   H451      1.0  0.50805  0.14303  0.20953  1.0000
  H   H452      1.0  0.50769  0.11391  0.09509  1.0000
  H   H453      1.0  0.50789  0.08917  0.21493  1.0000
  H   H454      1.0  0.46075  0.47987  0.13106  1.0000
  H   H455      1.0  0.43589  0.44835  0.05134  1.0000
  S   S80       1.0  0.39309  0.49953  0.27059  1.0000
  C   C551      1.0  0.37312  0.49424  0.14181  1.0000
  H   H456      1.0  0.46831  0.35890  0.04647  1.0000
  H   H457      1.0  0.36563  0.50982  0.65954  1.0000
  H   H458      1.0  0.39737  0.48351  0.01959  1.0000
  H   H459      1.0  0.43193  0.49711  0.35710  1.0000
  C   C552      1.0  0.49545  0.49412  0.92813  1.0000
  H   H460      1.0  0.46480  0.51398  0.13535  1.0000
  Fe  Fe41      1.0  0.42120  0.48327  0.04553  1.0000
  S   S81       1.0  0.42909  0.50369  0.01839  1.0000
  S   S82       1.0  0.40465  0.47524  0.10642  1.0000
  Fe  Fe42      1.0  0.44162  0.47766  0.98046  1.0000
  S   S83       1.0  0.45091  0.49784  0.94859  1.0000
  S   S84       1.0  0.45086  0.46418  0.95358  1.0000
  Fe  Fe43      1.0  0.44673  0.49949  0.02027  1.0000
  H   H461      1.0  0.44693  0.49177  0.15888  1.0000
  Fe  Fe44      1.0  0.43240  0.50021  0.94906  1.0000
  C   C553      1.0  0.36289  0.50002  0.66322  1.0000
  S   S85       1.0  0.43871  0.47923  0.05213  1.0000
  S   S86       1.0  0.42310  0.47981  0.97565  1.0000
  C   C554      1.0  0.39199  0.49828  0.04282  1.0000
  C   C555      1.0  0.48867  0.34510  0.99911  1.0000
  S   S87       1.0  0.48432  0.43641  0.04942  1.0000
  H   H462      1.0  0.44679  0.43921  0.19408  1.0000
  H   H463      1.0  0.47049  0.33808  0.04406  1.0000
  H   H464      1.0  0.39576  0.49673  0.07179  1.0000
  H   H465      1.0  0.49322  0.38142  0.84913  1.0000
  C   C556      1.0  0.35663  0.47468  0.67126  1.0000
  H   H466      1.0  0.44803  0.41616  0.07624  1.0000
  C   C557      1.0  0.43351  0.50052  0.32048  1.0000
  H   H467      1.0  0.38865  0.48663  0.95319  1.0000
  C   C558      1.0  0.43874  0.42734  0.10978  1.0000
  C   C559      1.0  0.49833  0.47699  0.04320  1.0000
  H   H468      1.0  0.41620  0.48928  0.31938  1.0000
  C   C560      1.0  0.44328  0.48224  0.15929  1.0000
  C   C561      1.0  0.46026  0.45667  0.98047  1.0000
  C   C562      1.0  0.46607  0.44913  0.95910  1.0000
  C   C563      1.0  0.47351  0.44291  0.97955  1.0000
  C   C564      1.0  0.47516  0.44412  0.02182  1.0000
  C   C565      1.0  0.46939  0.45168  0.04315  1.0000
  C   C566      1.0  0.46202  0.45796  0.02255  1.0000
  H   H469      1.0  0.46476  0.44805  0.92657  1.0000
  H   H470      1.0  0.47788  0.43712  0.96276  1.0000
  H   H471      1.0  0.47057  0.45261  0.07596  1.0000
  H   H472      1.0  0.45762  0.46373  0.03934  1.0000
  C   C567      1.0  0.50741  0.33501  0.84506  1.0000
  C   C568      1.0  0.38611  0.50761  0.03549  1.0000
  C   C569      1.0  0.50791  0.34879  0.89441  1.0000
  C   C570      1.0  0.48136  0.49630  0.17998  1.0000
  C   C571      1.0  0.40047  0.50115  0.85639  1.0000
  C   C572      1.0  0.41019  0.50212  0.87678  1.0000
  H   H473      1.0  0.47528  0.51136  0.26119  1.0000
  H   H474      1.0  0.40823  0.43136  0.31837  1.0000
  H   H475      1.0  0.37294  0.48991  0.11431  1.0000
  H   H476      1.0  0.39362  0.49241  0.86486  1.0000
  H   H477      1.0  0.41085  0.49414  0.90072  1.0000
  H   H478      1.0  0.49836  0.33878  0.79213  1.0000
  C   C573      1.0  0.47790  0.34625  0.02513  1.0000
  H   H479      1.0  0.40348  0.45001  0.00999  1.0000
  H   H480      1.0  0.35426  0.46486  0.67417  1.0000
  C   C574      1.0  0.39981  0.41485  0.24601  1.0000
  H   H481      1.0  0.42535  0.45092  0.99073  1.0000
  C   C575      1.0  0.35847  0.50244  0.53620  1.0000
  C   C576      1.0  0.40741  0.44450  0.11722  1.0000
  C   C577      1.0  0.39673  0.49355  0.22300  1.0000
  C   C578      1.0  0.39205  0.48085  0.22942  1.0000
  C   C579      1.0  0.39458  0.47550  0.19334  1.0000
  C   C580      1.0  0.40217  0.48267  0.15051  1.0000
  C   C581      1.0  0.40719  0.49539  0.14400  1.0000
  C   C582      1.0  0.40431  0.50086  0.18001  1.0000
  H   H482      1.0  0.38622  0.47513  0.26238  1.0000
  H   H483      1.0  0.39065  0.46571  0.19876  1.0000
  H   H484      1.0  0.41306  0.50105  0.11110  1.0000
  C   C583      1.0  0.40818  0.42231  0.20511  1.0000
  H   H485      1.0  0.37875  0.50333  0.93827  1.0000
  C   C584      1.0  0.41912  0.51338  0.86564  1.0000
  H   H486      1.0  0.48803  0.49828  0.93347  1.0000
  C   C585      1.0  0.49839  0.35564  0.97508  1.0000
  C   C586      1.0  0.38237  0.50194  0.96770  1.0000
  C   C587      1.0  0.43072  0.47684  0.17318  1.0000
  C   C588      1.0  0.50607  0.39074  0.18629  1.0000
  P   P18       1.0  0.42731  0.44261  0.15164  1.0000
  H   H487      1.0  0.36329  0.48628  0.25794  1.0000
  C   C589      1.0  0.38800  0.49252  0.97595  1.0000
  C   C590      1.0  0.35340  0.49488  0.64605  1.0000
  H   H488      1.0  0.47146  0.50924  0.96484  1.0000
  H   H489      1.0  0.40816  0.41963  0.17376  1.0000
  C   C591      1.0  0.40156  0.44630  0.08248  1.0000
  H   H490      1.0  0.48581  0.48936  0.17277  1.0000
  H   H491      1.0  0.50056  0.46683  0.91846  1.0000
  C   C592      1.0  0.49681  0.36739  0.97497  1.0000
  H   H492      1.0  0.48047  0.47720  0.03620  1.0000
  C   C593      1.0  0.47557  0.50604  0.84136  1.0000
  S   S88       1.0  0.43163  0.51496  0.88939  1.0000
  H   H493      1.0  0.47716  0.49546  0.79225  1.0000
  H   H494      1.0  0.39329  0.41236  0.31846  1.0000
  H   H495      1.0  0.39377  0.51494  0.49867  1.0000
  H   H496      1.0  0.43204  0.42661  0.09055  1.0000
  C   C594      1.0  0.41651  0.43320  0.20466  1.0000
  S   S89       1.0  0.49260  0.39671  0.91074  1.0000
  C   C595      1.0  0.40820  0.42885  0.28672  1.0000
  P   P19       1.0  0.34524  0.50454  0.61892  1.0000
  H   H497      1.0  0.48945  0.33599  0.99774  1.0000
  C   C596      1.0  0.41876  0.51429  0.38810  1.0000
  H   H498      1.0  0.41616  0.46090  0.18071  1.0000
  C   C597      1.0  0.39978  0.41814  0.28678  1.0000
  H   H499      1.0  0.41487  0.50916  0.36672  1.0000
  C   C598      1.0  0.41481  0.50961  0.43557  1.0000
  H   H500      1.0  0.34322  0.47799  0.63606  1.0000
  C   C599      1.0  0.46969  0.51039  0.15860  1.0000
  H   H501      1.0  0.40238  0.44328  0.15204  1.0000
  C   C600      1.0  0.45625  0.42155  0.12727  1.0000
  C   C601      1.0  0.47569  0.50168  0.14893  1.0000
  H   H502      1.0  0.45107  0.51276  0.31135  1.0000
  C   C602      1.0  0.47549  0.50882  0.22950  1.0000
  C   C603      1.0  0.37769  0.51222  0.17033  1.0000
  H   H503      1.0  0.39335  0.40650  0.24608  1.0000
  H   H504      1.0  0.48496  0.37760  0.00095  1.0000
  C   C604      1.0  0.42008  0.51461  0.60896  1.0000
  H   H505      1.0  0.47369  0.49811  0.87049  1.0000
  S   S90       1.0  0.48621  0.40284  0.03259  1.0000
  C   C605      1.0  0.37842  0.50701  0.13325  1.0000
  C   C606      1.0  0.44765  0.42115  0.10215  1.0000
  C   C607      1.0  0.36774  0.48679  0.18657  1.0000
  H   H506      1.0  0.47573  0.49904  0.11752  1.0000
  H   H507      1.0  0.36402  0.47692  0.19291  1.0000
  H   H508      1.0  0.37648  0.49671  0.69767  1.0000
  C   C608      1.0  0.45107  0.47554  0.14367  1.0000
  C   C609      1.0  0.47664  0.35795  0.02644  1.0000
  C   C610      1.0  0.44430  0.50950  0.29447  1.0000
  C   C611      1.0  0.39290  0.49075  0.01328  1.0000
  C   C612      1.0  0.37208  0.50476  0.21494  1.0000
  H   H509      1.0  0.42463  0.48217  0.18356  1.0000
  C   C613      1.0  0.42594  0.46474  0.17158  1.0000
  H   H510      1.0  0.42313  0.44450  0.24665  1.0000
  H   H511      1.0  0.45251  0.45873  0.12727  1.0000
  H   H512      1.0  0.49713  0.46746  0.04203  1.0000
  C   C614      1.0  0.46970  0.51416  0.19850  1.0000
  C   C615      1.0  0.50135  0.35519  0.86999  1.0000
  C   C616      1.0  0.43373  0.45788  0.15654  1.0000
  C   C617      1.0  0.44633  0.46345  0.14184  1.0000
  H   H513      1.0  0.40792  0.50084  0.45092  1.0000
  C   C618      1.0  0.36725  0.49205  0.22314  1.0000
  C   C619      1.0  0.42693  0.50012  0.25196  1.0000
  C   C620      1.0  0.48605  0.36849  0.00106  1.0000
  C   C621      1.0  0.48132  0.49992  0.22018  1.0000
  Fe  Fe45      1.0  0.49425  0.42322  0.02345  1.0000
  C   C622      1.0  0.50450  0.39621  0.86641  1.0000
  C   C623      1.0  0.42029  0.44896  0.02614  1.0000
  C   C624      1.0  0.50721  0.50071  0.92608  1.0000
  C   C625      1.0  0.41974  0.44474  0.10668  1.0000
  H   H514      1.0  0.43950  0.51158  0.18888  1.0000
  Fe  Fe46      1.0  0.49841  0.40633  0.96195  1.0000
  H   H515      1.0  0.39215  0.44645  0.09075  1.0000
  C   C626      1.0  0.44701  0.43429  0.16804  1.0000
  C   C627      1.0  0.40796  0.44842  0.03699  1.0000
  C   C628      1.0  0.42622  0.44740  0.06071  1.0000
  H   H516      1.0  0.42986  0.50766  0.65533  1.0000
  C   C629      1.0  0.43861  0.43433  0.14170  1.0000
  C   C630      1.0  0.41659  0.43633  0.24587  1.0000
  H   H517      1.0  0.50716  0.39401  0.25140  1.0000
  C   C631      1.0  0.45587  0.42803  0.16047  1.0000
  H   H518      1.0  0.46332  0.41697  0.12054  1.0000
  H   H519      1.0  0.46258  0.42832  0.17980  1.0000
  C   C632      1.0  0.42472  0.49601  0.29932  1.0000
  H   H520      1.0  0.50683  0.35085  0.16609  1.0000
  C   C633      1.0  0.50087  0.34146  0.82099  1.0000
  S   S91       1.0  0.50523  0.42685  0.95093  1.0000
  H   H521      1.0  0.50290  0.51151  0.04095  1.0000
  H   H522      1.0  0.42019  0.49647  0.23555  1.0000
  H   H523      1.0  0.35820  0.50877  0.09479  1.0000
  C   C634      1.0  0.43059  0.51337  0.62171  1.0000
  C   C635      1.0  0.43780  0.50888  0.22574  1.0000
  C   C636      1.0  0.36914  0.49257  0.68461  1.0000
  S   S92       1.0  0.50309  0.38346  0.10926  1.0000
  S   S93       1.0  0.38739  0.50996  0.79958  1.0000
  C   C637      1.0  0.50263  0.47642  0.91915  1.0000
  H   H524      1.0  0.37087  0.47415  0.70534  1.0000
  C   C638      1.0  0.50164  0.50179  0.04300  1.0000
  C   C639      1.0  0.35037  0.48214  0.64985  1.0000
  C   C640      1.0  0.38144  0.50951  0.99728  1.0000
  C   C641      1.0  0.49784  0.35156  0.83348  1.0000
  H   H525      1.0  0.48341  0.49907  0.03571  1.0000
  H   H526      1.0  0.48572  0.49576  0.24427  1.0000
  H   H527      1.0  0.36025  0.49444  0.55595  1.0000
  H   H528      1.0  0.49289  0.35667  0.81459  1.0000
  H   H529      1.0  0.50368  0.37577  0.95414  1.0000
  C   C642      1.0  0.50225  0.38761  0.84120  1.0000
  Fe  Fe47      1.0  0.50249  0.40013  0.05702  1.0000
  C   C643      1.0  0.47985  0.51475  0.75969  1.0000
  S   S94       1.0  0.45884  0.50988  0.05457  1.0000
  H   H530      1.0  0.48392  0.47666  0.92864  1.0000
  C   C644      1.0  0.36308  0.50595  0.48860  1.0000
  C   C645      1.0  0.48893  0.48244  0.03991  1.0000
  C   C646      1.0  0.47753  0.50455  0.79722  1.0000
  C   C647      1.0  0.36599  0.47989  0.68877  1.0000
  H   H531      1.0  0.41594  0.51272  0.49993  1.0000
  H   H532      1.0  0.49892  0.36299  0.87941  1.0000
  H   H533      1.0  0.50567  0.34071  0.03995  1.0000
  C   C648      1.0  0.49062  0.49483  0.03949  1.0000
  H   H534      1.0  0.49850  0.39459  0.18457  1.0000
  C   C649      1.0  0.49313  0.48193  0.92528  1.0000
  C   C650      1.0  0.39969  0.51140  0.82452  1.0000
  C   C651      1.0  0.35187  0.50938  0.55770  1.0000
  H   H535      1.0  0.48136  0.51357  0.72550  1.0000
  H   H536      1.0  0.41121  0.50980  0.63248  1.0000
  H   H537      1.0  0.40805  0.51067  0.17462  1.0000
  H   H538      1.0  0.37171  0.50877  0.24345  1.0000
  H   H539      1.0  0.50396  0.50713  0.12114  1.0000
  H   H540      1.0  0.36841  0.50075  0.47217  1.0000
  C   C652      1.0  0.44637  0.51403  0.24701  1.0000
  H   H541      1.0  0.40595  0.56063  0.98383  1.0000
  C   C653      1.0  0.45634  0.58432  0.93574  1.0000
  H   H542      1.0  0.48151  0.61924  0.85734  1.0000
  C   C654      1.0  0.35388  0.56666  0.82985  1.0000
  C   C655      1.0  0.35229  0.52500  0.07591  1.0000
  C   C656      1.0  0.47984  0.57942  0.62405  1.0000
  S   S95       1.0  0.45049  0.74423  0.09260  1.0000
  H   H543      1.0  0.42204  0.61852  0.74185  1.0000
  H   H544      1.0  0.39012  0.60509  0.88495  1.0000
  H   H545      1.0  0.40333  0.57342  0.03774  1.0000
  H   H546      1.0  0.45014  0.51877  0.60149  1.0000
  S   S96       1.0  0.35363  0.57166  0.99774  1.0000
  C   C657      1.0  0.43120  0.54576  0.89436  1.0000
  Fe  Fe48      1.0  0.34912  0.58980  0.98325  1.0000
  S   S97       1.0  0.36535  0.60704  0.95826  1.0000
  H   H547      1.0  0.43086  0.55038  0.05218  1.0000
  Fe  Fe49      1.0  0.43222  0.66122  0.97020  1.0000
  S   S98       1.0  0.42500  0.64314  0.02380  1.0000
  S   S99       1.0  0.43648  0.66081  0.89623  1.0000
  Fe  Fe50      1.0  0.42708  0.67612  0.03911  1.0000
  S   S100      1.0  0.41924  0.65880  0.09804  1.0000
  S   S101      1.0  0.42484  0.69514  0.04446  1.0000
  Fe  Fe51      1.0  0.43522  0.65281  0.06568  1.0000
  S   S102      1.0  0.44357  0.63930  0.10372  1.0000
  Fe  Fe52      1.0  0.40965  0.65020  0.05200  1.0000
  S   S103      1.0  0.39039  0.63723  0.08044  1.0000
  S   S104      1.0  0.44380  0.67061  0.00923  1.0000
  S   S105      1.0  0.41609  0.66786  0.99567  1.0000
  Fe  Fe53      1.0  0.47978  0.62609  0.27806  1.0000
  S   S106      1.0  0.47567  0.60899  0.25421  1.0000
  S   S107      1.0  0.47689  0.64388  0.23997  1.0000
  Fe  Fe54      1.0  0.48780  0.61326  0.35964  1.0000
  S   S108      1.0  0.48453  0.59534  0.34034  1.0000
  S   S109      1.0  0.49374  0.61107  0.42529  1.0000
  Fe  Fe55      1.0  0.49318  0.60664  0.26789  1.0000
  Fe  Fe56      1.0  0.46744  0.59934  0.32869  1.0000
  S   S110      1.0  0.44924  0.58540  0.35945  1.0000
  C   C658      1.0  0.36853  0.75127  0.91784  1.0000
  S   S111      1.0  0.47010  0.61657  0.35207  1.0000
  Fe  Fe57      1.0  0.39433  0.54481  0.21525  1.0000
  S   S112      1.0  0.40820  0.53443  0.20121  1.0000
  S   S113      1.0  0.39076  0.55719  0.15571  1.0000
  H   H548      1.0  0.38192  0.57327  0.09768  1.0000
  C   C659      1.0  0.39936  0.52737  0.06880  1.0000
  Fe  Fe58      1.0  0.41647  0.54290  0.24989  1.0000
  S   S114      1.0  0.43661  0.55061  0.23551  1.0000
  S   S115      1.0  0.40386  0.55465  0.25803  1.0000
  Fe  Fe59      1.0  0.47576  0.62773  0.75946  1.0000
  S   S116      1.0  0.49170  0.62660  0.70723  1.0000
  S   S117      1.0  0.47881  0.64117  0.80187  1.0000
  Fe  Fe60      1.0  0.45855  0.60602  0.74489  1.0000
  S   S118      1.0  0.47296  0.60290  0.69231  1.0000
  S   S119      1.0  0.43931  0.59399  0.77014  1.0000
  Fe  Fe61      1.0  0.48476  0.60612  0.73971  1.0000
  Fe  Fe62      1.0  0.47848  0.62355  0.66457  1.0000
  H   H549      1.0  0.47406  0.64172  0.08469  1.0000
  S   S120      1.0  0.46975  0.60742  0.79474  1.0000
  S   S121      1.0  0.46313  0.62645  0.71445  1.0000
  S   S122      1.0  0.39435  0.54572  0.73736  1.0000
  S   S123      1.0  0.39368  0.55169  0.62890  1.0000
  Fe  Fe63      1.0  0.40706  0.54836  0.66885  1.0000
  S   S124      1.0  0.42644  0.56022  0.64219  1.0000
  Fe  Fe64      1.0  0.38061  0.54757  0.69795  1.0000
  S   S125      1.0  0.37001  0.56130  0.70919  1.0000
  C   C660      1.0  0.48012  0.52642  0.76635  1.0000
  C   C661      1.0  0.49266  0.53282  0.00523  1.0000
  C   C662      1.0  0.45093  0.55870  0.75428  1.0000
  H   H550      1.0  0.36374  0.76035  0.11653  1.0000
  C   C663      1.0  0.41862  0.72051  0.16452  1.0000
  H   H551      1.0  0.41792  0.54734  0.42412  1.0000
  C   C664      1.0  0.43560  0.58516  0.73307  1.0000
  C   C665      1.0  0.42595  0.57439  0.75007  1.0000
  C   C666      1.0  0.42328  0.56672  0.72225  1.0000
  C   C667      1.0  0.42996  0.56992  0.67671  1.0000
  C   C668      1.0  0.43955  0.58082  0.65913  1.0000
  C   C669      1.0  0.44237  0.58846  0.68733  1.0000
  H   H552      1.0  0.42070  0.57168  0.78513  1.0000
  H   H553      1.0  0.41640  0.55806  0.73691  1.0000
  H   H554      1.0  0.44482  0.58338  0.62387  1.0000
  H   H555      1.0  0.44967  0.59693  0.67353  1.0000
  C   C670      1.0  0.36291  0.56469  0.10783  1.0000
  C   C671      1.0  0.41010  0.52569  0.04407  1.0000
  H   H556      1.0  0.37990  0.55254  0.46315  1.0000
  H   H557      1.0  0.38148  0.54409  0.54156  1.0000
  C   C672      1.0  0.48789  0.61703  0.47036  1.0000
  C   C673      1.0  0.48399  0.60942  0.51553  1.0000
  C   C674      1.0  0.48177  0.61448  0.55279  1.0000
  C   C675      1.0  0.48356  0.62723  0.54506  1.0000
  C   C676      1.0  0.50263  0.62022  0.05117  1.0000
  C   C677      1.0  0.48892  0.62966  0.46269  1.0000
  H   H558      1.0  0.48308  0.59964  0.52200  1.0000
  H   H559      1.0  0.47917  0.60860  0.58737  1.0000
  H   H560      1.0  0.49198  0.52096  0.91449  1.0000
  Fe  Fe65      1.0  0.39628  0.52000  0.26434  1.0000
  C   C678      1.0  0.44612  0.57503  0.32711  1.0000
  C   C679      1.0  0.45516  0.57460  0.29075  1.0000
  C   C680      1.0  0.45223  0.56680  0.26328  1.0000
  C   C681      1.0  0.44029  0.55952  0.27217  1.0000
  C   C682      1.0  0.43136  0.55961  0.30961  1.0000
  C   C683      1.0  0.43432  0.56736  0.33711  1.0000
  H   H561      1.0  0.46436  0.58033  0.28368  1.0000
  H   H562      1.0  0.45918  0.56649  0.23484  1.0000
  H   H563      1.0  0.42215  0.55388  0.31700  1.0000
  H   H564      1.0  0.42740  0.56769  0.36538  1.0000
  C   C684      1.0  0.44793  0.65448  0.87309  1.0000
  C   C685      1.0  0.44656  0.64884  0.83797  1.0000
  C   C686      1.0  0.45579  0.64433  0.81681  1.0000
  C   C687      1.0  0.46662  0.64577  0.82988  1.0000
  C   C688      1.0  0.46800  0.65139  0.86505  1.0000
  C   C689      1.0  0.45861  0.65561  0.88705  1.0000
  H   H565      1.0  0.43840  0.64809  0.82676  1.0000
  H   H566      1.0  0.45469  0.64011  0.78947  1.0000
  H   H567      1.0  0.47642  0.65257  0.87483  1.0000
  H   H568      1.0  0.45978  0.66009  0.91365  1.0000
  C   C690      1.0  0.45253  0.64126  0.14211  1.0000
  C   C691      1.0  0.45992  0.65278  0.14063  1.0000
  C   C692      1.0  0.46738  0.65355  0.17084  1.0000
  C   C693      1.0  0.46765  0.64282  0.20182  1.0000
  C   C694      1.0  0.46037  0.63139  0.20251  1.0000
  C   C695      1.0  0.45275  0.63064  0.17335  1.0000
  H   H569      1.0  0.45998  0.66103  0.11613  1.0000
  H   H570      1.0  0.47305  0.66245  0.16986  1.0000
  H   H571      1.0  0.46047  0.62308  0.22596  1.0000
  H   H572      1.0  0.44699  0.62174  0.17505  1.0000
  C   C696      1.0  0.35144  0.55505  0.86066  1.0000
  C   C697      1.0  0.35941  0.56853  0.78308  1.0000
  C   C698      1.0  0.36281  0.55890  0.76741  1.0000
  C   C699      1.0  0.36055  0.54740  0.79838  1.0000
  C   C700      1.0  0.35466  0.54544  0.84454  1.0000
  H   H573      1.0  0.36309  0.53991  0.78665  1.0000
  C   C701      1.0  0.45852  0.55036  0.08155  1.0000
  C   C702      1.0  0.35290  0.55473  0.13358  1.0000
  C   C703      1.0  0.37439  0.56523  0.11549  1.0000
  C   C704      1.0  0.37606  0.55577  0.14802  1.0000
  C   C705      1.0  0.36611  0.54571  0.17363  1.0000
  H   H574      1.0  0.50086  0.57480  0.82487  1.0000
  H   H575      1.0  0.36729  0.53837  0.19897  1.0000
  C   C706      1.0  0.47937  0.54939  0.90036  1.0000
  C   C707      1.0  0.37220  0.61481  0.99408  1.0000
  C   C708      1.0  0.38388  0.62306  0.97536  1.0000
  C   C709      1.0  0.38967  0.62972  0.00169  1.0000
  C   C710      1.0  0.38362  0.62854  0.04685  1.0000
  C   C711      1.0  0.37184  0.62039  0.06562  1.0000
  C   C712      1.0  0.36622  0.61340  0.03966  1.0000
  H   H576      1.0  0.38840  0.62440  0.94003  1.0000
  H   H577      1.0  0.39872  0.63594  0.98686  1.0000
  H   H578      1.0  0.36701  0.61958  0.10027  1.0000
  H   H579      1.0  0.35715  0.60718  0.05445  1.0000
  C   C713      1.0  0.44368  0.73085  0.07677  1.0000
  C   C714      1.0  0.44816  0.72042  0.08445  1.0000
  C   C715      1.0  0.44272  0.70947  0.07412  1.0000
  C   C716      1.0  0.43269  0.70882  0.05591  1.0000
  C   C717      1.0  0.42831  0.71928  0.04784  1.0000
  C   C718      1.0  0.43372  0.73020  0.05823  1.0000
  H   H580      1.0  0.45586  0.72078  0.09875  1.0000
  H   H581      1.0  0.44624  0.70154  0.08051  1.0000
  H   H582      1.0  0.42062  0.71888  0.03367  1.0000
  H   H583      1.0  0.43000  0.73800  0.05314  1.0000
  H   H584      1.0  0.36173  0.57221  0.08321  1.0000
  H   H585      1.0  0.37205  0.59162  0.87463  1.0000
  C   C719      1.0  0.48109  0.52623  0.03342  1.0000
  H   H586      1.0  0.36854  0.59389  0.79783  1.0000
  H   H587      1.0  0.43886  0.63001  0.67353  1.0000
  H   H588      1.0  0.44037  0.66338  0.71521  1.0000
  H   H589      1.0  0.44821  0.65242  0.66010  1.0000
  H   H590      1.0  0.39967  0.67549  0.09361  1.0000
  H   H591      1.0  0.42361  0.65213  0.78365  1.0000
  C   C720      1.0  0.49657  0.53090  0.96237  1.0000
  C   C721      1.0  0.50043  0.60756  0.05411  1.0000
  H   H592      1.0  0.49792  0.61024  0.96722  1.0000
  H   H593      1.0  0.41770  0.59197  0.67687  1.0000
  H   H594      1.0  0.43026  0.52952  0.33133  1.0000
  H   H595      1.0  0.49852  0.53935  0.01688  1.0000
  C   C722      1.0  0.50264  0.54877  0.81919  1.0000
  C   C723      1.0  0.48850  0.64654  0.95597  1.0000
  C   C724      1.0  0.41155  0.54564  0.08209  1.0000
  H   H596      1.0  0.38663  0.57241  0.75691  1.0000
  C   C725      1.0  0.50544  0.58388  0.82594  1.0000
  C   C726      1.0  0.35647  0.72298  0.16641  1.0000
  H   H597      1.0  0.39333  0.52406  0.41918  1.0000
  H   H598      1.0  0.36364  0.52840  0.59220  1.0000
  H   H599      1.0  0.48188  0.53425  0.73708  1.0000
  H   H600      1.0  0.50026  0.65991  0.15450  1.0000
  H   H601      1.0  0.44579  0.56430  0.45144  1.0000
  H   H602      1.0  0.43179  0.62810  0.45592  1.0000
  C   C727      1.0  0.35744  0.53890  0.63682  1.0000
  C   C728      1.0  0.48680  0.63473  0.49994  1.0000
  C   C729      1.0  0.34847  0.53895  0.67417  1.0000
  H   H603      1.0  0.40679  0.59744  0.37201  1.0000
  C   C730      1.0  0.50010  0.62932  0.84584  1.0000
  H   H604      1.0  0.46670  0.57576  0.49927  1.0000
  H   H605      1.0  0.45560  0.52897  0.88530  1.0000
  H   H606      1.0  0.40858  0.70464  0.14977  1.0000
  S   S126      1.0  0.49978  0.56197  0.10903  1.0000
  C   C731      1.0  0.36507  0.52480  0.92104  1.0000
  C   C732      1.0  0.38099  0.71354  0.00322  1.0000
  C   C733      1.0  0.45219  0.55933  0.44055  1.0000
  H   H607      1.0  0.48776  0.67052  0.30712  1.0000
  C   C734      1.0  0.36560  0.59260  0.15837  1.0000
  C   C735      1.0  0.35967  0.58039  0.18385  1.0000
  C   C736      1.0  0.36573  0.57356  0.20893  1.0000
  C   C737      1.0  0.37769  0.57892  0.20870  1.0000
  C   C738      1.0  0.38347  0.59141  0.18530  1.0000
  C   C739      1.0  0.37748  0.59810  0.15882  1.0000
  P   P20       1.0  0.39887  0.59846  0.18539  1.0000
  C   C740      1.0  0.40274  0.59040  0.23445  1.0000
  C   C741      1.0  0.40861  0.59824  0.13248  1.0000
  C   C742      1.0  0.41197  0.58749  0.12853  1.0000
  C   C743      1.0  0.41980  0.58739  0.08800  1.0000
  C   C744      1.0  0.42415  0.59797  0.05090  1.0000
  C   C745      1.0  0.42044  0.60854  0.05399  1.0000
  C   C746      1.0  0.41263  0.60868  0.09450  1.0000
  C   C747      1.0  0.41456  0.58924  0.23093  1.0000
  C   C748      1.0  0.41740  0.58277  0.26886  1.0000
  C   C749      1.0  0.40856  0.57767  0.31077  1.0000
  C   C750      1.0  0.39693  0.57923  0.31501  1.0000
  C   C751      1.0  0.39407  0.58575  0.27720  1.0000
  C   C752      1.0  0.40114  0.61400  0.19096  1.0000
  C   C753      1.0  0.39127  0.61829  0.20804  1.0000
  C   C754      1.0  0.39329  0.63020  0.21406  1.0000
  C   C755      1.0  0.40515  0.63775  0.20416  1.0000
  C   C756      1.0  0.41499  0.63342  0.18808  1.0000
  C   C757      1.0  0.41302  0.62162  0.18137  1.0000
  H   H608      1.0  0.36100  0.59767  0.13763  1.0000
  C   C758      1.0  0.44291  0.52702  0.54800  1.0000
  H   H609      1.0  0.36135  0.56390  0.22677  1.0000
  H   H610      1.0  0.38244  0.57317  0.22598  1.0000
  H   H611      1.0  0.38202  0.60753  0.13829  1.0000
  H   H612      1.0  0.40856  0.57918  0.15689  1.0000
  H   H613      1.0  0.42240  0.57906  0.08557  1.0000
  H   H614      1.0  0.43033  0.59798  0.01964  1.0000
  H   H615      1.0  0.42359  0.61667  0.02501  1.0000
  H   H616      1.0  0.40976  0.61694  0.09606  1.0000
  H   H617      1.0  0.42156  0.59317  0.19887  1.0000
  H   H618      1.0  0.42640  0.58149  0.26544  1.0000
  H   H619      1.0  0.41056  0.57222  0.33970  1.0000
  H   H620      1.0  0.39001  0.57500  0.34729  1.0000
  H   H621      1.0  0.38501  0.58686  0.28109  1.0000
  H   H622      1.0  0.38203  0.61253  0.21658  1.0000
  H   H623      1.0  0.38564  0.63361  0.22582  1.0000
  H   H624      1.0  0.40673  0.64704  0.20812  1.0000
  H   H625      1.0  0.42420  0.63929  0.17982  1.0000
  H   H626      1.0  0.42080  0.61849  0.16855  1.0000
  H   H627      1.0  0.44435  0.56231  0.74005  1.0000
  C   C759      1.0  0.43122  0.60461  0.87082  1.0000
  C   C760      1.0  0.42596  0.60105  0.91795  1.0000
  C   C761      1.0  0.41639  0.60548  0.93604  1.0000
  C   C762      1.0  0.41183  0.61316  0.90697  1.0000
  C   C763      1.0  0.41695  0.61671  0.85942  1.0000
  C   C764      1.0  0.42679  0.61243  0.84169  1.0000
  P   P21       1.0  0.41014  0.62563  0.82179  1.0000
  C   C765      1.0  0.39743  0.61511  0.81311  1.0000
  C   C766      1.0  0.40408  0.63620  0.84886  1.0000
  C   C767      1.0  0.39298  0.63834  0.84414  1.0000
  C   C768      1.0  0.38826  0.64644  0.86543  1.0000
  C   C769      1.0  0.39466  0.65262  0.89094  1.0000
  C   C770      1.0  0.40576  0.65067  0.89526  1.0000
  C   C771      1.0  0.41042  0.64242  0.87470  1.0000
  C   C772      1.0  0.39517  0.61660  0.76987  1.0000
  C   C773      1.0  0.38482  0.60890  0.76434  1.0000
  C   C774      1.0  0.37660  0.59979  0.80196  1.0000
  C   C775      1.0  0.37864  0.59843  0.84519  1.0000
  C   C776      1.0  0.38898  0.60606  0.85084  1.0000
  C   C777      1.0  0.42151  0.63434  0.76853  1.0000
  C   C778      1.0  0.42578  0.62832  0.73632  1.0000
  C   C779      1.0  0.43531  0.63483  0.69728  1.0000
  C   C780      1.0  0.44059  0.64745  0.68969  1.0000
  C   C781      1.0  0.43618  0.65361  0.72074  1.0000
  C   C782      1.0  0.42664  0.64713  0.75980  1.0000
  H   H628      1.0  0.43875  0.60130  0.85656  1.0000
  H   H629      1.0  0.42939  0.59497  0.94035  1.0000
  H   H630      1.0  0.41238  0.60291  0.97259  1.0000
  H   H631      1.0  0.40422  0.61621  0.92176  1.0000
  H   H632      1.0  0.43109  0.61494  0.80547  1.0000
  H   H633      1.0  0.38782  0.63364  0.82474  1.0000
  H   H634      1.0  0.37955  0.64778  0.86274  1.0000
  H   H635      1.0  0.39097  0.65878  0.90796  1.0000
  H   H636      1.0  0.41067  0.65541  0.91534  1.0000
  H   H637      1.0  0.41892  0.64088  0.87927  1.0000
  H   H638      1.0  0.40120  0.62384  0.74060  1.0000
  H   H639      1.0  0.38310  0.61003  0.73099  1.0000
  H   H640      1.0  0.45463  0.63046  0.02243  1.0000
  C   C783      1.0  0.46097  0.53451  0.90198  1.0000
  C   C784      1.0  0.45395  0.59915  0.47173  1.0000
  Fe  Fe66      1.0  0.39230  0.53888  0.31820  1.0000
  C   C785      1.0  0.45513  0.62585  0.99538  1.0000
  H   H641      1.0  0.44279  0.63424  0.96611  1.0000
  H   H642      1.0  0.39073  0.58805  0.02862  1.0000
  H   H643      1.0  0.44227  0.53986  0.75791  1.0000
  C   C786      1.0  0.45526  0.63283  0.52639  1.0000
  H   H644      1.0  0.41728  0.61324  0.27064  1.0000
  C   C787      1.0  0.44836  0.62793  0.96391  1.0000
  H   H645      1.0  0.47470  0.57083  0.11486  1.0000
  H   H646      1.0  0.45754  0.58003  0.11358  1.0000
  H   H647      1.0  0.46854  0.61721  0.01381  1.0000
  H   H648      1.0  0.38151  0.57562  0.91676  1.0000
  C   C788      1.0  0.39935  0.71907  0.14549  1.0000
  C   C789      1.0  0.44980  0.54605  0.76413  1.0000
  H   H649      1.0  0.47621  0.56830  0.78857  1.0000
  C   C790      1.0  0.46495  0.58241  0.08297  1.0000
  C   C791      1.0  0.46284  0.61824  0.99085  1.0000
  C   C792      1.0  0.42897  0.64997  0.36297  1.0000
  C   C793      1.0  0.42481  0.61731  0.28282  1.0000
  H   H650      1.0  0.43194  0.60148  0.28820  1.0000
  C   C794      1.0  0.47453  0.57708  0.08362  1.0000
  C   C795      1.0  0.46484  0.59060  0.04279  1.0000
  H   H651      1.0  0.45719  0.59440  0.04291  1.0000
  P   P22       1.0  0.43318  0.53759  0.47893  1.0000
  H   H652      1.0  0.46117  0.57648  0.75631  1.0000
  C   C796      1.0  0.37692  0.53804  0.04706  1.0000
  C   C797      1.0  0.46897  0.56200  0.78148  1.0000
  C   C798      1.0  0.43299  0.61065  0.29271  1.0000
  H   H653      1.0  0.42928  0.68098  0.15776  1.0000
  H   H654      1.0  0.42006  0.63433  0.28024  1.0000
  S   S127      1.0  0.37413  0.52716  0.70514  1.0000
  C   C799      1.0  0.48363  0.57936  0.04343  1.0000
  C   C800      1.0  0.46343  0.61225  0.95600  1.0000
  C   C801      1.0  0.44921  0.62232  0.92822  1.0000
  H   H655      1.0  0.44438  0.62444  0.90269  1.0000
  C   C802      1.0  0.46045  0.56667  0.76322  1.0000
  C   C803      1.0  0.42644  0.62926  0.28826  1.0000
  C   C804      1.0  0.47438  0.59349  0.00287  1.0000
  C   C805      1.0  0.45672  0.61452  0.92412  1.0000
  H   H656      1.0  0.49081  0.57487  0.04345  1.0000
  C   C806      1.0  0.43073  0.67499  0.18702  1.0000
  C   C807      1.0  0.43568  0.66528  0.18140  1.0000
  H   H657      1.0  0.42416  0.68472  0.23431  1.0000
  H   H658      1.0  0.43817  0.66378  0.14783  1.0000
  C   C808      1.0  0.48347  0.58734  0.00306  1.0000
  P   P23       1.0  0.47374  0.60283  0.94934  1.0000
  C   C809      1.0  0.48921  0.62049  0.87165  1.0000
  C   C810      1.0  0.42669  0.75570  0.95628  1.0000
  C   C811      1.0  0.37586  0.75274  0.07617  1.0000
  C   C812      1.0  0.42783  0.67706  0.23019  1.0000
  C   C813      1.0  0.44265  0.61582  0.30857  1.0000
  H   H659      1.0  0.44899  0.61062  0.31585  1.0000
  H   H660      1.0  0.43976  0.66765  0.36485  1.0000
  H   H661      1.0  0.49045  0.58868  0.97195  1.0000
  C   C814      1.0  0.48822  0.61347  0.91572  1.0000
  H   H662      1.0  0.45762  0.61065  0.89514  1.0000
  H   H663      1.0  0.43252  0.60268  0.60282  1.0000
  H   H664      1.0  0.36110  0.57742  0.75909  1.0000
  H   H665      1.0  0.35126  0.57406  0.84196  1.0000
  S   S128      1.0  0.40296  0.52826  0.67319  1.0000
  C   C815      1.0  0.43767  0.65762  0.21884  1.0000
  C   C816      1.0  0.42992  0.66945  0.26770  1.0000
  C   C817      1.0  0.43634  0.63466  0.30325  1.0000
  H   H666      1.0  0.42687  0.66729  0.43916  1.0000
  H   H667      1.0  0.50663  0.61996  0.13639  1.0000
  C   C818      1.0  0.40025  0.53734  0.08830  1.0000
  H   H668      1.0  0.44699  0.56732  0.55931  1.0000
  C   C819      1.0  0.46899  0.55998  0.59232  1.0000
  C   C820      1.0  0.41103  0.55988  0.45659  1.0000
  H   H669      1.0  0.36781  0.72234  0.10408  1.0000
  H   H670      1.0  0.40546  0.72995  0.05416  1.0000
  H   H671      1.0  0.42737  0.73794  0.17396  1.0000
  C   C821      1.0  0.41938  0.73258  0.16736  1.0000
  C   C822      1.0  0.45821  0.54132  0.78300  1.0000
  H   H672      1.0  0.47082  0.59584  0.44226  1.0000
  H   H673      1.0  0.41228  0.61278  0.48293  1.0000
  C   C823      1.0  0.43477  0.65959  0.26228  1.0000
  C   C824      1.0  0.44444  0.62781  0.31338  1.0000
  C   C825      1.0  0.43186  0.65982  0.38234  1.0000
  H   H674      1.0  0.44163  0.65022  0.21388  1.0000
  H   H675      1.0  0.42786  0.67140  0.30051  1.0000
  H   H676      1.0  0.44982  0.58644  0.96092  1.0000
  C   C826      1.0  0.41438  0.64964  0.44757  1.0000
  C   C827      1.0  0.40880  0.58951  0.56519  1.0000
  C   C828      1.0  0.42458  0.65965  0.42444  1.0000
  H   H677      1.0  0.45235  0.63171  0.32373  1.0000
  H   H678      1.0  0.45680  0.53140  0.79235  1.0000
  C   C829      1.0  0.46856  0.59140  0.92122  1.0000
  H   H679      1.0  0.49207  0.56445  0.73710  1.0000
  C   C830      1.0  0.46241  0.59230  0.46911  1.0000
  H   H680      1.0  0.40811  0.53063  0.78904  1.0000
  P   P24       1.0  0.43858  0.65026  0.30890  1.0000
  H   H681      1.0  0.45931  0.66925  0.23967  1.0000
  H   H682      1.0  0.40120  0.69757  0.08375  1.0000
  C   C831      1.0  0.46189  0.56413  0.62447  1.0000
  C   C832      1.0  0.47794  0.52794  0.81067  1.0000
  H   H683      1.0  0.47821  0.52764  0.06658  1.0000
  C   C833      1.0  0.46805  0.54931  0.79086  1.0000
  C   C834      1.0  0.43328  0.75426  0.91581  1.0000
  C   C835      1.0  0.47040  0.65779  0.34607  1.0000
  C   C836      1.0  0.48086  0.53900  0.23005  1.0000
  H   H684      1.0  0.40875  0.64951  0.48025  1.0000
  H   H685      1.0  0.41947  0.52888  0.94254  1.0000
  H   H686      1.0  0.34937  0.54695  0.68762  1.0000
  C   C837      1.0  0.42742  0.52575  0.36821  1.0000
  C   C838      1.0  0.49195  0.63869  0.98872  1.0000
  C   C839      1.0  0.46217  0.66609  0.26995  1.0000
  C   C840      1.0  0.36308  0.53372  0.94362  1.0000
  H   H687      1.0  0.46473  0.55245  0.58014  1.0000
  C   C841      1.0  0.40454  0.75698  0.25360  1.0000
  H   H688      1.0  0.45601  0.60804  0.44719  1.0000
  H   H689      1.0  0.38300  0.65958  0.15453  1.0000
  C   C842      1.0  0.39161  0.58217  0.00589  1.0000
  C   C843      1.0  0.36143  0.71443  0.23598  1.0000
  P   P25       1.0  0.38649  0.71081  0.13007  1.0000
  C   C844      1.0  0.45416  0.65688  0.30816  1.0000
  C   C845      1.0  0.40033  0.58366  0.60754  1.0000
  H   H690      1.0  0.36786  0.66599  0.20645  1.0000
  C   C846      1.0  0.41823  0.76255  0.95534  1.0000
  C   C847      1.0  0.44899  0.57620  0.53473  1.0000
  C   C848      1.0  0.46003  0.58092  0.50099  1.0000
  C   C849      1.0  0.42140  0.53393  0.03829  1.0000
  H   H691      1.0  0.48812  0.64460  0.49375  1.0000
  H   H692      1.0  0.35058  0.57604  0.18254  1.0000
  C   C850      1.0  0.42461  0.60226  0.46251  1.0000
  C   C851      1.0  0.41865  0.63998  0.38629  1.0000
  H   H693      1.0  0.42605  0.71660  0.16884  1.0000
  C   C852      1.0  0.45309  0.64300  0.49935  1.0000
  C   C853      1.0  0.41036  0.55423  0.90213  1.0000
  H   H694      1.0  0.39741  0.74991  0.24919  1.0000
  C   C854      1.0  0.39883  0.57404  0.01052  1.0000
  C   C855      1.0  0.44866  0.54643  0.44936  1.0000
  H   H695      1.0  0.35106  0.72784  0.14897  1.0000
  C   C856      1.0  0.35578  0.53783  0.05821  1.0000
  S   S129      1.0  0.38481  0.54496  0.38081  1.0000
  H   H696      1.0  0.50075  0.63470  0.81177  1.0000
  C   C857      1.0  0.39312  0.67825  0.11664  1.0000
  H   H697      1.0  0.40482  0.57133  0.49716  1.0000
  C   C858      1.0  0.37656  0.52637  0.89266  1.0000
  H   H698      1.0  0.45240  0.64558  0.37574  1.0000
  H   H699      1.0  0.37150  0.70299  0.07225  1.0000
  C   C859      1.0  0.39397  0.56723  0.94606  1.0000
  C   C860      1.0  0.47026  0.54031  0.12495  1.0000
  C   C861      1.0  0.47462  0.54848  0.94654  1.0000
  C   C862      1.0  0.45835  0.65284  0.34634  1.0000
  C   C863      1.0  0.35643  0.52846  0.62022  1.0000
  H   H700      1.0  0.49108  0.65031  0.10261  1.0000
  C   C864      1.0  0.42012  0.53821  0.92412  1.0000
  C   C865      1.0  0.47420  0.67109  0.26991  1.0000
  H   H701      1.0  0.43972  0.54718  0.11731  1.0000
  H   H702      1.0  0.40343  0.63212  0.44630  1.0000
  H   H703      1.0  0.48003  0.55373  0.96399  1.0000
  H   H704      1.0  0.41544  0.56526  0.55600  1.0000
  C   C866      1.0  0.41503  0.60762  0.45925  1.0000
  C   C867      1.0  0.38317  0.54447  0.47060  1.0000
  H   H705      1.0  0.40623  0.58810  0.53492  1.0000
  C   C868      1.0  0.39206  0.57503  0.77925  1.0000
  H   H706      1.0  0.45110  0.61313  0.54854  1.0000
  H   H707      1.0  0.41204  0.55331  0.09727  1.0000
  C   C869      1.0  0.42048  0.59665  0.56260  1.0000
  C   C870      1.0  0.37524  0.67294  0.18021  1.0000
  H   H708      1.0  0.45813  0.65227  0.49764  1.0000
  H   H709      1.0  0.48649  0.59335  0.87916  1.0000
  C   C871      1.0  0.45259  0.57420  0.91899  1.0000
  H   H710      1.0  0.41618  0.63230  0.37212  1.0000
  C   C872      1.0  0.38538  0.58266  0.97220  1.0000
  H   H711      1.0  0.37967  0.58885  0.96915  1.0000
  P   P26       1.0  0.47840  0.54311  0.81831  1.0000
  H   H712      1.0  0.43203  0.57922  0.56363  1.0000
  C   C873      1.0  0.40015  0.56670  0.98031  1.0000
  H   H713      1.0  0.39333  0.75094  0.95771  1.0000
  C   C874      1.0  0.35452  0.54526  0.16663  1.0000
  H   H714      1.0  0.39219  0.53893  0.10747  1.0000
  H   H715      1.0  0.47561  0.54261  0.39592  1.0000
  H   H716      1.0  0.45216  0.55985  0.63726  1.0000
  C   C875      1.0  0.46734  0.57387  0.64011  1.0000
  C   C876      1.0  0.41140  0.63983  0.42846  1.0000
  H   H717      1.0  0.41067  0.74725  0.16192  1.0000
  C   C877      1.0  0.40666  0.59028  0.79737  1.0000
  H   H718      1.0  0.49848  0.63399  0.97714  1.0000
  Fe  Fe67      1.0  0.44548  0.76260  0.08602  1.0000
  H   H719      1.0  0.46192  0.63424  0.54571  1.0000
  C   C878      1.0  0.44288  0.59450  0.50573  1.0000
  C   C879      1.0  0.48155  0.56553  0.57608  1.0000
  P   P27       1.0  0.39661  0.55901  0.90330  1.0000
  C   C880      1.0  0.37332  0.71380  0.16275  1.0000
  C   C881      1.0  0.36601  0.71977  0.14089  1.0000
  Fe  Fe68      1.0  0.38845  0.53126  0.63846  1.0000
  H   H720      1.0  0.37682  0.70705  0.22783  1.0000
  C   C882      1.0  0.44045  0.58296  0.53705  1.0000
  H   H721      1.0  0.36500  0.51929  0.42536  1.0000
  C   C883      1.0  0.35463  0.52337  0.48326  1.0000
  S   S130      1.0  0.38741  0.52157  0.58219  1.0000
  C   C884      1.0  0.49821  0.56194  0.75657  1.0000
  C   C885      1.0  0.41020  0.56491  0.49378  1.0000
  C   C886      1.0  0.44016  0.61890  0.50398  1.0000
  H   H722      1.0  0.34272  0.52001  0.08714  1.0000
  C   C887      1.0  0.38644  0.57513  0.94269  1.0000
  C   C888      1.0  0.44200  0.51964  0.59133  1.0000
  H   H723      1.0  0.37331  0.73740  0.96331  1.0000
  H   H724      1.0  0.38490  0.55732  0.82762  1.0000
  C   C889      1.0  0.49788  0.63417  0.11563  1.0000
  S   S131      1.0  0.49800  0.62446  0.28759  1.0000
  H   H725      1.0  0.48044  0.67792  0.23983  1.0000
  C   C890      1.0  0.47264  0.54223  0.87791  1.0000
  H   H726      1.0  0.40632  0.56243  0.43110  1.0000
  C   C891      1.0  0.44896  0.62085  0.52830  1.0000
  C   C892      1.0  0.46954  0.54795  0.08471  1.0000
  C   C893      1.0  0.38400  0.53966  0.51514  1.0000
  C   C894      1.0  0.39853  0.72532  0.04051  1.0000
  S   S132      1.0  0.49535  0.59240  0.75767  1.0000
  C   C895      1.0  0.45627  0.53362  0.94807  1.0000
  C   C896      1.0  0.44456  0.64119  0.47425  1.0000
  H   H727      1.0  0.39289  0.73531  0.14412  1.0000
  Fe  Fe69      1.0  0.38923  0.52572  0.73875  1.0000
  P   P28       1.0  0.43188  0.60326  0.50816  1.0000
  C   C897      1.0  0.39796  0.56975  0.84970  1.0000
  H   H728      1.0  0.44979  0.58746  0.19400  1.0000
  H   H729      1.0  0.44320  0.56867  0.93066  1.0000
  H   H730      1.0  0.39498  0.53768  0.86576  1.0000
  C   C898      1.0  0.45594  0.60424  0.13879  1.0000
  C   C899      1.0  0.43814  0.62920  0.47633  1.0000
  C   C900      1.0  0.38772  0.52892  0.52557  1.0000
  H   H731      1.0  0.48829  0.55563  0.88281  1.0000
  C   C901      1.0  0.41764  0.55127  0.45281  1.0000
  C   C902      1.0  0.46685  0.54685  0.29645  1.0000
  C   C903      1.0  0.41616  0.56148  0.52688  1.0000
  H   H732      1.0  0.50126  0.58854  0.41284  1.0000
  H   H733      1.0  0.47369  0.65435  0.37502  1.0000
  C   C904      1.0  0.46312  0.54053  0.97046  1.0000
  C   C905      1.0  0.47833  0.66690  0.30783  1.0000
  C   C906      1.0  0.38658  0.53892  0.43565  1.0000
  S   S133      1.0  0.40566  0.52772  0.31247  1.0000
  H   H734      1.0  0.44743  0.52732  0.96666  1.0000
  H   H735      1.0  0.37058  0.55141  0.95291  1.0000
  S   S134      1.0  0.38160  0.52978  0.27576  1.0000
  C   C907      1.0  0.42212  0.54396  0.05697  1.0000
  C   C908      1.0  0.43235  0.52824  0.53485  1.0000
  C   C909      1.0  0.42757  0.59509  0.43291  1.0000
  C   C910      1.0  0.40870  0.71379  0.15330  1.0000
  H   H736      1.0  0.49232  0.64770  0.91986  1.0000
  C   C911      1.0  0.47498  0.65111  0.01620  1.0000
  C   C912      1.0  0.40352  0.58455  0.64771  1.0000
  C   C913      1.0  0.37349  0.52519  0.06618  1.0000
  C   C914      1.0  0.39112  0.56643  0.81983  1.0000
  H   H737      1.0  0.39001  0.74641  0.04059  1.0000
  C   C915      1.0  0.46104  0.57105  0.88794  1.0000
  C   C916      1.0  0.42096  0.52222  0.56620  1.0000
  C   C917      1.0  0.46408  0.56610  0.41613  1.0000
  C   C918      1.0  0.40547  0.58188  0.83868  1.0000
  H   H738      1.0  0.42960  0.53251  0.01923  1.0000
  H   H739      1.0  0.45184  0.53182  0.52533  1.0000
  H   H740      1.0  0.39708  0.57950  0.68030  1.0000
  C   C919      1.0  0.45755  0.59487  0.17169  1.0000
  H   H741      1.0  0.42269  0.57138  0.85588  1.0000
  H   H742      1.0  0.44689  0.60422  0.13561  1.0000
  H   H743      1.0  0.47057  0.58768  0.20029  1.0000
  C   C920      1.0  0.42351  0.59767  0.60331  1.0000
  C   C921      1.0  0.42375  0.54786  0.48570  1.0000
  H   H744      1.0  0.39136  0.57807  0.60956  1.0000
  H   H745      1.0  0.48359  0.56673  0.18265  1.0000
  C   C922      1.0  0.50510  0.59135  0.18784  1.0000
  C   C923      1.0  0.50513  0.62870  0.13970  1.0000
  H   H746      1.0  0.37073  0.55433  0.03118  1.0000
  C   C924      1.0  0.39991  0.58691  0.76773  1.0000
  H   H747      1.0  0.40066  0.59354  0.73616  1.0000
  H   H748      1.0  0.46431  0.62095  0.08595  1.0000
  C   C925      1.0  0.39109  0.52336  0.49067  1.0000
  H   H749      1.0  0.38635  0.54327  0.03481  1.0000
  H   H750      1.0  0.47433  0.51864  0.88247  1.0000
  H   H751      1.0  0.46188  0.57715  0.66487  1.0000
  H   H752      1.0  0.49978  0.54100  0.84943  1.0000
  C   C926      1.0  0.36808  0.54435  0.04426  1.0000
  C   C927      1.0  0.46923  0.59497  0.17537  1.0000
  C   C928      1.0  0.47696  0.58823  0.88992  1.0000
  C   C929      1.0  0.38425  0.54552  0.91137  1.0000
  C   C930      1.0  0.47779  0.61414  0.11452  1.0000
  C   C931      1.0  0.42295  0.55302  0.52288  1.0000
  C   C932      1.0  0.37255  0.54422  0.93777  1.0000
  C   C933      1.0  0.46599  0.61382  0.11035  1.0000
  H   H753      1.0  0.45452  0.53049  0.43870  1.0000
  H   H754      1.0  0.47896  0.53882  0.12718  1.0000
  H   H755      1.0  0.43464  0.59053  0.43520  1.0000
  H   H756      1.0  0.45964  0.53939  0.00668  1.0000
  S   S135      1.0  0.48212  0.63423  0.59046  1.0000
  H   H757      1.0  0.44050  0.56359  0.84634  1.0000
  C   C934      1.0  0.49837  0.61534  0.93337  1.0000
  C   C935      1.0  0.47318  0.57811  0.87328  1.0000
  H   H758      1.0  0.37420  0.70896  0.98886  1.0000
  H   H759      1.0  0.42756  0.55056  0.54884  1.0000
  C   C936      1.0  0.42170  0.56204  0.87469  1.0000
  H   H760      1.0  0.42361  0.58786  0.37778  1.0000
  H   H761      1.0  0.45827  0.56305  0.87560  1.0000
  C   C937      1.0  0.37946  0.71023  0.05046  1.0000
  H   H762      1.0  0.41287  0.59938  0.78853  1.0000
  C   C938      1.0  0.41508  0.59159  0.64564  1.0000
  C   C939      1.0  0.43198  0.53265  0.39586  1.0000
  C   C940      1.0  0.47926  0.60462  0.14761  1.0000
  H   H763      1.0  0.41055  0.58482  0.86169  1.0000
  C   C941      1.0  0.42118  0.59340  0.40043  1.0000
  H   H764      1.0  0.48818  0.60457  0.15199  1.0000
  C   C942      1.0  0.38616  0.53659  0.88826  1.0000
  H   H765      1.0  0.46658  0.57606  0.40888  1.0000
  C   C943      1.0  0.43199  0.55770  0.86987  1.0000
  C   C944      1.0  0.49391  0.58242  0.19894  1.0000
  H   H766      1.0  0.40119  0.53631  0.95077  1.0000
  H   H767      1.0  0.43978  0.74888  0.91694  1.0000
  C   C945      1.0  0.39137  0.72261  0.97454  1.0000
  C   C946      1.0  0.41173  0.59881  0.39722  1.0000
  C   C947      1.0  0.39669  0.75765  0.08214  1.0000
  H   H768      1.0  0.38128  0.52202  0.16519  1.0000
  C   C948      1.0  0.48707  0.57535  0.59170  1.0000
  H   H769      1.0  0.43829  0.54175  0.37977  1.0000
  P   P29       1.0  0.46088  0.52442  0.21274  1.0000
  H   H770      1.0  0.46141  0.55021  0.32104  1.0000
  C   C949      1.0  0.40864  0.60590  0.42668  1.0000
  H   H771      1.0  0.47975  0.57568  0.84950  1.0000
  C   C950      1.0  0.40013  0.72845  0.99317  1.0000
  H   H772      1.0  0.47747  0.65896  0.94443  1.0000
  C   C951      1.0  0.48009  0.65282  0.96973  1.0000
  P   P30       1.0  0.49104  0.62645  0.07834  1.0000
  C   C952      1.0  0.38555  0.69454  0.14046  1.0000
  H   H773      1.0  0.48375  0.58688  0.63712  1.0000
  C   C953      1.0  0.48692  0.63695  0.03561  1.0000
  C   C954      1.0  0.37610  0.68551  0.17490  1.0000
  H   H774      1.0  0.40117  0.60990  0.42469  1.0000
  C   C955      1.0  0.40974  0.54243  0.92832  1.0000
  C   C956      1.0  0.47329  0.51793  0.01854  1.0000
  C   C957      1.0  0.47255  0.56012  0.40020  1.0000
  H   H775      1.0  0.48666  0.58214  0.22741  1.0000
  C   C958      1.0  0.44822  0.54508  0.11869  1.0000
  C   C959      1.0  0.38765  0.75449  0.93807  1.0000
  Fe  Fe70      1.0  0.34963  0.75409  0.05092  1.0000
  H   H776      1.0  0.40580  0.75676  0.07292  1.0000
  C   C960      1.0  0.40004  0.73109  0.14961  1.0000
  H   H777      1.0  0.35404  0.53280  0.96400  1.0000
  H   H778      1.0  0.42504  0.53243  0.82575  1.0000
  H   H779      1.0  0.49208  0.63563  0.42812  1.0000
  C   C961      1.0  0.48652  0.54726  0.25131  1.0000
  C   C962      1.0  0.47833  0.64318  0.04889  1.0000
  C   C963      1.0  0.50181  0.57361  0.13799  1.0000
  P   P31       1.0  0.38461  0.51692  0.07529  1.0000
  H   H780      1.0  0.48171  0.56549  0.38078  1.0000
  C   C964      1.0  0.39398  0.69078  0.11120  1.0000
  H   H781      1.0  0.43908  0.54224  0.88967  1.0000
  C   C965      1.0  0.39078  0.52848  0.44565  1.0000
  C   C966      1.0  0.45716  0.54043  0.43295  1.0000
  H   H782      1.0  0.41304  0.76331  0.98727  1.0000
  H   H783      1.0  0.48696  0.56211  0.55162  1.0000
  H   H784      1.0  0.36534  0.54684  0.62154  1.0000
  H   H785      1.0  0.49161  0.60115  0.07162  1.0000
  H   H786      1.0  0.36926  0.68809  0.19706  1.0000
  H   H787      1.0  0.47764  0.55216  0.05636  1.0000
  C   C967      1.0  0.38820  0.71611  0.06947  1.0000
  H   H788      1.0  0.46825  0.65577  0.02698  1.0000
  H   H789      1.0  0.40824  0.73529  0.97078  1.0000
  C   C968      1.0  0.41006  0.73784  0.16015  1.0000
  C   C969      1.0  0.50410  0.59436  0.79706  1.0000
  H   H790      1.0  0.41734  0.74614  0.25205  1.0000
  H   H791      1.0  0.44302  0.64911  0.45296  1.0000
  H   H792      1.0  0.39266  0.72505  0.93786  1.0000
  S   S136      1.0  0.36474  0.74509  0.05372  1.0000
  C   C970      1.0  0.37102  0.71126  0.21049  1.0000
  C   C971      1.0  0.37631  0.74675  0.94111  1.0000
  C   C972      1.0  0.49641  0.64564  0.12053  1.0000
  C   C973      1.0  0.38774  0.75174  0.06404  1.0000
  C   C974      1.0  0.42803  0.52804  0.44375  1.0000
  C   C975      1.0  0.38374  0.66931  0.15105  1.0000
  H   H793      1.0  0.42807  0.75135  0.98852  1.0000
  C   C976      1.0  0.41578  0.75489  0.25493  1.0000
  C   C977      1.0  0.49225  0.57364  0.17381  1.0000
  C   C978      1.0  0.49417  0.55198  0.79626  1.0000
  H   H794      1.0  0.35248  0.53636  0.86783  1.0000
  H   H795      1.0  0.40990  0.51813  0.02869  1.0000
  C   C979      1.0  0.46909  0.54726  0.40872  1.0000
  H   H796      1.0  0.45807  0.55653  0.05072  1.0000
  H   H797      1.0  0.35962  0.74535  0.92135  1.0000
  H   H798      1.0  0.49523  0.55610  0.63107  1.0000
  C   C980      1.0  0.37291  0.75958  0.10682  1.0000
  H   H799      1.0  0.35761  0.51692  0.92423  1.0000
  H   H800      1.0  0.34894  0.54274  0.05570  1.0000
  H   H801      1.0  0.34686  0.72298  0.23340  1.0000
  C   C981      1.0  0.47586  0.51770  0.84807  1.0000
  H   H802      1.0  0.34325  0.75759  0.90193  1.0000
  C   C982      1.0  0.50438  0.56025  0.63203  1.0000
  C   C983      1.0  0.50182  0.65131  0.14962  1.0000
  C   C984      1.0  0.36109  0.51869  0.08012  1.0000
  H   H803      1.0  0.49332  0.58678  0.49432  1.0000
  C   C985      1.0  0.35416  0.72030  0.21391  1.0000
  C   C986      1.0  0.46116  0.53865  0.27499  1.0000
  H   H804      1.0  0.34680  0.53753  0.18666  1.0000
  C   C987      1.0  0.41941  0.51645  0.46335  1.0000
  H   H805      1.0  0.41272  0.52336  0.55747  1.0000
  S   S137      1.0  0.34409  0.55184  0.91927  1.0000
  H   H806      1.0  0.43638  0.75838  0.84281  1.0000
  C   C988      1.0  0.43138  0.75965  0.87414  1.0000
  C   C989      1.0  0.41826  0.52365  0.83410  1.0000
  H   H807      1.0  0.35976  0.71255  0.27274  1.0000
  C   C990      1.0  0.40863  0.52266  0.81341  1.0000
  H   H808      1.0  0.37801  0.51974  0.87359  1.0000
  H   H809      1.0  0.35345  0.53164  0.46262  1.0000
  C   C991      1.0  0.48890  0.52244  0.94762  1.0000
  C   C992      1.0  0.34993  0.51985  0.53080  1.0000
  C   C993      1.0  0.42517  0.76429  0.25803  1.0000
  H   H810      1.0  0.43404  0.76284  0.25741  1.0000
  H   H811      1.0  0.34487  0.52535  0.54655  1.0000
  H   H812      1.0  0.50521  0.59112  0.65334  1.0000
  C   C994      1.0  0.44886  0.53718  0.15848  1.0000
  C   C995      1.0  0.34634  0.51804  0.64044  1.0000
  P   P32       1.0  0.50340  0.58192  0.57328  1.0000
  C   C996      1.0  0.50207  0.58520  0.48289  1.0000
  H   H813      1.0  0.45134  0.53591  0.28278  1.0000
  C   C997      1.0  0.47723  0.51595  0.97576  1.0000
  C   C998      1.0  0.36114  0.51638  0.46216  1.0000
  C   C999      1.0  0.45984  0.53457  0.16163  1.0000
  H   H814      1.0  0.50154  0.52245  0.16439  1.0000
  C   C1000     1.0  0.50701  0.59735  0.58053  1.0000
  H   H815      1.0  0.48642  0.53652  0.20289  1.0000
  H   H816      1.0  0.48392  0.55800  0.29944  1.0000
  C   C1001     1.0  0.47953  0.55121  0.28441  1.0000
  C   C1002     1.0  0.37207  0.76357  0.89164  1.0000
  H   H817      1.0  0.50531  0.54359  0.67683  1.0000
  C   C1003     1.0  0.50704  0.59899  0.62409  1.0000
  C   C1004     1.0  0.50653  0.58616  0.43651  1.0000
  C   C1005     1.0  0.46814  0.53447  0.24232  1.0000
  S   S138      1.0  0.50788  0.60231  0.21910  1.0000
  C   C1006     1.0  0.39369  0.76428  0.11354  1.0000
  H   H818      1.0  0.44080  0.53331  0.18694  1.0000
  H   H819      1.0  0.49633  0.55108  0.24043  1.0000
  C   C1007     1.0  0.38178  0.76521  0.12591  1.0000
  H   H820      1.0  0.50808  0.59319  0.03692  1.0000
  H   H821      1.0  0.37705  0.51676  0.99035  1.0000
  S   S139      1.0  0.44630  0.79847  0.95200  1.0000
  Fe  Fe71      1.0  0.42226  0.92747  0.02704  1.0000
  S   S140      1.0  0.42600  0.94187  0.96024  1.0000
  S   S141      1.0  0.40543  0.92410  0.08402  1.0000
  Fe  Fe72      1.0  0.44552  0.92109  0.99767  1.0000
  S   S142      1.0  0.45116  0.93485  0.92884  1.0000
  S   S143      1.0  0.45561  0.90740  0.01909  1.0000
  Fe  Fe73      1.0  0.44507  0.94795  0.96783  1.0000
  S   S144      1.0  0.45702  0.96819  0.94907  1.0000
  Fe  Fe74      1.0  0.43171  0.92757  0.92728  1.0000
  S   S145      1.0  0.42604  0.92391  0.86329  1.0000
  S   S146      1.0  0.44070  0.93441  0.03681  1.0000
  S   S147      1.0  0.42668  0.91300  0.99392  1.0000
  Fe  Fe75      1.0  0.40312  0.84410  0.26359  1.0000
  C   C1008     1.0  0.39378  0.78858  0.30277  1.0000
  S   S148      1.0  0.42274  0.84549  0.23303  1.0000
  C   C1009     1.0  0.45917  0.90914  0.16383  1.0000
  H   H822      1.0  0.44487  0.95195  0.11295  1.0000
  H   H823      1.0  0.45930  0.83020  0.97162  1.0000
  S   S149      1.0  0.43621  0.79275  0.07912  1.0000
  C   C1010     1.0  0.49630  0.83209  0.03297  1.0000
  S   S150      1.0  0.39596  0.85642  0.30263  1.0000
  H   H824      1.0  0.46071  0.89056  0.87175  1.0000
  Fe  Fe76      1.0  0.37514  0.84837  0.74920  1.0000
  S   S151      1.0  0.37895  0.86729  0.70098  1.0000
  H   H825      1.0  0.44221  0.91873  0.26686  1.0000
  Fe  Fe77      1.0  0.40127  0.84852  0.72365  1.0000
  S   S152      1.0  0.40710  0.86712  0.67258  1.0000
  S   S153      1.0  0.41450  0.83811  0.74130  1.0000
  Fe  Fe78      1.0  0.39540  0.87256  0.72791  1.0000
  S   S154      1.0  0.40185  0.89118  0.74407  1.0000
  Fe  Fe79      1.0  0.39031  0.86017  0.64958  1.0000
  S   S155      1.0  0.39117  0.86496  0.57206  1.0000
  S   S156      1.0  0.39049  0.85421  0.77962  1.0000
  S   S157      1.0  0.38553  0.84099  0.69705  1.0000
  Fe  Fe80      1.0  0.47728  0.83386  0.33437  1.0000
  S   S158      1.0  0.48300  0.85197  0.28041  1.0000
  S   S159      1.0  0.46953  0.81480  0.32465  1.0000
  Fe  Fe81      1.0  0.48426  0.84647  0.40915  1.0000
  S   S160      1.0  0.49038  0.86549  0.36005  1.0000
  S   S161      1.0  0.48356  0.84134  0.48572  1.0000
  Fe  Fe82      1.0  0.47382  0.85913  0.33605  1.0000
  S   S162      1.0  0.46029  0.87006  0.32913  1.0000
  Fe  Fe83      1.0  0.49900  0.85670  0.30884  1.0000
  C   C1011     1.0  0.39097  0.78252  0.98425  1.0000
  S   S163      1.0  0.46694  0.84076  0.38840  1.0000
  S   S164      1.0  0.49407  0.83798  0.35935  1.0000
  Fe  Fe84      1.0  0.49229  0.85494  0.78494  1.0000
  C   C1012     1.0  0.41144  0.91709  0.23158  1.0000
  S   S165      1.0  0.49483  0.83670  0.81921  1.0000
  Fe  Fe85      1.0  0.47397  0.86924  0.77965  1.0000
  S   S166      1.0  0.48746  0.88565  0.72694  1.0000
  S   S167      1.0  0.45490  0.87001  0.80843  1.0000
  Fe  Fe86      1.0  0.49334  0.87175  0.69274  1.0000
  S   S168      1.0  0.49707  0.87608  0.61452  1.0000
  Fe  Fe87      1.0  0.50024  0.88283  0.77073  1.0000
  H   H826      1.0  0.47635  0.98458  0.11171  1.0000
  S   S169      1.0  0.47892  0.85554  0.74285  1.0000
  S   S170      1.0  0.48620  0.86737  0.82597  1.0000
  C   C1013     1.0  0.48759  0.85122  0.52061  1.0000
  C   C1014     1.0  0.49384  0.86378  0.50223  1.0000
  C   C1015     1.0  0.49664  0.87125  0.53134  1.0000
  C   C1016     1.0  0.49328  0.86629  0.57916  1.0000
  C   C1017     1.0  0.48702  0.85377  0.59744  1.0000
  C   C1018     1.0  0.48423  0.84628  0.56845  1.0000
  H   H827      1.0  0.49655  0.86774  0.46558  1.0000
  C   C1019     1.0  0.41191  0.77776  0.26043  1.0000
  H   H828      1.0  0.48431  0.84993  0.63402  1.0000
  H   H829      1.0  0.47935  0.83663  0.58328  1.0000
  C   C1020     1.0  0.42559  0.84692  0.76072  1.0000
  C   C1021     1.0  0.42359  0.85686  0.77733  1.0000
  C   C1022     1.0  0.43253  0.86376  0.79290  1.0000
  C   C1023     1.0  0.44364  0.86096  0.79065  1.0000
  C   C1024     1.0  0.44557  0.85094  0.77454  1.0000
  C   C1025     1.0  0.43655  0.84392  0.75977  1.0000
  H   H830      1.0  0.41524  0.85936  0.77782  1.0000
  H   H831      1.0  0.43098  0.87150  0.80540  1.0000
  H   H832      1.0  0.45391  0.84846  0.77417  1.0000
  H   H833      1.0  0.43818  0.83630  0.74684  1.0000
  C   C1026     1.0  0.43290  0.85178  0.26177  1.0000
  C   C1027     1.0  0.44522  0.85253  0.24667  1.0000
  C   C1028     1.0  0.45354  0.85778  0.26834  1.0000
  C   C1029     1.0  0.44967  0.86263  0.30445  1.0000
  C   C1030     1.0  0.43733  0.86178  0.31993  1.0000
  C   C1031     1.0  0.42892  0.85623  0.29900  1.0000
  H   H834      1.0  0.44839  0.84888  0.21871  1.0000
  H   H835      1.0  0.46299  0.85827  0.25638  1.0000
  H   H836      1.0  0.43426  0.86550  0.34778  1.0000
  H   H837      1.0  0.41942  0.85558  0.31133  1.0000
  H   H838      1.0  0.43223  0.86766  0.14026  1.0000
  H   H839      1.0  0.38551  0.79162  0.24633  1.0000
  C   C1032     1.0  0.36267  0.80505  0.20257  1.0000
  C   C1033     1.0  0.38728  0.85631  0.53277  1.0000
  C   C1034     1.0  0.39084  0.86233  0.48556  1.0000
  C   C1035     1.0  0.38826  0.85591  0.45297  1.0000
  C   C1036     1.0  0.41059  0.79240  0.01589  1.0000
  H   H840      1.0  0.39573  0.87204  0.47403  1.0000
  C   C1037     1.0  0.42863  0.95657  0.14078  1.0000
  C   C1038     1.0  0.46164  0.97900  0.98050  1.0000
  C   C1039     1.0  0.45626  0.97697  0.02715  1.0000
  C   C1040     1.0  0.45990  0.98597  0.05004  1.0000
  H   H841      1.0  0.46640  0.95515  0.24111  1.0000
  H   H842      1.0  0.43660  0.92828  0.14267  1.0000
  H   H843      1.0  0.44914  0.96857  0.04528  1.0000
  H   H844      1.0  0.45551  0.98430  0.08590  1.0000
  C   C1041     1.0  0.41934  0.91378  0.83299  1.0000
  C   C1042     1.0  0.41757  0.91932  0.79110  1.0000
  C   C1043     1.0  0.41245  0.91217  0.76487  1.0000
  C   C1044     1.0  0.40892  0.89922  0.77942  1.0000
  C   C1045     1.0  0.41079  0.89348  0.82124  1.0000
  C   C1046     1.0  0.41590  0.90073  0.84810  1.0000
  H   H845      1.0  0.42021  0.92929  0.77860  1.0000
  H   H846      1.0  0.41127  0.91677  0.73265  1.0000
  H   H847      1.0  0.40830  0.88351  0.83276  1.0000
  H   H848      1.0  0.41739  0.89624  0.87984  1.0000
  C   C1047     1.0  0.39830  0.90955  0.12425  1.0000
  C   C1048     1.0  0.40385  0.89991  0.13029  1.0000
  C   C1049     1.0  0.39747  0.88843  0.16286  1.0000
  C   C1050     1.0  0.42176  0.95135  0.22337  1.0000
  H   H849      1.0  0.41045  0.82115  0.99855  1.0000
  C   C1051     1.0  0.38654  0.90771  0.15102  1.0000
  H   H850      1.0  0.41299  0.90135  0.11002  1.0000
  H   H851      1.0  0.40165  0.88094  0.16733  1.0000
  H   H852      1.0  0.46834  0.94975  0.31984  1.0000
  H   H853      1.0  0.38220  0.91508  0.14665  1.0000
  C   C1052     1.0  0.45967  0.80589  0.19622  1.0000
  C   C1053     1.0  0.39222  0.88845  0.35002  1.0000
  H   H854      1.0  0.48023  0.82889  0.94592  1.0000
  C   C1054     1.0  0.48048  0.87026  0.09737  1.0000
  H   H855      1.0  0.37985  0.78641  0.04100  1.0000
  H   H856      1.0  0.42036  0.91558  0.22450  1.0000
  P   P33       1.0  0.40911  0.79218  0.26659  1.0000
  C   C1055     1.0  0.42058  0.90681  0.42117  1.0000
  H   H857      1.0  0.40610  0.88923  0.23902  1.0000
  C   C1056     1.0  0.48613  0.92571  0.07282  1.0000
  C   C1057     1.0  0.48459  0.91346  0.07102  1.0000
  C   C1058     1.0  0.47534  0.90788  0.05357  1.0000
  C   C1059     1.0  0.46784  0.91463  0.03708  1.0000
  C   C1060     1.0  0.46984  0.92704  0.03677  1.0000
  C   C1061     1.0  0.47882  0.93251  0.05532  1.0000
  H   H858      1.0  0.49034  0.90821  0.08399  1.0000
  H   H859      1.0  0.47400  0.89838  0.05268  1.0000
  H   H860      1.0  0.46441  0.93244  0.02264  1.0000
  H   H861      1.0  0.48005  0.94203  0.05588  1.0000
  C   C1062     1.0  0.45908  0.79642  0.23399  1.0000
  C   C1063     1.0  0.46209  0.79930  0.27299  1.0000
  C   C1064     1.0  0.46574  0.81165  0.27477  1.0000
  C   C1065     1.0  0.46603  0.82108  0.23749  1.0000
  C   C1066     1.0  0.46303  0.81821  0.19857  1.0000
  H   H862      1.0  0.46174  0.79191  0.30173  1.0000
  H   H863      1.0  0.46852  0.83059  0.23874  1.0000
  H   H864      1.0  0.46334  0.82560  0.17002  1.0000
  C   C1067     1.0  0.46008  0.80922  0.91813  1.0000
  C   C1068     1.0  0.45970  0.82055  0.89179  1.0000
  C   C1069     1.0  0.47037  0.82911  0.86199  1.0000
  C   C1070     1.0  0.48144  0.82618  0.85719  1.0000
  C   C1071     1.0  0.48184  0.81480  0.88335  1.0000
  C   C1072     1.0  0.47120  0.80639  0.91429  1.0000
  H   H865      1.0  0.45111  0.82267  0.89426  1.0000
  H   H866      1.0  0.46998  0.83790  0.84231  1.0000
  H   H867      1.0  0.49040  0.81253  0.87988  1.0000
  H   H868      1.0  0.47153  0.79760  0.93416  1.0000
  H   H869      1.0  0.45652  0.78691  0.23284  1.0000
  H   H870      1.0  0.47270  0.78538  0.76251  1.0000
  C   C1073     1.0  0.47948  0.90017  0.24111  1.0000
  C   C1074     1.0  0.48040  0.90195  0.28343  1.0000
  H   H871      1.0  0.42161  0.80229  0.89186  1.0000
  H   H872      1.0  0.42168  0.77068  0.84031  1.0000
  H   H873      1.0  0.42380  0.93664  0.36539  1.0000
  C   C1075     1.0  0.42289  0.79318  0.32991  1.0000
  H   H874      1.0  0.47150  0.89365  0.23915  1.0000
  H   H875      1.0  0.47319  0.89670  0.31400  1.0000
  C   C1076     1.0  0.48736  0.80987  0.65254  1.0000
  C   C1077     1.0  0.47091  0.88516  0.48075  1.0000
  C   C1078     1.0  0.47358  0.87789  0.45152  1.0000
  C   C1079     1.0  0.46943  0.86504  0.46779  1.0000
  C   C1080     1.0  0.46288  0.85941  0.51337  1.0000
  C   C1081     1.0  0.46030  0.86659  0.54328  1.0000
  C   C1082     1.0  0.46414  0.87955  0.52621  1.0000
  P   P34       1.0  0.45056  0.85929  0.60066  1.0000
  C   C1083     1.0  0.43524  0.85445  0.59592  1.0000
  C   C1084     1.0  0.45438  0.84577  0.62882  1.0000
  C   C1085     1.0  0.45156  0.83483  0.61547  1.0000
  C   C1086     1.0  0.45358  0.82404  0.63902  1.0000
  C   C1087     1.0  0.45823  0.82401  0.67684  1.0000
  C   C1088     1.0  0.46090  0.83478  0.69089  1.0000
  C   C1089     1.0  0.45904  0.84562  0.66700  1.0000
  C   C1090     1.0  0.42682  0.84407  0.62829  1.0000
  C   C1091     1.0  0.41486  0.84043  0.62563  1.0000
  C   C1092     1.0  0.41123  0.84707  0.59044  1.0000
  C   C1093     1.0  0.41951  0.85749  0.55826  1.0000
  C   C1094     1.0  0.43150  0.86120  0.56088  1.0000
  C   C1095     1.0  0.45160  0.87028  0.63426  1.0000
  C   C1096     1.0  0.46304  0.87716  0.63499  1.0000
  C   C1097     1.0  0.46391  0.88585  0.66020  1.0000
  C   C1098     1.0  0.45337  0.88772  0.68491  1.0000
  C   C1099     1.0  0.44196  0.88086  0.68459  1.0000
  C   C1100     1.0  0.44107  0.87207  0.65977  1.0000
  H   H876      1.0  0.47145  0.85935  0.44535  1.0000
  H   H877      1.0  0.46003  0.84945  0.52491  1.0000
  H   H878      1.0  0.46189  0.88540  0.54770  1.0000
  H   H879      1.0  0.44746  0.83455  0.58773  1.0000
  H   H880      1.0  0.45144  0.81569  0.62813  1.0000
  H   H881      1.0  0.45968  0.81563  0.69546  1.0000
  H   H882      1.0  0.46434  0.83479  0.72052  1.0000
  H   H883      1.0  0.46111  0.85376  0.67906  1.0000
  H   H884      1.0  0.42939  0.83895  0.65640  1.0000
  H   H885      1.0  0.40833  0.83266  0.65173  1.0000
  H   H886      1.0  0.40190  0.84433  0.58878  1.0000
  H   H887      1.0  0.41649  0.86284  0.53202  1.0000
  H   H888      1.0  0.43773  0.86939  0.53601  1.0000
  H   H889      1.0  0.47130  0.87576  0.61618  1.0000
  H   H890      1.0  0.47277  0.89108  0.66064  1.0000
  H   H891      1.0  0.45402  0.89439  0.70468  1.0000
  H   H892      1.0  0.43378  0.88218  0.70429  1.0000
  H   H893      1.0  0.43217  0.86661  0.66102  1.0000
  C   C1101     1.0  0.42017  0.79988  0.29175  1.0000
  C   C1102     1.0  0.50218  0.92996  0.90939  1.0000
  H   H894      1.0  0.37065  0.80056  0.83115  1.0000
  S   S171      1.0  0.35445  0.77474  0.03231  1.0000
  C   C1103     1.0  0.49339  0.81867  0.57000  1.0000
  C   C1104     1.0  0.36649  0.79767  0.17470  1.0000
  P   P35       1.0  0.48314  0.93270  0.81307  1.0000
  C   C1105     1.0  0.47158  0.92050  0.80591  1.0000
  C   C1106     1.0  0.48796  0.92710  0.86315  1.0000
  C   C1107     1.0  0.48065  0.91646  0.89743  1.0000
  C   C1108     1.0  0.48421  0.91250  0.93697  1.0000
  H   H895      1.0  0.41846  0.78339  0.34448  1.0000
  H   H896      1.0  0.37194  0.90440  0.79946  1.0000
  C   C1109     1.0  0.34590  0.80850  0.01353  1.0000
  C   C1110     1.0  0.45928  0.91862  0.82760  1.0000
  C   C1111     1.0  0.45032  0.90920  0.82231  1.0000
  C   C1112     1.0  0.45351  0.90149  0.79572  1.0000
  C   C1113     1.0  0.46573  0.90315  0.77468  1.0000
  C   C1114     1.0  0.47475  0.91256  0.77979  1.0000
  C   C1115     1.0  0.47712  0.94558  0.81981  1.0000
  C   C1116     1.0  0.46910  0.94888  0.79466  1.0000
  C   C1117     1.0  0.46401  0.95848  0.80111  1.0000
  C   C1118     1.0  0.46704  0.96498  0.83216  1.0000
  C   C1119     1.0  0.47522  0.96195  0.85648  1.0000
  C   C1120     1.0  0.48019  0.95227  0.85059  1.0000
  Fe  Fe88      1.0  0.38232  0.83893  0.34862  1.0000
  C   C1121     1.0  0.40280  0.78291  0.96129  1.0000
  C   C1122     1.0  0.37221  0.78628  0.31071  1.0000
  C   C1123     1.0  0.38331  0.77140  0.88916  1.0000
  H   H897      1.0  0.37245  0.87842  0.45688  1.0000
  H   H898      1.0  0.47216  0.91122  0.89406  1.0000
  H   H899      1.0  0.47856  0.90423  0.96308  1.0000
  H   H900      1.0  0.37940  0.77034  0.15015  1.0000
  C   C1124     1.0  0.41328  0.90781  0.35306  1.0000
  H   H901      1.0  0.44476  0.88822  0.27872  1.0000
  H   H902      1.0  0.45655  0.92437  0.84888  1.0000
  H   H903      1.0  0.44090  0.90775  0.83948  1.0000
  H   H904      1.0  0.44656  0.89402  0.79243  1.0000
  H   H905      1.0  0.46820  0.89692  0.75522  1.0000
  H   H906      1.0  0.48414  0.91346  0.76369  1.0000
  H   H907      1.0  0.46659  0.94388  0.77067  1.0000
  H   H908      1.0  0.45757  0.96074  0.78262  1.0000
  H   H909      1.0  0.46290  0.97223  0.83818  1.0000
  H   H910      1.0  0.47740  0.96688  0.88110  1.0000
  H   H911      1.0  0.48617  0.94993  0.87105  1.0000
  C   C1125     1.0  0.47651  0.97500  0.11843  1.0000
  C   C1126     1.0  0.48688  0.97204  0.09809  1.0000
  C   C1127     1.0  0.48714  0.95975  0.10673  1.0000
  H   H912      1.0  0.41236  0.79719  0.74727  1.0000
  C   C1128     1.0  0.50539  0.97124  0.90254  1.0000
  C   C1129     1.0  0.46626  0.96560  0.14652  1.0000
  Fe  Fe89      1.0  0.44513  0.78636  0.02147  1.0000
  H   H913      1.0  0.43265  0.94275  0.26014  1.0000
  H   H914      1.0  0.49592  0.95225  0.93989  1.0000
  H   H915      1.0  0.38913  0.88086  0.29415  1.0000
  C   C1130     1.0  0.36807  0.85297  0.16075  1.0000
  H   H916      1.0  0.50372  0.97015  0.87045  1.0000
  C   C1131     1.0  0.39132  0.91311  0.28171  1.0000
  H   H917      1.0  0.47885  0.88217  0.41631  1.0000
  C   C1132     1.0  0.47697  0.95035  0.13501  1.0000
  C   C1133     1.0  0.39204  0.81776  0.58368  1.0000
  C   C1134     1.0  0.36468  0.81698  0.81656  1.0000
  C   C1135     1.0  0.40863  0.81639  0.12857  1.0000
  C   C1136     1.0  0.47869  0.83765  0.94857  1.0000
  H   H918      1.0  0.45832  0.96815  0.16162  1.0000
  H   H919      1.0  0.42171  0.78799  0.96121  1.0000
  C   C1137     1.0  0.40477  0.81960  0.16890  1.0000
  H   H920      1.0  0.43023  0.89623  0.32414  1.0000
  H   H921      1.0  0.47410  0.89514  0.46823  1.0000
  C   C1138     1.0  0.48857  0.84812  0.93718  1.0000
  C   C1139     1.0  0.42425  0.81077  0.82102  1.0000
  Fe  Fe90      1.0  0.44933  0.78690  0.11636  1.0000
  S   S172      1.0  0.45664  0.80304  0.14487  1.0000
  H   H922      1.0  0.37277  0.82780  0.52606  1.0000
  H   H923      1.0  0.46937  0.79696  0.67974  1.0000
  C   C1140     1.0  0.46634  0.95314  0.15436  1.0000
  H   H924      1.0  0.47745  0.94095  0.14091  1.0000
  Fe  Fe91      1.0  0.42434  0.77340  0.10780  1.0000
  S   S173      1.0  0.45922  0.78160  0.05582  1.0000
  H   H925      1.0  0.46606  0.81111  0.47515  1.0000
  C   C1141     1.0  0.36224  0.85170  0.95992  1.0000
  H   H926      1.0  0.49147  0.91100  0.31994  1.0000
  H   H927      1.0  0.36190  0.86360  0.42093  1.0000
  H   H928      1.0  0.44065  0.82762  0.27496  1.0000
  H   H929      1.0  0.49529  0.83099  0.24319  1.0000
  S   S174      1.0  0.37333  0.81330  0.22724  1.0000
  C   C1142     1.0  0.41246  0.82136  0.53556  1.0000
  C   C1143     1.0  0.48665  0.85934  0.94228  1.0000
  C   C1144     1.0  0.46684  0.83844  0.96314  1.0000
  H   H930      1.0  0.49431  0.86747  0.93337  1.0000
  C   C1145     1.0  0.43668  0.82179  0.47833  1.0000
  C   C1146     1.0  0.39005  0.91678  0.69103  1.0000
  H   H931      1.0  0.46576  0.90403  0.16780  1.0000
  C   C1147     1.0  0.43156  0.94644  0.22670  1.0000
  H   H932      1.0  0.37769  0.89887  0.72721  1.0000
  H   H933      1.0  0.40281  0.97099  0.79302  1.0000
  H   H934      1.0  0.41777  0.84839  0.14095  1.0000
  C   C1148     1.0  0.44293  0.92306  0.14930  1.0000
  C   C1149     1.0  0.47482  0.86010  0.95801  1.0000
  C   C1150     1.0  0.46480  0.84977  0.96675  1.0000
  P   P36       1.0  0.45304  0.94093  0.19003  1.0000
  C   C1151     1.0  0.44796  0.92555  0.27805  1.0000
  C   C1152     1.0  0.43993  0.94654  0.18697  1.0000
  H   H935      1.0  0.44448  0.91339  0.34536  1.0000
  H   H936      1.0  0.45748  0.92886  0.37216  1.0000
  C   C1153     1.0  0.39240  0.93175  0.73496  1.0000
  C   C1154     1.0  0.41653  0.76831  0.91349  1.0000
  C   C1155     1.0  0.44327  0.83239  0.07093  1.0000
  C   C1156     1.0  0.45653  0.93122  0.33765  1.0000
  H   H937      1.0  0.44824  0.85563  0.14323  1.0000
  H   H938      1.0  0.45212  0.86336  0.05982  1.0000
  C   C1157     1.0  0.45424  0.93727  0.24805  1.0000
  C   C1158     1.0  0.44920  0.92251  0.32256  1.0000
  H   H939      1.0  0.46674  0.92246  0.19618  1.0000
  C   C1159     1.0  0.49486  0.91936  0.94334  1.0000
  C   C1160     1.0  0.42546  0.86811  0.12134  1.0000
  C   C1161     1.0  0.41728  0.85722  0.12171  1.0000
  C   C1162     1.0  0.44175  0.84195  0.91924  1.0000
  H   H940      1.0  0.47356  0.86882  0.96265  1.0000
  H   H941      1.0  0.45043  0.84772  0.89643  1.0000
  H   H942      1.0  0.43556  0.83593  0.86507  1.0000
  H   H943      1.0  0.38410  0.82779  0.11923  1.0000
  H   H944      1.0  0.45292  0.80503  0.42610  1.0000
  P   P37       1.0  0.44955  0.85059  0.98827  1.0000
  C   C1163     1.0  0.44679  0.84916  0.12301  1.0000
  C   C1164     1.0  0.44875  0.85351  0.07577  1.0000
  C   C1165     1.0  0.43895  0.84121  0.96609  1.0000
  C   C1166     1.0  0.43330  0.83528  0.90125  1.0000
  H   H945      1.0  0.46090  0.86913  0.90006  1.0000
  C   C1167     1.0  0.45981  0.91975  0.17915  1.0000
  C   C1168     1.0  0.46265  0.94298  0.30820  1.0000
  C   C1169     1.0  0.46152  0.94601  0.26352  1.0000
  C   C1170     1.0  0.43842  0.95168  0.14401  1.0000
  C   C1171     1.0  0.38878  0.83165  0.04547  1.0000
  H   H946      1.0  0.38079  0.90549  0.06695  1.0000
  H   H947      1.0  0.43475  0.87980  0.41932  1.0000
  C   C1172     1.0  0.42207  0.82773  0.92986  1.0000
  H   H948      1.0  0.41563  0.82243  0.91591  1.0000
  C   C1173     1.0  0.45182  0.92695  0.17136  1.0000
  H   H949      1.0  0.37115  0.89517  0.20351  1.0000
  C   C1174     1.0  0.44816  0.89058  0.93331  1.0000
  C   C1175     1.0  0.39530  0.81200  0.62167  1.0000
  S   S175      1.0  0.49661  0.93237  0.09944  1.0000
  H   H950      1.0  0.43128  0.88800  0.09610  1.0000
  C   C1176     1.0  0.44657  0.84515  0.04957  1.0000
  C   C1177     1.0  0.41916  0.82704  0.97645  1.0000
  C   C1178     1.0  0.42747  0.83391  0.99440  1.0000
  C   C1179     1.0  0.47077  0.99018  0.95738  1.0000
  H   H951      1.0  0.35202  0.80486  0.03077  1.0000
  H   H952      1.0  0.47469  0.84557  0.10740  1.0000
  C   C1180     1.0  0.41393  0.79910  0.17118  1.0000
  C   C1181     1.0  0.42482  0.87953  0.09704  1.0000
  C   C1182     1.0  0.38638  0.90198  0.04336  1.0000
  H   H953      1.0  0.38240  0.88433  0.09132  1.0000
  H   H954      1.0  0.42491  0.83357  0.03020  1.0000
  C   C1183     1.0  0.44875  0.86616  0.96700  1.0000
  C   C1184     1.0  0.45542  0.87308  0.92231  1.0000
  H   H955      1.0  0.48798  0.84117  0.18040  1.0000
  C   C1185     1.0  0.40831  0.85775  0.09838  1.0000
  C   C1186     1.0  0.42031  0.95642  0.18043  1.0000
  H   H956      1.0  0.42755  0.96053  0.10741  1.0000
  C   C1187     1.0  0.38564  0.88672  0.18948  1.0000
  C   C1188     1.0  0.38313  0.89505  0.90604  1.0000
  H   H957      1.0  0.41531  0.95128  0.25402  1.0000
  H   H958      1.0  0.36669  0.85193  0.19714  1.0000
  C   C1189     1.0  0.44221  0.91234  0.13467  1.0000
  C   C1190     1.0  0.38735  0.88995  0.05704  1.0000
  H   H959      1.0  0.40189  0.84924  0.09967  1.0000
  H   H960      1.0  0.39254  0.91913  0.99015  1.0000
  C   C1191     1.0  0.45039  0.90544  0.14155  1.0000
  H   H961      1.0  0.44167  0.83310  0.18077  1.0000
  C   C1192     1.0  0.45525  0.88527  0.90584  1.0000
  H   H962      1.0  0.44235  0.82572  0.05113  1.0000
  H   H963      1.0  0.40072  0.92775  0.86847  1.0000
  C   C1193     1.0  0.35853  0.79126  0.15341  1.0000
  C   C1194     1.0  0.41586  0.88007  0.07376  1.0000
  C   C1195     1.0  0.39300  0.90968  0.00009  1.0000
  C   C1196     1.0  0.44106  0.88360  0.97700  1.0000
  H   H964      1.0  0.38288  0.81861  0.58736  1.0000
  C   C1197     1.0  0.44123  0.87138  0.99374  1.0000
  C   C1198     1.0  0.44143  0.82809  0.11814  1.0000
  C   C1199     1.0  0.44306  0.83647  0.14422  1.0000
  H   H965      1.0  0.35917  0.84829  0.99674  1.0000
  C   C1200     1.0  0.48208  0.81220  0.56745  1.0000
  C   C1201     1.0  0.38902  0.78709  0.02258  1.0000
  C   C1202     1.0  0.35340  0.79828  0.87795  1.0000
  C   C1203     1.0  0.40753  0.86921  0.07426  1.0000
  H   H966      1.0  0.41543  0.88898  0.05552  1.0000
  H   H967      1.0  0.45014  0.89745  0.12835  1.0000
  C   C1204     1.0  0.42166  0.80941  0.78018  1.0000
  C   C1205     1.0  0.48075  0.87555  0.18093  1.0000
  H   H968      1.0  0.41572  0.85958  0.00636  1.0000
  H   H969      1.0  0.39125  0.86068  0.41688  1.0000
  C   C1206     1.0  0.39131  0.81190  0.87509  1.0000
  C   C1207     1.0  0.38027  0.89640  0.18321  1.0000
  H   H970      1.0  0.43555  0.90960  0.11657  1.0000
  C   C1208     1.0  0.41326  0.80620  0.12969  1.0000
  C   C1209     1.0  0.34497  0.81573  0.86352  1.0000
  C   C1210     1.0  0.49797  0.79665  0.72000  1.0000
  H   H971      1.0  0.44818  0.90011  0.92099  1.0000
  H   H972      1.0  0.43560  0.86611  0.02751  1.0000
  H   H973      1.0  0.37042  0.84190  0.86528  1.0000
  C   C1211     1.0  0.43553  0.81807  0.29063  1.0000
  C   C1212     1.0  0.38155  0.90815  0.72915  1.0000
  P   P38       1.0  0.36593  0.82863  0.96223  1.0000
  C   C1213     1.0  0.39489  0.88547  0.02713  1.0000
  H   H974      1.0  0.43900  0.81823  0.13443  1.0000
  C   C1214     1.0  0.35300  0.94293  0.86463  1.0000
  C   C1215     1.0  0.48084  0.84224  0.08529  1.0000
  S   S176      1.0  0.35660  0.83770  0.79729  1.0000
  S   S177      1.0  0.39146  0.84558  0.21532  1.0000
  C   C1216     1.0  0.38173  0.84338  0.46710  1.0000
  C   C1217     1.0  0.39297  0.95178  0.80775  1.0000
  H   H975      1.0  0.35107  0.94877  0.88672  1.0000
  C   C1218     1.0  0.43623  0.88840  0.27049  1.0000
  H   H976      1.0  0.42446  0.81392  0.57128  1.0000
  H   H977      1.0  0.34955  0.84326  0.16783  1.0000
  C   C1219     1.0  0.40046  0.90528  0.97013  1.0000
  C   C1220     1.0  0.36368  0.93925  0.86061  1.0000
  H   H978      1.0  0.39509  0.79623  0.43412  1.0000
  H   H979      1.0  0.43569  0.88785  0.99804  1.0000
  C   C1221     1.0  0.41384  0.82349  0.36265  1.0000
  C   C1222     1.0  0.43976  0.81428  0.45019  1.0000
  C   C1223     1.0  0.36010  0.84980  0.09724  1.0000
  P   P39       1.0  0.40546  0.77701  0.91168  1.0000
  C   C1224     1.0  0.43896  0.85132  0.45211  1.0000
  H   H980      1.0  0.40465  0.80426  0.48937  1.0000
  H   H981      1.0  0.43094  0.78311  0.25987  1.0000
  C   C1225     1.0  0.40152  0.89328  0.98366  1.0000
  Fe  Fe92      1.0  0.38301  0.85620  0.25857  1.0000
  H   H982      1.0  0.39066  0.83448  0.97367  1.0000
  H   H983      1.0  0.40562  0.91129  0.93669  1.0000
  H   H984      1.0  0.41380  0.86692  0.43168  1.0000
  C   C1226     1.0  0.49791  0.79149  0.76533  1.0000
  H   H985      1.0  0.40211  0.93522  0.66436  1.0000
  C   C1227     1.0  0.39682  0.86348  0.91850  1.0000
  C   C1228     1.0  0.41020  0.86056  0.98275  1.0000
  P   P40       1.0  0.39593  0.86982  0.04416  1.0000
  H   H986      1.0  0.42212  0.85513  0.93265  1.0000
  H   H987      1.0  0.39711  0.80798  0.85410  1.0000
  H   H988      1.0  0.39847  0.83394  0.04148  1.0000
  C   C1229     1.0  0.41387  0.85795  0.94088  1.0000
  H   H989      1.0  0.37023  0.86515  0.33907  1.0000
  H   H990      1.0  0.42532  0.81704  0.74939  1.0000
  C   C1230     1.0  0.39882  0.79198  0.03854  1.0000
  H   H991      1.0  0.40767  0.89024  0.96039  1.0000
  C   C1231     1.0  0.46906  0.99713  0.02697  1.0000
  C   C1232     1.0  0.37168  0.82892  0.01186  1.0000
  C   C1233     1.0  0.34652  0.79199  0.16000  1.0000
  C   C1234     1.0  0.50101  0.96116  0.94152  1.0000
  C   C1235     1.0  0.38428  0.83196  0.00702  1.0000
  C   C1236     1.0  0.42073  0.86257  0.43871  1.0000
  C   C1237     1.0  0.40520  0.81197  0.37718  1.0000
  C   C1238     1.0  0.39983  0.86478  0.99279  1.0000
  H   H992      1.0  0.49771  0.84751  0.92441  1.0000
  H   H993      1.0  0.40109  0.80842  0.35284  1.0000
  C   C1239     1.0  0.38141  0.86066  0.08332  1.0000
  H   H994      1.0  0.38666  0.86354  0.14399  1.0000
  C   C1240     1.0  0.40187  0.80511  0.42289  1.0000
  C   C1241     1.0  0.39405  0.82470  0.86783  1.0000
  H   H995      1.0  0.41016  0.85753  0.87612  1.0000
  C   C1242     1.0  0.38075  0.82827  0.08905  1.0000
  C   C1243     1.0  0.37948  0.85936  0.13047  1.0000
  C   C1244     1.0  0.41791  0.84969  0.45374  1.0000
  C   C1245     1.0  0.41587  0.82138  0.43977  1.0000
  C   C1246     1.0  0.40723  0.80976  0.45415  1.0000
  H   H996      1.0  0.40873  0.84429  0.45802  1.0000
  H   H997      1.0  0.41639  0.82878  0.32715  1.0000
  H   H998      1.0  0.39387  0.76987  0.25471  1.0000
  H   H999      1.0  0.40208  0.83066  0.84158  1.0000
  H   H1000     1.0  0.44492  0.81591  0.34296  1.0000
  C   C1247     1.0  0.41256  0.78784  0.97764  1.0000
  H   H1001     1.0  0.38871  0.80852  0.65489  1.0000
  C   C1248     1.0  0.41927  0.82814  0.39366  1.0000
  C   C1249     1.0  0.37769  0.91358  0.87422  1.0000
  S   S178      1.0  0.37684  0.87277  0.23056  1.0000
  H   H1002     1.0  0.42618  0.83695  0.38148  1.0000
  S   S179      1.0  0.35260  0.78307  0.90704  1.0000
  C   C1250     1.0  0.43254  0.86984  0.43155  1.0000
  C   C1251     1.0  0.48936  0.87022  0.16119  1.0000
  C   C1252     1.0  0.42664  0.81239  0.27213  1.0000
  H   H1003     1.0  0.43426  0.81158  0.42816  1.0000
  H   H1004     1.0  0.47496  0.99197  0.92127  1.0000
  C   C1253     1.0  0.35838  0.84818  0.14419  1.0000
  H   H1005     1.0  0.38877  0.83973  0.88824  1.0000
  H   H1006     1.0  0.46633  0.82756  0.08179  1.0000
  C   C1254     1.0  0.40055  0.82241  0.54086  1.0000
  C   C1255     1.0  0.38095  0.80422  0.90881  1.0000
  H   H1007     1.0  0.42033  0.88023  0.19669  1.0000
  C   C1256     1.0  0.42697  0.84391  0.46135  1.0000
  C   C1257     1.0  0.39323  0.86628  0.96002  1.0000
  S   S180      1.0  0.39033  0.82649  0.31123  1.0000
  H   H1008     1.0  0.40199  0.81490  0.24155  1.0000
  C   C1258     1.0  0.38076  0.84378  0.54693  1.0000
  C   C1259     1.0  0.44166  0.86420  0.43780  1.0000
  H   H1009     1.0  0.40955  0.80618  0.64620  1.0000
  H   H1010     1.0  0.39179  0.86484  0.89312  1.0000
  H   H1011     1.0  0.44638  0.84732  0.45436  1.0000
  H   H1012     1.0  0.45095  0.86982  0.42958  1.0000
  H   H1013     1.0  0.38558  0.87006  0.96570  1.0000
  P   P41       1.0  0.42323  0.82716  0.47938  1.0000
  P   P42       1.0  0.38010  0.92697  0.82719  1.0000
  H   H1014     1.0  0.41275  0.96026  0.17779  1.0000
  H   H1015     1.0  0.48089  0.87753  0.21341  1.0000
  C   C1260     1.0  0.37557  0.82218  0.92637  1.0000
  H   H1016     1.0  0.38863  0.88876  0.90181  1.0000
  H   H1017     1.0  0.41741  0.79114  0.17139  1.0000
  C   C1261     1.0  0.47180  0.87551  0.11745  1.0000
  C   C1262     1.0  0.38633  0.82981  0.89384  1.0000
  H   H1018     1.0  0.42744  0.92427  0.43441  1.0000
  C   C1263     1.0  0.36351  0.80481  0.84071  1.0000
  H   H1019     1.0  0.43978  0.87984  0.21585  1.0000
  C   C1264     1.0  0.40717  0.85938  0.90884  1.0000
  C   C1265     1.0  0.36950  0.91182  0.91667  1.0000
  C   C1266     1.0  0.41557  0.81530  0.57392  1.0000
  H   H1020     1.0  0.42503  0.81783  0.24231  1.0000
  C   C1267     1.0  0.37160  0.85590  0.06701  1.0000
  H   H1021     1.0  0.37774  0.83903  0.58301  1.0000
  S   S181      1.0  0.37805  0.83470  0.42767  1.0000
  C   C1268     1.0  0.37487  0.89330  0.94803  1.0000
  H   H1022     1.0  0.39127  0.90658  0.83763  1.0000
  C   C1269     1.0  0.44425  0.82524  0.50560  1.0000
  C   C1270     1.0  0.41673  0.89303  0.28627  1.0000
  C   C1271     1.0  0.48374  0.82673  0.04572  1.0000
  H   H1023     1.0  0.48043  0.86846  0.06457  1.0000
  H   H1024     1.0  0.37398  0.88566  0.97687  1.0000
  C   C1272     1.0  0.39540  0.92860  0.69380  1.0000
  C   C1273     1.0  0.41427  0.88870  0.24926  1.0000
  H   H1025     1.0  0.36487  0.78706  0.29497  1.0000
  C   C1274     1.0  0.45029  0.81038  0.44931  1.0000
  H   H1026     1.0  0.36187  0.90046  0.98622  1.0000
  C   C1275     1.0  0.35539  0.82248  0.82777  1.0000
  C   C1276     1.0  0.37794  0.83744  0.51443  1.0000
  C   C1277     1.0  0.43348  0.88374  0.23482  1.0000
  C   C1278     1.0  0.45771  0.81380  0.47696  1.0000
  C   C1279     1.0  0.42250  0.88388  0.22424  1.0000
  C   C1280     1.0  0.38461  0.90520  0.86949  1.0000
  C   C1281     1.0  0.36826  0.82549  0.09396  1.0000
  H   H1027     1.0  0.37280  0.85687  0.03115  1.0000
  H   H1028     1.0  0.46051  0.82400  0.52613  1.0000
  H   H1029     1.0  0.49619  0.86842  0.17842  1.0000
  H   H1030     1.0  0.37959  0.92282  0.25391  1.0000
  C   C1282     1.0  0.49762  0.84359  0.17776  1.0000
  C   C1283     1.0  0.36461  0.86754  0.89090  1.0000
  C   C1284     1.0  0.36618  0.84411  0.93378  1.0000
  C   C1285     1.0  0.36794  0.85979  0.86469  1.0000
  H   H1031     1.0  0.37571  0.79696  0.16927  1.0000
  H   H1032     1.0  0.39685  0.94086  0.73650  1.0000
  C   C1286     1.0  0.37310  0.80931  0.93430  1.0000
  C   C1287     1.0  0.38405  0.78904  0.28309  1.0000
  C   C1288     1.0  0.45462  0.82114  0.50543  1.0000
  H   H1033     1.0  0.43395  0.79372  0.37738  1.0000
  C   C1289     1.0  0.40705  0.81071  0.61674  1.0000
  C   C1290     1.0  0.50029  0.91670  0.24711  1.0000
  C   C1291     1.0  0.40090  0.93711  0.85228  1.0000
  C   C1292     1.0  0.45438  0.79973  0.81763  1.0000
  C   C1293     1.0  0.36371  0.82593  0.05568  1.0000
  C   C1294     1.0  0.39219  0.93949  0.82932  1.0000
  H   H1034     1.0  0.46504  0.88192  0.17535  1.0000
  Fe  Fe93      1.0  0.37802  0.82844  0.26450  1.0000
  H   H1035     1.0  0.36969  0.86270  0.82776  1.0000
  C   C1295     1.0  0.38394  0.92308  0.77361  1.0000
  H   H1036     1.0  0.41688  0.94498  0.87171  1.0000
  H   H1037     1.0  0.40094  0.82732  0.16855  1.0000
  C   C1296     1.0  0.37846  0.91128  0.77022  1.0000
  C   C1297     1.0  0.40536  0.81249  0.21042  1.0000
  H   H1038     1.0  0.50689  0.91913  0.17435  1.0000
  H   H1039     1.0  0.40785  0.82167  0.09668  1.0000
  H   H1040     1.0  0.38646  0.95384  0.78926  1.0000
  C   C1298     1.0  0.41014  0.94688  0.85415  1.0000
  H   H1041     1.0  0.39770  0.82659  0.51180  1.0000
  C   C1299     1.0  0.36856  0.84805  0.88603  1.0000
  C   C1300     1.0  0.41080  0.95907  0.83298  1.0000
  C   C1301     1.0  0.47447  0.99914  0.98037  1.0000
  C   C1302     1.0  0.50632  0.00912  0.90754  1.0000
  C   C1303     1.0  0.38853  0.92131  0.24794  1.0000
  C   C1304     1.0  0.40223  0.96153  0.80968  1.0000
  C   C1305     1.0  0.36627  0.93171  0.83197  1.0000
  H   H1042     1.0  0.39269  0.91417  0.65970  1.0000
  H   H1043     1.0  0.38315  0.77844  0.97357  1.0000
  H   H1044     1.0  0.36991  0.94225  0.88001  1.0000
  C   C1306     1.0  0.49944  0.91458  0.20492  1.0000
  C   C1307     1.0  0.40945  0.78840  0.81876  1.0000
  H   H1045     1.0  0.37272  0.82203  0.78895  1.0000
  C   C1308     1.0  0.36156  0.86341  0.93860  1.0000
  C   C1309     1.0  0.36808  0.90169  0.95336  1.0000
  C   C1310     1.0  0.49610  0.81738  0.61220  1.0000
  C   C1311     1.0  0.42785  0.89285  0.29654  1.0000
  H   H1046     1.0  0.43004  0.81942  0.82182  1.0000
  H   H1047     1.0  0.41801  0.96659  0.83447  1.0000
  H   H1048     1.0  0.36503  0.80313  0.95952  1.0000
  H   H1049     1.0  0.46503  0.87762  0.10046  1.0000
  H   H1050     1.0  0.41613  0.80360  0.09863  1.0000
  H   H1051     1.0  0.37865  0.79430  0.91431  1.0000
  H   H1052     1.0  0.44214  0.83129  0.52628  1.0000
  H   H1053     1.0  0.49745  0.93856  0.29194  1.0000
  S   S182      1.0  0.36865  0.83928  0.30624  1.0000
  S   S183      1.0  0.47334  0.00817  0.05796  1.0000
  C   C1312     1.0  0.34727  0.93155  0.81183  1.0000
  C   C1313     1.0  0.49078  0.91012  0.28656  1.0000
  C   C1314     1.0  0.41933  0.80101  0.86094  1.0000
  C   C1315     1.0  0.47187  0.87805  0.15942  1.0000
  C   C1316     1.0  0.50352  0.78211  0.77540  1.0000
  C   C1317     1.0  0.41168  0.78979  0.86037  1.0000
  S   S184      1.0  0.40451  0.77124  0.13878  1.0000
  C   C1318     1.0  0.48907  0.86721  0.11989  1.0000
  C   C1319     1.0  0.41431  0.79822  0.77902  1.0000
  H   H1054     1.0  0.41820  0.79595  0.02852  1.0000
  H   H1055     1.0  0.40401  0.77971  0.81684  1.0000
  C   C1320     1.0  0.47603  0.83190  0.07132  1.0000
  H   H1056     1.0  0.36205  0.82310  0.12761  1.0000
  C   C1321     1.0  0.38584  0.88036  0.32971  1.0000
  H   H1057     1.0  0.50326  0.92230  0.78627  1.0000
  H   H1058     1.0  0.34752  0.81134  0.23040  1.0000
  H   H1059     1.0  0.45352  0.78066  0.82250  1.0000
  H   H1060     1.0  0.36168  0.78567  0.13224  1.0000
  C   C1322     1.0  0.50057  0.82342  0.70565  1.0000
  H   H1061     1.0  0.47995  0.81846  0.03632  1.0000
  C   C1323     1.0  0.49345  0.84770  0.07262  1.0000
  H   H1062     1.0  0.34481  0.83213  0.92840  1.0000
  C   C1324     1.0  0.40979  0.80209  0.21197  1.0000
  H   H1063     1.0  0.49154  0.95388  0.73043  1.0000
  C   C1325     1.0  0.47239  0.81475  0.76455  1.0000
  H   H1064     1.0  0.50022  0.95462  0.01252  1.0000
  H   H1065     1.0  0.35964  0.92200  0.78555  1.0000
  H   H1066     1.0  0.38447  0.90843  0.31379  1.0000
  S   S185      1.0  0.43214  0.76725  0.04747  1.0000
  H   H1067     1.0  0.49469  0.97924  0.07542  1.0000
  H   H1068     1.0  0.50227  0.82800  0.01340  1.0000
  C   C1326     1.0  0.45865  0.79018  0.80548  1.0000
  H   H1069     1.0  0.36401  0.87657  0.87419  1.0000
  C   C1327     1.0  0.39128  0.78455  0.35060  1.0000
  C   C1328     1.0  0.49616  0.93771  0.76384  1.0000
  C   C1329     1.0  0.35017  0.81956  0.97816  1.0000
  C   C1330     1.0  0.47614  0.80309  0.64949  1.0000
  H   H1070     1.0  0.39721  0.79498  0.06946  1.0000
  C   C1331     1.0  0.37018  0.87071  0.40100  1.0000
  H   H1071     1.0  0.38557  0.78103  0.87050  1.0000
  C   C1332     1.0  0.39713  0.92728  0.20593  1.0000
  C   C1333     1.0  0.49919  0.83447  0.68072  1.0000
  H   H1072     1.0  0.41310  0.89087  0.40005  1.0000
  C   C1334     1.0  0.47351  0.80430  0.60707  1.0000
  C   C1335     1.0  0.47663  0.80524  0.75140  1.0000
  H   H1073     1.0  0.41506  0.92956  0.16467  1.0000
  H   H1074     1.0  0.50149  0.88093  0.51667  1.0000
  C   C1336     1.0  0.48901  0.90647  0.20185  1.0000
  C   C1337     1.0  0.50332  0.96253  0.98271  1.0000
  C   C1338     1.0  0.37495  0.87148  0.35511  1.0000
  H   H1075     1.0  0.42202  0.90138  0.45165  1.0000
  C   C1339     1.0  0.49891  0.93367  0.86896  1.0000
  H   H1076     1.0  0.47776  0.82431  0.75055  1.0000
  P   P43       1.0  0.40631  0.90000  0.31644  1.0000
  H   H1077     1.0  0.49377  0.94427  0.36491  1.0000
  C   C1340     1.0  0.49779  0.94827  0.72826  1.0000
  C   C1341     1.0  0.46113  0.81200  0.79642  1.0000
  C   C1342     1.0  0.43170  0.79895  0.34858  1.0000
  H   H1078     1.0  0.35398  0.82387  0.06080  1.0000
  C   C1343     1.0  0.40855  0.92514  0.19777  1.0000
  H   H1079     1.0  0.39129  0.89437  0.41233  1.0000
  C   C1344     1.0  0.50174  0.83775  0.21329  1.0000
  H   H1080     1.0  0.48846  0.90500  0.16897  1.0000
  H   H1081     1.0  0.41460  0.92627  0.31415  1.0000
  C   C1345     1.0  0.40274  0.91079  0.27345  1.0000
  H   H1082     1.0  0.49518  0.95746  0.09093  1.0000
  C   C1346     1.0  0.36989  0.78275  0.35823  1.0000
  C   C1347     1.0  0.37616  0.87904  0.42120  1.0000
  P   P44       1.0  0.50001  0.86004  0.09502  1.0000
  C   C1348     1.0  0.37940  0.78176  0.37818  1.0000
  H   H1083     1.0  0.48138  0.00770  0.96196  1.0000
  H   H1084     1.0  0.35832  0.86913  0.95902  1.0000
  H   H1085     1.0  0.35254  0.84609  0.08451  1.0000
  C   C1349     1.0  0.42358  0.91969  0.41155  1.0000
  H   H1086     1.0  0.44600  0.79764  0.84423  1.0000
  C   C1350     1.0  0.38706  0.88794  0.39581  1.0000
  C   C1351     1.0  0.41633  0.92074  0.34361  1.0000
  C   C1352     1.0  0.42150  0.92665  0.37271  1.0000
  C   C1353     1.0  0.43796  0.81142  0.32908  1.0000
  H   H1087     1.0  0.46481  0.79917  0.60484  1.0000
  C   C1354     1.0  0.41550  0.90089  0.39196  1.0000
  H   H1088     1.0  0.39487  0.93331  0.17907  1.0000
  H   H1089     1.0  0.39844  0.78366  0.36686  1.0000
  H   H1090     1.0  0.36071  0.78075  0.37948  1.0000
  H   H1091     1.0  0.36594  0.76718  0.87443  1.0000
  H   H1092     1.0  0.49754  0.91640  0.97431  1.0000
  C   C1355     1.0  0.35795  0.92785  0.80771  1.0000
  C   C1356     1.0  0.50271  0.93627  0.31575  1.0000
  H   H1093     1.0  0.36428  0.91829  0.92182  1.0000
  C   C1357     1.0  0.42335  0.77578  0.25967  1.0000
  H   H1094     1.0  0.48001  0.81341  0.53461  1.0000
  H   H1095     1.0  0.50584  0.93930  0.41965  1.0000
  H   H1096     1.0  0.45781  0.81941  0.80570  1.0000
  C   C1358     1.0  0.46963  0.79290  0.77196  1.0000
  C   C1359     1.0  0.35068  0.80579  0.20910  1.0000
  P   P45       1.0  0.49068  0.80874  0.70742  1.0000
  C   C1360     1.0  0.34479  0.93909  0.84022  1.0000
  C   C1361     1.0  0.34271  0.79932  0.18805  1.0000
  H   H1097     1.0  0.50481  0.94180  0.84268  1.0000
  H   H1098     1.0  0.50330  0.93977  0.18594  1.0000
  C   C1362     1.0  0.50115  0.84251  0.04653  1.0000
  H   H1099     1.0  0.49621  0.00628  0.08368  1.0000
  H   H1100     1.0  0.49968  0.00019  0.92318  1.0000
  S   S186      1.0  0.43675  0.76765  0.14901  1.0000
  C   C1363     1.0  0.50061  0.93952  0.35698  1.0000
  H   H1101     1.0  0.50192  0.00584  0.00358  1.0000
  C   C1364     1.0  0.50742  0.93676  0.38775  1.0000
  H   H1102     1.0  0.49197  0.83429  0.66400  1.0000
  Fe  Fe94      1.0  0.34346  0.77282  0.98183  1.0000
  H   H1103     1.0  0.49360  0.79478  0.79290  1.0000
  H   H1104     1.0  0.50413  0.79630  0.64959  1.0000
  C   C1365     1.0  0.42304  0.76664  0.87293  1.0000
  S   S187      1.0  0.50734  0.87022  0.73227  1.0000
  H   H1105     1.0  0.50345  0.77817  0.81045  1.0000
  C   C1366     1.0  0.50433  0.00367  0.07096  1.0000
  C   C1367     1.0  0.34409  0.80376  0.88935  1.0000
  C   C1368     1.0  0.50383  0.79239  0.68486  1.0000
  C   C1369     1.0  0.50440  0.93058  0.75955  1.0000
  H   H1106     1.0  0.50646  0.89612  0.88024  1.0000
  C   C1370     1.0  0.40258  0.76835  0.25654  1.0000
  H   H1107     1.0  0.49997  0.82490  0.53919  1.0000
  H   H1108     1.0  0.50564  0.86705  0.99441  1.0000
  C   C1371     1.0  0.50586  0.85257  0.13942  1.0000
  H   H1109     1.0  0.50496  0.82247  0.61326  1.0000
  H   H1110     1.0  0.50619  0.85433  0.65699  1.0000
  C   C1372     1.0  0.34185  0.82386  0.95671  1.0000
  C   C1373     1.0  0.39129  0.76685  0.91177  1.0000
  H   H1111     1.0  0.37756  0.77888  0.41505  1.0000
  C   C1374     1.0  0.50724  0.84583  0.67669  1.0000
  C   C1375     1.0  0.50758  0.00335  0.02542  1.0000
  C   C1376     1.0  0.50757  0.95165  0.68916  1.0000
  Fe  Fe95      1.0  0.58793  0.22123  0.93484  1.0000
  S   S188      1.0  0.58458  0.21172  0.00905  1.0000
  S   S189      1.0  0.59250  0.24227  0.90685  1.0000
  Fe  Fe96      1.0  0.58642  0.19658  0.90644  1.0000
  S   S190      1.0  0.58356  0.18577  0.97916  1.0000
  S   S191      1.0  0.58878  0.18664  0.84944  1.0000
  Fe  Fe97      1.0  0.57066  0.19674  0.99717  1.0000
  S   S192      1.0  0.55154  0.18841  0.04295  1.0000
  Fe  Fe98      1.0  0.59787  0.20170  0.98396  1.0000
  S   S193      1.0  0.61158  0.19835  0.02342  1.0000
  S   S194      1.0  0.57280  0.20702  0.92420  1.0000
  S   S195      1.0  0.60195  0.21180  0.91022  1.0000
  H   H1112     1.0  0.59207  0.08591  0.10362  1.0000
  Fe  Fe99      1.0  0.62548  0.12434  0.36117  1.0000
  S   S196      1.0  0.62356  0.10563  0.40563  1.0000
  S   S197      1.0  0.60914  0.13159  0.36726  1.0000
  Fe  Fe100     1.0  0.64158  0.11458  0.41653  1.0000
  C   C1377     1.0  0.55242  0.03060  0.08656  1.0000
  Fe  Fe101     1.0  0.63372  0.10223  0.34171  1.0000
  S   S198      1.0  0.62811  0.08372  0.32377  1.0000
  S   S199      1.0  0.64275  0.13364  0.37528  1.0000
  S   S200      1.0  0.63440  0.12047  0.29703  1.0000
  S   S201      1.0  0.64268  0.11998  0.75530  1.0000
  Fe  Fe102     1.0  0.63819  0.13504  0.78549  1.0000
  S   S202      1.0  0.61999  0.13887  0.80274  1.0000
  Fe  Fe103     1.0  0.54053  0.13219  0.25682  1.0000
  S   S203      1.0  0.52790  0.11387  0.30215  1.0000
  S   S204      1.0  0.53420  0.14916  0.23740  1.0000
  Fe  Fe104     1.0  0.56248  0.12255  0.24739  1.0000
  S   S205      1.0  0.55176  0.10373  0.29155  1.0000
  S   S206      1.0  0.58235  0.12644  0.21352  1.0000
  Fe  Fe105     1.0  0.53791  0.10555  0.25145  1.0000
  S   S207      1.0  0.53364  0.09075  0.21296  1.0000
  Fe  Fe106     1.0  0.54288  0.11374  0.33794  1.0000
  S   S208      1.0  0.54051  0.10738  0.41535  1.0000
  S   S209      1.0  0.54943  0.12404  0.20498  1.0000
  S   S210      1.0  0.55465  0.13250  0.29562  1.0000
  Fe  Fe107     1.0  0.55707  0.14048  0.71556  1.0000
  S   S211      1.0  0.56617  0.12569  0.73357  1.0000
  S   S212      1.0  0.55306  0.15173  0.76728  1.0000
  Fe  Fe108     1.0  0.55481  0.13402  0.62418  1.0000
  S   S213      1.0  0.56394  0.11901  0.63709  1.0000
  S   S214      1.0  0.55089  0.13996  0.55438  1.0000
  Fe  Fe109     1.0  0.55251  0.11350  0.70974  1.0000
  S   S215      1.0  0.54734  0.09310  0.74687  1.0000
  Fe  Fe110     1.0  0.57664  0.13231  0.66013  1.0000
  S   S216      1.0  0.59640  0.13372  0.64030  1.0000
  S   S217      1.0  0.54229  0.12772  0.69626  1.0000
  S   S218      1.0  0.56860  0.14797  0.64249  1.0000
  S   S219      1.0  0.55786  0.04209  0.15121  1.0000
  C   C1378     1.0  0.64881  0.11858  0.60692  1.0000
  C   C1379     1.0  0.63205  0.21496  0.95854  1.0000
  C   C1380     1.0  0.56708  0.10890  0.14179  1.0000
  Fe  Fe111     1.0  0.59949  0.05362  0.04131  1.0000
  C   C1381     1.0  0.54950  0.10198  0.84531  1.0000
  S   S220      1.0  0.53248  0.03444  0.99603  1.0000
  S   S221      1.0  0.60316  0.06810  0.97423  1.0000
  S   S222      1.0  0.59295  0.05902  0.10539  1.0000
  C   C1382     1.0  0.53834  0.03530  0.04299  1.0000
  C   C1383     1.0  0.53462  0.04240  0.07166  1.0000
  C   C1384     1.0  0.54024  0.04405  0.10650  1.0000
  H   H1113     1.0  0.62631  0.21629  0.93587  1.0000
  C   C1385     1.0  0.54708  0.02921  0.05097  1.0000
  H   H1114     1.0  0.52773  0.04697  0.06602  1.0000
  H   H1115     1.0  0.53771  0.04992  0.12751  1.0000
  H   H1116     1.0  0.52203  0.06136  0.88624  1.0000
  C   C1386     1.0  0.53363  0.08575  0.79006  1.0000
  C   C1387     1.0  0.53313  0.07544  0.82475  1.0000
  C   C1388     1.0  0.52229  0.06919  0.85926  1.0000
  H   H1117     1.0  0.56695  0.21739  0.40389  1.0000
  P   P46       1.0  0.52960  0.13467  0.06940  1.0000
  C   C1389     1.0  0.65731  0.07382  0.17896  1.0000
  H   H1118     1.0  0.54117  0.07236  0.82519  1.0000
  H   H1119     1.0  0.55678  0.02235  0.26825  1.0000
  C   C1390     1.0  0.53271  0.15515  0.42207  1.0000
  C   C1391     1.0  0.65009  0.09147  0.09712  1.0000
  C   C1392     1.0  0.54352  0.11663  0.45336  1.0000
  C   C1393     1.0  0.54226  0.11079  0.49951  1.0000
  C   C1394     1.0  0.54455  0.11776  0.53070  1.0000
  C   C1395     1.0  0.54807  0.13069  0.51628  1.0000
  C   C1396     1.0  0.54924  0.13653  0.47021  1.0000
  C   C1397     1.0  0.54707  0.12956  0.43893  1.0000
  H   H1120     1.0  0.53947  0.10080  0.51123  1.0000
  H   H1121     1.0  0.54343  0.11314  0.56609  1.0000
  H   H1122     1.0  0.55197  0.14650  0.45857  1.0000
  H   H1123     1.0  0.54802  0.13416  0.40375  1.0000
  H   H1124     1.0  0.59376  0.03606  0.27100  1.0000
  C   C1398     1.0  0.52727  0.07653  0.15586  1.0000
  H   H1125     1.0  0.53989  0.08041  0.94815  1.0000
  H   H1126     1.0  0.57297  0.24380  0.86199  1.0000
  H   H1127     1.0  0.65460  0.05866  0.28896  1.0000
  H   H1128     1.0  0.62264  0.04718  0.26613  1.0000
  H   H1129     1.0  0.53647  0.07587  0.15044  1.0000
  C   C1399     1.0  0.52577  0.12688  0.90632  1.0000
  S   S223      1.0  0.58285  0.03790  0.05568  1.0000
  C   C1400     1.0  0.60277  0.15802  0.52345  1.0000
  C   C1401     1.0  0.64050  0.09099  0.87959  1.0000
  C   C1402     1.0  0.63954  0.08007  0.91237  1.0000
  C   C1403     1.0  0.62810  0.07267  0.94100  1.0000
  C   C1404     1.0  0.61763  0.07622  0.93702  1.0000
  C   C1405     1.0  0.61858  0.08687  0.90330  1.0000
  C   C1406     1.0  0.62996  0.09429  0.87487  1.0000
  H   H1130     1.0  0.64767  0.07741  0.91586  1.0000
  H   H1131     1.0  0.62740  0.06430  0.96636  1.0000
  H   H1132     1.0  0.61049  0.08966  0.90070  1.0000
  H   H1133     1.0  0.63057  0.10267  0.84982  1.0000
  C   C1407     1.0  0.61322  0.13752  0.75797  1.0000
  C   C1408     1.0  0.61821  0.13238  0.72433  1.0000
  C   C1409     1.0  0.61286  0.13103  0.68888  1.0000
  C   C1410     1.0  0.60255  0.13500  0.68635  1.0000
  C   C1411     1.0  0.59749  0.14023  0.71981  1.0000
  C   C1412     1.0  0.60283  0.14148  0.75571  1.0000
  H   H1134     1.0  0.62631  0.12960  0.72489  1.0000
  H   H1135     1.0  0.61682  0.12700  0.66325  1.0000
  H   H1136     1.0  0.58967  0.14357  0.71739  1.0000
  H   H1137     1.0  0.59896  0.14557  0.78139  1.0000
  C   C1413     1.0  0.60187  0.12931  0.32464  1.0000
  C   C1414     1.0  0.58920  0.12552  0.33587  1.0000
  C   C1415     1.0  0.58322  0.12450  0.30173  1.0000
  C   C1416     1.0  0.58991  0.12738  0.25611  1.0000
  C   C1417     1.0  0.60261  0.13091  0.24482  1.0000
  C   C1418     1.0  0.60857  0.13167  0.27928  1.0000
  H   H1138     1.0  0.58398  0.12326  0.37112  1.0000
  H   H1139     1.0  0.57343  0.12137  0.31102  1.0000
  H   H1140     1.0  0.60782  0.13308  0.20961  1.0000
  H   H1141     1.0  0.61832  0.13437  0.27065  1.0000
  C   C1419     1.0  0.64463  0.11233  0.57615  1.0000
  H   H1142     1.0  0.58325  0.14038  0.50672  1.0000
  H   H1143     1.0  0.63880  0.10295  0.58923  1.0000
  H   H1144     1.0  0.64619  0.11401  0.64308  1.0000
  C   C1420     1.0  0.62332  0.07544  0.28474  1.0000
  C   C1421     1.0  0.61859  0.08017  0.24873  1.0000
  C   C1422     1.0  0.61508  0.07287  0.21944  1.0000
  C   C1423     1.0  0.61663  0.06089  0.22519  1.0000
  C   C1424     1.0  0.62134  0.05633  0.26109  1.0000
  C   C1425     1.0  0.62441  0.06338  0.29083  1.0000
  H   H1145     1.0  0.61754  0.08938  0.24382  1.0000
  H   H1146     1.0  0.61148  0.07658  0.19190  1.0000
  C   C1426     1.0  0.58185  0.13088  0.50587  1.0000
  H   H1147     1.0  0.62795  0.05950  0.31835  1.0000
  C   C1427     1.0  0.58321  0.08168  0.12759  1.0000
  C   C1428     1.0  0.57921  0.11004  0.12137  1.0000
  C   C1429     1.0  0.59231  0.25293  0.94074  1.0000
  C   C1430     1.0  0.58751  0.24904  0.98824  1.0000
  H   H1148     1.0  0.60428  0.10067  0.13456  1.0000
  H   H1149     1.0  0.58392  0.23927  0.00544  1.0000
  H   H1150     1.0  0.65807  0.18556  0.79849  1.0000
  C   C1431     1.0  0.57861  0.17667  0.82822  1.0000
  C   C1432     1.0  0.58343  0.17064  0.79679  1.0000
  C   C1433     1.0  0.57582  0.16297  0.77791  1.0000
  C   C1434     1.0  0.56323  0.16127  0.78994  1.0000
  C   C1435     1.0  0.55842  0.16727  0.82147  1.0000
  C   C1436     1.0  0.56600  0.17480  0.84079  1.0000
  H   H1151     1.0  0.59314  0.17197  0.78660  1.0000
  H   H1152     1.0  0.57973  0.15847  0.75377  1.0000
  H   H1153     1.0  0.54876  0.16623  0.83040  1.0000
  H   H1154     1.0  0.56211  0.17943  0.86448  1.0000
  C   C1437     1.0  0.54744  0.17718  0.09608  1.0000
  C   C1438     1.0  0.55428  0.16899  0.10743  1.0000
  C   C1439     1.0  0.55017  0.15992  0.15013  1.0000
  C   C1440     1.0  0.53943  0.15936  0.18181  1.0000
  C   C1441     1.0  0.53266  0.16751  0.16992  1.0000
  C   C1442     1.0  0.53653  0.17621  0.12717  1.0000
  H   H1155     1.0  0.56258  0.16951  0.08311  1.0000
  H   H1156     1.0  0.55531  0.15348  0.15865  1.0000
  H   H1157     1.0  0.52435  0.16710  0.19401  1.0000
  H   H1158     1.0  0.53112  0.18239  0.11846  1.0000
  C   C1443     1.0  0.62710  0.20690  0.00256  1.0000
  H   H1159     1.0  0.56417  0.10818  0.17796  1.0000
  H   H1160     1.0  0.58563  0.11045  0.14189  1.0000
  H   H1161     1.0  0.57881  0.15077  0.92568  1.0000
  C   C1444     1.0  0.58210  0.07829  0.17454  1.0000
  C   C1445     1.0  0.57556  0.08742  0.95545  1.0000
  C   C1446     1.0  0.54423  0.08254  0.61997  1.0000
  H   H1162     1.0  0.55646  0.10474  0.81333  1.0000
  H   H1163     1.0  0.58002  0.04579  0.91526  1.0000
  C   C1447     1.0  0.51664  0.11690  0.20624  1.0000
  H   H1164     1.0  0.52945  0.13132  0.81071  1.0000
  C   C1448     1.0  0.63123  0.16043  0.65541  1.0000
  H   H1165     1.0  0.59089  0.12618  0.55802  1.0000
  H   H1166     1.0  0.59957  0.12647  0.92304  1.0000
  H   H1167     1.0  0.59195  0.08438  0.44113  1.0000
  H   H1168     1.0  0.54444  0.06878  0.04128  1.0000
  C   C1449     1.0  0.56243  0.10920  0.06938  1.0000
  H   H1169     1.0  0.54046  0.11537  0.82210  1.0000
  C   C1450     1.0  0.54014  0.08823  0.92112  1.0000
  C   C1451     1.0  0.62153  0.18577  0.90985  1.0000
  H   H1170     1.0  0.55415  0.05972  0.98312  1.0000
  C   C1452     1.0  0.52101  0.12536  0.80954  1.0000
  C   C1453     1.0  0.57436  0.10929  0.04943  1.0000
  C   C1454     1.0  0.54945  0.03847  0.11293  1.0000
  S   S224      1.0  0.64274  0.10943  0.49131  1.0000
  C   C1455     1.0  0.63007  0.11294  0.04665  1.0000
  C   C1456     1.0  0.58602  0.12283  0.53499  1.0000
  C   C1457     1.0  0.57301  0.07861  0.11130  1.0000
  H   H1171     1.0  0.57396  0.08038  0.07503  1.0000
  C   C1458     1.0  0.57602  0.14126  0.92465  1.0000
  C   C1459     1.0  0.58302  0.16812  0.15959  1.0000
  C   C1460     1.0  0.57669  0.16026  0.20297  1.0000
  C   C1461     1.0  0.58308  0.15632  0.23376  1.0000
  C   C1462     1.0  0.59576  0.16023  0.22155  1.0000
  C   C1463     1.0  0.60222  0.16840  0.17847  1.0000
  C   C1464     1.0  0.59572  0.17225  0.14745  1.0000
  P   P47       1.0  0.61870  0.17342  0.16136  1.0000
  C   C1465     1.0  0.62438  0.18969  0.15693  1.0000
  C   C1466     1.0  0.62494  0.16575  0.20384  1.0000
  C   C1467     1.0  0.62231  0.16746  0.24787  1.0000
  C   C1468     1.0  0.62721  0.16182  0.28117  1.0000
  C   C1469     1.0  0.63515  0.15487  0.27017  1.0000
  C   C1470     1.0  0.63829  0.15362  0.22582  1.0000
  C   C1471     1.0  0.63309  0.15890  0.19276  1.0000
  C   C1472     1.0  0.63645  0.19448  0.15781  1.0000
  C   C1473     1.0  0.64121  0.20712  0.15197  1.0000
  C   C1474     1.0  0.63393  0.21510  0.14574  1.0000
  C   C1475     1.0  0.62186  0.21042  0.14563  1.0000
  C   C1476     1.0  0.61708  0.19778  0.15127  1.0000
  C   C1477     1.0  0.62398  0.17055  0.10655  1.0000
  C   C1478     1.0  0.61633  0.16196  0.09151  1.0000
  C   C1479     1.0  0.61963  0.16117  0.04650  1.0000
  C   C1480     1.0  0.63067  0.16874  0.01647  1.0000
  C   C1481     1.0  0.63856  0.17685  0.03186  1.0000
  C   C1482     1.0  0.63538  0.17752  0.07699  1.0000
  H   H1172     1.0  0.57806  0.17109  0.13549  1.0000
  H   H1173     1.0  0.56684  0.15714  0.21268  1.0000
  H   H1174     1.0  0.57827  0.14990  0.26680  1.0000
  H   H1175     1.0  0.60033  0.15650  0.24566  1.0000
  H   H1176     1.0  0.60049  0.17833  0.11356  1.0000
  H   H1177     1.0  0.61634  0.17304  0.25650  1.0000
  H   H1178     1.0  0.62483  0.16273  0.31564  1.0000
  H   H1179     1.0  0.63881  0.15036  0.29616  1.0000
  H   H1180     1.0  0.64472  0.14849  0.21751  1.0000
  H   H1181     1.0  0.63555  0.15775  0.15875  1.0000
  H   H1182     1.0  0.64235  0.18852  0.16211  1.0000
  H   H1183     1.0  0.65062  0.21071  0.15173  1.0000
  H   H1184     1.0  0.63765  0.22492  0.14066  1.0000
  H   H1185     1.0  0.61629  0.21666  0.14030  1.0000
  H   H1186     1.0  0.60784  0.19448  0.14987  1.0000
  H   H1187     1.0  0.60765  0.15613  0.11402  1.0000
  H   H1188     1.0  0.61347  0.15491  0.03461  1.0000
  H   H1189     1.0  0.63308  0.16845  0.98119  1.0000
  H   H1190     1.0  0.64702  0.18293  0.00852  1.0000
  H   H1191     1.0  0.64163  0.18399  0.08773  1.0000
  C   C1483     1.0  0.60424  0.07845  0.47685  1.0000
  C   C1484     1.0  0.60730  0.07612  0.51834  1.0000
  C   C1485     1.0  0.59984  0.07745  0.55732  1.0000
  C   C1486     1.0  0.58940  0.08123  0.55469  1.0000
  C   C1487     1.0  0.58635  0.08382  0.51291  1.0000
  C   C1488     1.0  0.59389  0.08239  0.47396  1.0000
  P   P48       1.0  0.57335  0.08967  0.50933  1.0000
  C   C1489     1.0  0.57742  0.10599  0.50542  1.0000
  C   C1490     1.0  0.56813  0.08710  0.46043  1.0000
  C   C1491     1.0  0.57495  0.09418  0.41607  1.0000
  C   C1492     1.0  0.57058  0.09278  0.37842  1.0000
  C   C1493     1.0  0.55948  0.08423  0.38457  1.0000
  C   C1494     1.0  0.55265  0.07714  0.42843  1.0000
  C   C1495     1.0  0.55692  0.07856  0.46629  1.0000
  C   C1496     1.0  0.57315  0.11417  0.47662  1.0000
  C   C1497     1.0  0.58387  0.11044  0.53464  1.0000
  C   C1498     1.0  0.56115  0.08195  0.56078  1.0000
  C   C1499     1.0  0.55362  0.08849  0.58000  1.0000
  C   C1500     1.0  0.54211  0.06996  0.64047  1.0000
  C   C1501     1.0  0.54942  0.06331  0.62108  1.0000
  C   C1502     1.0  0.55894  0.06928  0.58141  1.0000
  H   H1192     1.0  0.61554  0.07344  0.52009  1.0000
  H   H1193     1.0  0.60227  0.07573  0.58943  1.0000
  H   H1194     1.0  0.58380  0.08227  0.58520  1.0000
  H   H1195     1.0  0.58350  0.10102  0.41069  1.0000
  H   H1196     1.0  0.57566  0.09852  0.34451  1.0000
  H   H1197     1.0  0.55605  0.08330  0.35545  1.0000
  H   H1198     1.0  0.54387  0.07080  0.43319  1.0000
  H   H1199     1.0  0.55128  0.07317  0.49992  1.0000
  H   H1200     1.0  0.56762  0.11099  0.45530  1.0000
  H   H1201     1.0  0.58712  0.10439  0.55766  1.0000
  C   C1503     1.0  0.64842  0.25243  0.88219  1.0000
  H   H1202     1.0  0.54773  0.05354  0.63694  1.0000
  H   H1203     1.0  0.56451  0.06403  0.56666  1.0000
  H   H1204     1.0  0.55508  0.09823  0.56464  1.0000
  H   H1205     1.0  0.59226  0.11075  0.06079  1.0000
  H   H1206     1.0  0.58244  0.13410  0.98197  1.0000
  C   C1504     1.0  0.67169  0.18042  0.18165  1.0000
  Fe  Fe112     1.0  0.57718  0.04214  0.12261  1.0000
  C   C1505     1.0  0.58288  0.11021  0.07534  1.0000
  H   H1207     1.0  0.63082  0.19958  0.06565  1.0000
  H   H1208     1.0  0.56904  0.14583  0.86623  1.0000
  H   H1209     1.0  0.55644  0.08742  0.87608  1.0000
  S   S225      1.0  0.61367  0.05122  0.18817  1.0000
  H   H1210     1.0  0.55882  0.02553  0.09376  1.0000
  H   H1211     1.0  0.60768  0.11033  0.86010  1.0000
  C   C1506     1.0  0.55874  0.10865  0.11563  1.0000
  C   C1507     1.0  0.57052  0.13850  0.89093  1.0000
  C   C1508     1.0  0.57801  0.13181  0.95635  1.0000
  H   H1212     1.0  0.54932  0.10780  0.13146  1.0000
  C   C1509     1.0  0.57557  0.12659  0.47638  1.0000
  C   C1510     1.0  0.63467  0.20546  0.03146  1.0000
  H   H1213     1.0  0.57215  0.13281  0.45452  1.0000
  Fe  Fe113     1.0  0.60245  0.04626  0.13829  1.0000
  C   C1511     1.0  0.57463  0.11953  0.95401  1.0000
  C   C1512     1.0  0.56676  0.12628  0.88936  1.0000
  H   H1214     1.0  0.56238  0.12423  0.86333  1.0000
  H   H1215     1.0  0.60900  0.17829  0.97680  1.0000
  C   C1513     1.0  0.52203  0.16670  0.01385  1.0000
  C   C1514     1.0  0.60261  0.11908  0.94058  1.0000
  C   C1515     1.0  0.56882  0.11681  0.92063  1.0000
  H   H1216     1.0  0.62109  0.12702  0.89853  1.0000
  H   H1217     1.0  0.61010  0.07749  0.44653  1.0000
  S   S226      1.0  0.65179  0.10955  0.35586  1.0000
  C   C1516     1.0  0.61490  0.11951  0.92681  1.0000
  P   P49       1.0  0.57835  0.10760  0.99208  1.0000
  H   H1218     1.0  0.55584  0.10901  0.04975  1.0000
  H   H1219     1.0  0.56611  0.10746  0.91785  1.0000
  C   C1517     1.0  0.59441  0.10887  0.97476  1.0000
  H   H1220     1.0  0.58431  0.09234  0.93141  1.0000
  C   C1518     1.0  0.61109  0.17763  0.94188  1.0000
  C   C1519     1.0  0.57027  0.09257  0.98890  1.0000
  C   C1520     1.0  0.61912  0.10997  0.94775  1.0000
  C   C1521     1.0  0.59876  0.09927  0.99524  1.0000
  C   C1522     1.0  0.56977  0.07567  0.95339  1.0000
  C   C1523     1.0  0.55889  0.08578  0.01950  1.0000
  H   H1221     1.0  0.62846  0.10999  0.93556  1.0000
  H   H1222     1.0  0.57417  0.07167  0.92851  1.0000
  H   H1223     1.0  0.55450  0.08917  0.04625  1.0000
  H   H1224     1.0  0.66476  0.11981  0.16833  1.0000
  H   H1225     1.0  0.53483  0.06541  0.67156  1.0000
  C   C1524     1.0  0.53363  0.10481  0.02212  1.0000
  H   H1226     1.0  0.65842  0.07218  0.14549  1.0000
  C   C1525     1.0  0.61108  0.09993  0.98231  1.0000
  H   H1227     1.0  0.59260  0.09106  0.02021  1.0000
  C   C1526     1.0  0.54345  0.16454  0.39892  1.0000
  C   C1527     1.0  0.54944  0.09215  0.88058  1.0000
  C   C1528     1.0  0.54026  0.10788  0.85026  1.0000
  Fe  Fe114     1.0  0.65173  0.12819  0.31415  1.0000
  C   C1529     1.0  0.55855  0.06895  0.98419  1.0000
  C   C1530     1.0  0.55309  0.07405  0.01704  1.0000
  C   C1531     1.0  0.53084  0.10398  0.89086  1.0000
  H   H1228     1.0  0.59489  0.16301  0.95292  1.0000
  H   H1229     1.0  0.61426  0.09228  0.99727  1.0000
  P   P50       1.0  0.65726  0.09774  0.13658  1.0000
  C   C1532     1.0  0.53094  0.09415  0.92637  1.0000
  C   C1533     1.0  0.62694  0.23070  0.75619  1.0000
  C   C1534     1.0  0.60315  0.16903  0.92845  1.0000
  H   H1230     1.0  0.58599  0.19560  0.16035  1.0000
  C   C1535     1.0  0.64713  0.21162  0.01670  1.0000
  H   H1231     1.0  0.62733  0.19266  0.92068  1.0000
  H   H1232     1.0  0.55170  0.06374  0.21161  1.0000
  C   C1536     1.0  0.58506  0.08878  0.26341  1.0000
  C   C1537     1.0  0.60570  0.16853  0.88302  1.0000
  C   C1538     1.0  0.62427  0.18517  0.86426  1.0000
  H   H1233     1.0  0.55392  0.06943  0.12907  1.0000
  C   C1539     1.0  0.62146  0.21072  0.81154  1.0000
  H   H1234     1.0  0.61451  0.20330  0.83766  1.0000
  C   C1540     1.0  0.56166  0.07247  0.14187  1.0000
  C   C1541     1.0  0.56289  0.21050  0.34797  1.0000
  H   H1235     1.0  0.59021  0.07981  0.18643  1.0000
  H   H1236     1.0  0.54724  0.12894  0.11764  1.0000
  H   H1237     1.0  0.57809  0.11872  0.81053  1.0000
  H   H1238     1.0  0.59939  0.16217  0.87196  1.0000
  H   H1239     1.0  0.59586  0.10351  0.70286  1.0000
  H   H1240     1.0  0.64537  0.23704  0.71355  1.0000
  H   H1241     1.0  0.57558  0.10031  0.78144  1.0000
  H   H1242     1.0  0.55575  0.04965  0.35520  1.0000
  C   C1542     1.0  0.64798  0.11803  0.52868  1.0000
  C   C1543     1.0  0.58245  0.10224  0.79950  1.0000
  S   S227      1.0  0.65491  0.10059  0.84592  1.0000
  H   H1243     1.0  0.56726  0.19549  0.13486  1.0000
  H   H1244     1.0  0.53553  0.04730  0.40520  1.0000
  C   C1544     1.0  0.61614  0.17664  0.85092  1.0000
  C   C1545     1.0  0.57625  0.05155  0.89297  1.0000
  C   C1546     1.0  0.59031  0.09475  0.80444  1.0000
  C   C1547     1.0  0.58370  0.11258  0.81656  1.0000
  C   C1548     1.0  0.54135  0.14048  0.92742  1.0000
  H   H1245     1.0  0.53864  0.08773  0.63525  1.0000
  C   C1549     1.0  0.62793  0.15737  0.57107  1.0000
  H   H1246     1.0  0.59375  0.06281  0.85025  1.0000
  C   C1550     1.0  0.66683  0.20444  0.89899  1.0000
  P   P51       1.0  0.58920  0.08177  0.78066  1.0000
  C   C1551     1.0  0.59263  0.11537  0.83924  1.0000
  Fe  Fe115     1.0  0.65470  0.11897  0.80262  1.0000
  C   C1552     1.0  0.59910  0.09747  0.82795  1.0000
  C   C1553     1.0  0.52304  0.14557  0.03936  1.0000
  C   C1554     1.0  0.56667  0.19206  0.17086  1.0000
  C   C1555     1.0  0.57720  0.19207  0.18529  1.0000
  C   C1556     1.0  0.55533  0.18751  0.20285  1.0000
  C   C1557     1.0  0.59516  0.22950  0.09978  1.0000
  C   C1558     1.0  0.56503  0.15515  0.00807  1.0000
  C   C1559     1.0  0.56047  0.06921  0.18885  1.0000
  H   H1247     1.0  0.59392  0.12367  0.85078  1.0000
  C   C1560     1.0  0.60038  0.10786  0.84461  1.0000
  H   H1248     1.0  0.58475  0.16021  0.52973  1.0000
  H   H1249     1.0  0.55112  0.07974  0.25700  1.0000
  C   C1561     1.0  0.63335  0.20982  0.79756  1.0000
  H   H1250     1.0  0.60522  0.09179  0.83206  1.0000
  C   C1562     1.0  0.56367  0.04967  0.90257  1.0000
  H   H1251     1.0  0.59091  0.17723  0.45821  1.0000
  S   S228      1.0  0.64867  0.13256  0.83766  1.0000
  H   H1252     1.0  0.61771  0.17626  0.81579  1.0000
  C   C1563     1.0  0.61845  0.17196  0.45759  1.0000
  C   C1564     1.0  0.58402  0.06119  0.85576  1.0000
  H   H1253     1.0  0.60599  0.17849  0.33047  1.0000
  P   P52       1.0  0.63743  0.19622  0.82267  1.0000
  H   H1254     1.0  0.61338  0.09967  0.74094  1.0000
  C   C1565     1.0  0.55445  0.18282  0.24915  1.0000
  C   C1566     1.0  0.57068  0.07221  0.20562  1.0000
  C   C1567     1.0  0.58844  0.09664  0.69899  1.0000
  H   H1255     1.0  0.56428  0.24373  0.79574  1.0000
  C   C1568     1.0  0.56645  0.20977  0.38847  1.0000
  C   C1569     1.0  0.64454  0.22136  0.94387  1.0000
  C   C1570     1.0  0.52602  0.02327  0.89646  1.0000
  C   C1571     1.0  0.57923  0.06886  0.82723  1.0000
  C   C1572     1.0  0.56659  0.06720  0.83824  1.0000
  C   C1573     1.0  0.57055  0.26150  0.86687  1.0000
  H   H1256     1.0  0.53093  0.07717  0.30714  1.0000
  C   C1574     1.0  0.58346  0.08503  0.73130  1.0000
  C   C1575     1.0  0.53637  0.07117  0.31758  1.0000
  C   C1576     1.0  0.54781  0.07254  0.28905  1.0000
  C   C1577     1.0  0.53631  0.12894  0.92153  1.0000
  H   H1257     1.0  0.54910  0.05629  0.88393  1.0000
  C   C1578     1.0  0.61429  0.09048  0.74172  1.0000
  C   C1579     1.0  0.64915  0.19961  0.85162  1.0000
  C   C1580     1.0  0.65127  0.18988  0.88189  1.0000
  C   C1581     1.0  0.63647  0.12373  0.18935  1.0000
  H   H1258     1.0  0.58970  0.18778  0.31429  1.0000
  H   H1259     1.0  0.54071  0.12170  0.92835  1.0000
  C   C1582     1.0  0.59765  0.17312  0.46924  1.0000
  H   H1260     1.0  0.66170  0.18481  0.92862  1.0000
  C   C1583     1.0  0.59417  0.16353  0.50950  1.0000
  C   C1584     1.0  0.59694  0.17261  0.33568  1.0000
  C   C1585     1.0  0.66003  0.19231  0.90562  1.0000
  H   H1261     1.0  0.58464  0.18716  0.24167  1.0000
  H   H1262     1.0  0.62872  0.19328  0.74317  1.0000
  C   C1586     1.0  0.57637  0.18723  0.23156  1.0000
  H   H1263     1.0  0.66419  0.18805  0.43812  1.0000
  C   C1587     1.0  0.62231  0.14882  0.92666  1.0000
  C   C1588     1.0  0.57400  0.07628  0.72484  1.0000
  C   C1589     1.0  0.56495  0.18241  0.26389  1.0000
  C   C1590     1.0  0.60414  0.08002  0.75975  1.0000
  C   C1591     1.0  0.65597  0.21179  0.84547  1.0000
  H   H1264     1.0  0.56938  0.13756  0.10284  1.0000
  C   C1592     1.0  0.55482  0.06468  0.30192  1.0000
  C   C1593     1.0  0.66489  0.21414  0.86861  1.0000
  Fe  Fe116     1.0  0.59244  0.02595  0.09202  1.0000
  C   C1594     1.0  0.56901  0.07946  0.68840  1.0000
  C   C1595     1.0  0.58770  0.17782  0.32633  1.0000
  H   H1265     1.0  0.64833  0.22759  0.90995  1.0000
  H   H1266     1.0  0.62496  0.13857  0.07580  1.0000
  Fe  Fe117     1.0  0.66436  0.14699  0.78517  1.0000
  C   C1596     1.0  0.56403  0.02971  0.27037  1.0000
  H   H1267     1.0  0.54957  0.14208  0.93847  1.0000
  C   C1597     1.0  0.52328  0.08347  0.18515  1.0000
  H   H1268     1.0  0.67360  0.20637  0.91754  1.0000
  C   C1598     1.0  0.63872  0.22973  0.74116  1.0000
  H   H1269     1.0  0.64615  0.18041  0.88713  1.0000
  C   C1599     1.0  0.56470  0.14114  0.07863  1.0000
  H   H1270     1.0  0.55366  0.04287  0.26589  1.0000
  C   C1600     1.0  0.57591  0.17023  0.33322  1.0000
  H   H1271     1.0  0.57051  0.18101  0.40671  1.0000
  C   C1601     1.0  0.56494  0.18993  0.34894  1.0000
  P   P53       1.0  0.56955  0.06628  0.26540  1.0000
  C   C1602     1.0  0.59340  0.07845  0.33655  1.0000
  H   H1272     1.0  0.60153  0.15566  0.35990  1.0000
  C   C1603     1.0  0.65738  0.18142  0.73519  1.0000
  C   C1604     1.0  0.61830  0.22114  0.79108  1.0000
  H   H1273     1.0  0.59987  0.15038  0.55413  1.0000
  C   C1605     1.0  0.64928  0.24296  0.02934  1.0000
  C   C1606     1.0  0.53194  0.06207  0.35937  1.0000
  H   H1274     1.0  0.60528  0.09671  0.32398  1.0000
  C   C1607     1.0  0.59446  0.15980  0.35227  1.0000
  H   H1275     1.0  0.53999  0.15906  0.92187  1.0000
  H   H1276     1.0  0.54553  0.17947  0.27326  1.0000
  C   C1608     1.0  0.56230  0.04138  0.26905  1.0000
  C   C1609     1.0  0.64290  0.25140  0.03956  1.0000
  C   C1610     1.0  0.64435  0.25635  0.07629  1.0000
  H   H1277     1.0  0.57184  0.19851  0.44107  1.0000
  C   C1611     1.0  0.65565  0.13014  0.51254  1.0000
  C   C1612     1.0  0.64085  0.16147  0.47667  1.0000
  C   C1613     1.0  0.63202  0.12547  0.04546  1.0000
  C   C1614     1.0  0.66398  0.12037  0.92387  1.0000
  C   C1615     1.0  0.62581  0.08919  0.72447  1.0000
  C   C1616     1.0  0.56924  0.19915  0.40934  1.0000
  C   C1617     1.0  0.58054  0.07604  0.28501  1.0000
  C   C1618     1.0  0.56850  0.18926  0.38968  1.0000
  C   C1619     1.0  0.65769  0.15945  0.42078  1.0000
  C   C1620     1.0  0.63023  0.11328  0.17946  1.0000
  H   H1278     1.0  0.52651  0.11332  0.14682  1.0000
  S   S229      1.0  0.65330  0.15018  0.73451  1.0000
  C   C1621     1.0  0.58488  0.03746  0.27168  1.0000
  C   C1622     1.0  0.64275  0.18998  0.77611  1.0000
  C   C1623     1.0  0.63673  0.18996  0.74141  1.0000
  C   C1624     1.0  0.62153  0.16345  0.64058  1.0000
  H   H1279     1.0  0.57025  0.06714  0.74834  1.0000
  C   C1625     1.0  0.66321  0.16627  0.06607  1.0000
  C   C1626     1.0  0.54940  0.16549  0.35354  1.0000
  H   H1280     1.0  0.58089  0.06129  0.34078  1.0000
  H   H1281     1.0  0.56127  0.07296  0.68497  1.0000
  H   H1282     1.0  0.56063  0.21870  0.33198  1.0000
  H   H1283     1.0  0.63365  0.09726  0.71159  1.0000
  C   C1627     1.0  0.64610  0.15437  0.45122  1.0000
  C   C1628     1.0  0.64895  0.12607  0.18475  1.0000
  C   C1629     1.0  0.58450  0.07101  0.32266  1.0000
  C   C1630     1.0  0.65669  0.13058  0.59066  1.0000
  H   H1284     1.0  0.59781  0.06030  0.76879  1.0000
  C   C1631     1.0  0.57179  0.05112  0.26999  1.0000
  C   C1632     1.0  0.57355  0.15738  0.34982  1.0000
  S   S230      1.0  0.58604  0.02955  0.16022  1.0000
  H   H1285     1.0  0.55919  0.20131  0.29720  1.0000
  H   H1286     1.0  0.63152  0.12969  0.20248  1.0000
  C   C1633     1.0  0.60558  0.06840  0.75726  1.0000
  P   P54       1.0  0.56378  0.17702  0.32433  1.0000
  H   H1287     1.0  0.52306  0.06105  0.38127  1.0000
  Fe  Fe118     1.0  0.65852  0.13507  0.70616  1.0000
  C   C1634     1.0  0.65216  0.21961  0.97275  1.0000
  C   C1635     1.0  0.55213  0.13634  0.08739  1.0000
  C   C1636     1.0  0.56210  0.20061  0.32828  1.0000
  C   C1637     1.0  0.53594  0.15004  0.91812  1.0000
  H   H1288     1.0  0.58085  0.15452  0.03269  1.0000
  H   H1289     1.0  0.65277  0.21045  0.03989  1.0000
  C   C1638     1.0  0.57115  0.15062  0.03905  1.0000
  H   H1290     1.0  0.61865  0.11029  0.58597  1.0000
  H   H1291     1.0  0.56949  0.09387  0.63057  1.0000
  H   H1292     1.0  0.64369  0.17915  0.49208  1.0000
  H   H1293     1.0  0.63413  0.07784  0.01393  1.0000
  H   H1294     1.0  0.64143  0.14482  0.45533  1.0000
  C   C1639     1.0  0.66941  0.15566  0.22738  1.0000
  C   C1640     1.0  0.58322  0.04918  0.26973  1.0000
  C   C1641     1.0  0.58277  0.15224  0.35946  1.0000
  C   C1642     1.0  0.53896  0.05434  0.37278  1.0000
  C   C1643     1.0  0.55039  0.05568  0.34429  1.0000
  H   H1295     1.0  0.58078  0.14236  0.37290  1.0000
  S   S231      1.0  0.66299  0.13867  0.62752  1.0000
  C   C1644     1.0  0.57366  0.09122  0.65761  1.0000
  C   C1645     1.0  0.55245  0.15045  0.01720  1.0000
  C   C1646     1.0  0.60977  0.17731  0.44320  1.0000
  H   H1296     1.0  0.56273  0.07345  0.81838  1.0000
  C   C1647     1.0  0.58355  0.09969  0.66227  1.0000
  C   C1648     1.0  0.61402  0.11382  0.52187  1.0000
  H   H1297     1.0  0.52885  0.04192  0.85637  1.0000
  C   C1649     1.0  0.52544  0.14806  0.90298  1.0000
  C   C1650     1.0  0.52243  0.11991  0.15964  1.0000
  C   C1651     1.0  0.64749  0.17363  0.47192  1.0000
  C   C1652     1.0  0.61786  0.11725  0.55810  1.0000
  H   H1298     1.0  0.56461  0.15122  0.35581  1.0000
  C   C1653     1.0  0.59404  0.09615  0.27715  1.0000
  C   C1654     1.0  0.52315  0.08961  0.78942  1.0000
  C   C1655     1.0  0.62368  0.12895  0.07623  1.0000
  H   H1299     1.0  0.65852  0.13460  0.47626  1.0000
  H   H1300     1.0  0.61191  0.10423  0.52146  1.0000
  H   H1301     1.0  0.61212  0.16407  0.58869  1.0000
  C   C1656     1.0  0.52268  0.03268  0.86973  1.0000
  C   C1657     1.0  0.65456  0.07762  0.26593  1.0000
  H   H1302     1.0  0.61246  0.18469  0.41184  1.0000
  H   H1303     1.0  0.56994  0.16244  0.97711  1.0000
  C   C1658     1.0  0.54586  0.14109  0.05733  1.0000
  P   P55       1.0  0.64449  0.13727  0.00286  1.0000
  H   H1304     1.0  0.58719  0.10880  0.63829  1.0000
  H   H1305     1.0  0.63625  0.18558  0.67767  1.0000
  C   C1659     1.0  0.51497  0.11157  0.07399  1.0000
  C   C1660     1.0  0.65749  0.24001  0.05372  1.0000
  H   H1306     1.0  0.65418  0.09590  0.23477  1.0000
  C   C1661     1.0  0.65131  0.18138  0.70101  1.0000
  C   C1662     1.0  0.66003  0.13630  0.54320  1.0000
  H   H1307     1.0  0.66905  0.12290  0.07769  1.0000
  C   C1663     1.0  0.64894  0.09178  0.01966  1.0000
  C   C1664     1.0  0.61503  0.16237  0.49823  1.0000
  H   H1308     1.0  0.54893  0.15723  0.29732  1.0000
  C   C1665     1.0  0.62129  0.12972  0.55733  1.0000
  C   C1666     1.0  0.64912  0.10797  0.15687  1.0000
  S   S232      1.0  0.60999  0.04152  0.07262  1.0000
  H   H1309     1.0  0.65381  0.25737  0.12855  1.0000
  H   H1310     1.0  0.63622  0.07657  0.71044  1.0000
  H   H1311     1.0  0.63991  0.24583  0.83343  1.0000
  H   H1312     1.0  0.58635  0.22346  0.12028  1.0000
  C   C1667     1.0  0.62666  0.24540  0.89368  1.0000
  C   C1668     1.0  0.65909  0.17869  0.44147  1.0000
  H   H1313     1.0  0.66568  0.24303  0.10769  1.0000
  H   H1314     1.0  0.54794  0.15426  0.99298  1.0000
  H   H1315     1.0  0.62607  0.06842  0.09730  1.0000
  H   H1316     1.0  0.64904  0.16041  0.84386  1.0000
  H   H1317     1.0  0.64584  0.13653  0.09683  1.0000
  H   H1318     1.0  0.62469  0.13216  0.58483  1.0000
  H   H1319     1.0  0.64416  0.15108  0.56549  1.0000
  H   H1320     1.0  0.65975  0.15951  0.28707  1.0000
  C   C1669     1.0  0.62056  0.13884  0.52086  1.0000
  H   H1321     1.0  0.61826  0.05813  0.73866  1.0000
  H   H1322     1.0  0.65437  0.21955  0.82366  1.0000
  H   H1323     1.0  0.61012  0.12015  0.45770  1.0000
  H   H1324     1.0  0.65606  0.15225  0.13010  1.0000
  C   C1670     1.0  0.59822  0.09101  0.31364  1.0000
  C   C1671     1.0  0.61322  0.12283  0.48553  1.0000
  C   C1672     1.0  0.61714  0.06714  0.73982  1.0000
  C   C1673     1.0  0.57527  0.02771  0.27233  1.0000
  C   C1674     1.0  0.54441  0.15688  0.33192  1.0000
  C   C1675     1.0  0.64188  0.21927  0.76140  1.0000
  H   H1325     1.0  0.53432  0.16154  0.05156  1.0000
  H   H1326     1.0  0.59094  0.05671  0.26712  1.0000
  H   H1327     1.0  0.53481  0.02548  0.90326  1.0000
  H   H1328     1.0  0.59679  0.07445  0.36443  1.0000
  H   H1329     1.0  0.62044  0.11102  0.18617  1.0000
  C   C1676     1.0  0.65629  0.08531  0.18503  1.0000
  C   C1677     1.0  0.52027  0.13648  0.89765  1.0000
  C   C1678     1.0  0.65522  0.11812  0.16938  1.0000
  H   H1330     1.0  0.54714  0.17082  0.41707  1.0000
  C   C1679     1.0  0.65829  0.16046  0.00038  1.0000
  H   H1331     1.0  0.63612  0.07690  0.15030  1.0000
  C   C1680     1.0  0.62726  0.07752  0.72377  1.0000
  C   C1681     1.0  0.61362  0.12006  0.10775  1.0000
  H   H1332     1.0  0.63148  0.09743  0.15548  1.0000
  C   C1682     1.0  0.61641  0.13528  0.48505  1.0000
  H   H1333     1.0  0.61871  0.09432  0.07985  1.0000
  H   H1334     1.0  0.66982  0.13954  0.00926  1.0000
  C   C1683     1.0  0.51127  0.08412  0.19202  1.0000
  C   C1684     1.0  0.66438  0.16316  0.25106  1.0000
  C   C1685     1.0  0.51943  0.07033  0.13382  1.0000
  H   H1335     1.0  0.61588  0.14213  0.45618  1.0000
  H   H1336     1.0  0.55766  0.04234  0.93190  1.0000
  C   C1686     1.0  0.65641  0.13110  0.97797  1.0000
  H   H1337     1.0  0.62774  0.17525  0.43662  1.0000
  P   P56       1.0  0.63224  0.25523  0.00837  1.0000
  C   C1687     1.0  0.63783  0.15467  0.58586  1.0000
  H   H1338     1.0  0.65320  0.07903  0.29984  1.0000
  P   P57       1.0  0.62599  0.15506  0.51687  1.0000
  C   C1688     1.0  0.64703  0.15079  0.91377  1.0000
  C   C1689     1.0  0.61188  0.10758  0.10923  1.0000
  C   C1690     1.0  0.66791  0.13395  0.98638  1.0000
  C   C1691     1.0  0.62008  0.10402  0.07868  1.0000
  S   S233      1.0  0.67121  0.13320  0.75203  1.0000
  C   C1692     1.0  0.64098  0.18564  0.70413  1.0000
  H   H1339     1.0  0.54971  0.02341  0.02984  1.0000
  C   C1693     1.0  0.65065  0.14572  0.07513  1.0000
  C   C1694     1.0  0.55885  0.05755  0.87547  1.0000
  H   H1340     1.0  0.64598  0.12243  0.93805  1.0000
  H   H1341     1.0  0.52267  0.06501  0.11163  1.0000
  C   C1695     1.0  0.63042  0.15475  0.88364  1.0000
  C   C1696     1.0  0.58729  0.25781  0.01365  1.0000
  H   H1342     1.0  0.63619  0.10999  0.02298  1.0000
  H   H1343     1.0  0.54477  0.12309  0.01324  1.0000
  H   H1344     1.0  0.60907  0.22171  0.80216  1.0000
  C   C1697     1.0  0.65128  0.14874  0.02827  1.0000
  C   C1698     1.0  0.65457  0.12432  0.94640  1.0000
  H   H1345     1.0  0.65096  0.21851  0.74884  1.0000
  H   H1346     1.0  0.59771  0.10588  0.25970  1.0000
  H   H1347     1.0  0.61269  0.14776  0.93108  1.0000
  C   C1699     1.0  0.64279  0.15593  0.87745  1.0000
  C   C1700     1.0  0.61988  0.16196  0.59856  1.0000
  H   H1348     1.0  0.62714  0.15809  0.85457  1.0000
  C   C1701     1.0  0.52716  0.15821  0.03628  1.0000
  S   S234      1.0  0.66763  0.22832  0.95510  1.0000
  H   H1349     1.0  0.58353  0.25467  0.05033  1.0000
  H   H1350     1.0  0.58169  0.09304  0.23594  1.0000
  H   H1351     1.0  0.66171  0.15386  0.40154  1.0000
  H   H1352     1.0  0.65661  0.15141  0.90753  1.0000
  H   H1353     1.0  0.51803  0.14844  0.12748  1.0000
  H   H1354     1.0  0.61995  0.13872  0.99550  1.0000
  C   C1702     1.0  0.62650  0.14366  0.96316  1.0000
  C   C1703     1.0  0.65313  0.18565  0.77271  1.0000
  C   C1704     1.0  0.63893  0.14452  0.95693  1.0000
  C   C1705     1.0  0.60341  0.22481  0.07423  1.0000
  C   C1706     1.0  0.61466  0.23267  0.04688  1.0000
  H   H1355     1.0  0.56491  0.01925  0.93984  1.0000
  H   H1356     1.0  0.54716  0.18756  0.19168  1.0000
  H   H1357     1.0  0.55074  0.26136  0.93727  1.0000
  H   H1358     1.0  0.52988  0.14089  0.33822  1.0000
  H   H1359     1.0  0.65459  0.17794  0.67230  1.0000
  H   H1360     1.0  0.60109  0.21511  0.07501  1.0000
  H   H1361     1.0  0.60730  0.12283  0.13166  1.0000
  C   C1707     1.0  0.63943  0.15616  0.62786  1.0000
  C   C1708     1.0  0.56976  0.25152  0.84774  1.0000
  C   C1709     1.0  0.59825  0.24204  0.09843  1.0000
  C   C1710     1.0  0.51287  0.09972  0.06774  1.0000
  C   C1711     1.0  0.61768  0.24534  0.04432  1.0000
  H   H1362     1.0  0.64685  0.15363  0.63964  1.0000
  H   H1363     1.0  0.61496  0.16640  0.66259  1.0000
  H   H1364     1.0  0.62444  0.23875  0.74044  1.0000
  S   S235      1.0  0.67443  0.20000  0.02377  1.0000
  H   H1365     1.0  0.63213  0.16093  0.68902  1.0000
  H   H1366     1.0  0.59184  0.24572  0.11803  1.0000
  H   H1367     1.0  0.65435  0.25833  0.93685  1.0000
  C   C1712     1.0  0.65531  0.06614  0.25982  1.0000
  H   H1368     1.0  0.66126  0.18110  0.24652  1.0000
  C   C1713     1.0  0.63975  0.08123  0.11394  1.0000
  C   C1714     1.0  0.63858  0.08168  0.03692  1.0000
  H   H1369     1.0  0.64793  0.23867  0.00250  1.0000
  H   H1370     1.0  0.61891  0.24191  0.88148  1.0000
  H   H1371     1.0  0.66962  0.17811  0.99727  1.0000
  C   C1715     1.0  0.53363  0.14756  0.35508  1.0000
  C   C1716     1.0  0.51256  0.16262  0.99497  1.0000
  C   C1717     1.0  0.62477  0.24764  0.93671  1.0000
  H   H1372     1.0  0.62093  0.22887  0.02719  1.0000
  C   C1718     1.0  0.65504  0.08719  0.22876  1.0000
  C   C1719     1.0  0.63653  0.10552  0.16259  1.0000
  C   C1720     1.0  0.66538  0.17543  0.22812  1.0000
  H   H1373     1.0  0.61551  0.24602  0.95665  1.0000
  H   H1374     1.0  0.52389  0.09088  0.95808  1.0000
  H   H1375     1.0  0.50855  0.16921  0.97779  1.0000
  H   H1376     1.0  0.65375  0.13378  0.19465  1.0000
  C   C1721     1.0  0.65653  0.15451  0.09400  1.0000
  C   C1722     1.0  0.56489  0.25150  0.81039  1.0000
  S   S236      1.0  0.66783  0.13999  0.25409  1.0000
  H   H1377     1.0  0.66539  0.17809  0.73270  1.0000
  H   H1378     1.0  0.54083  0.10212  0.00211  1.0000
  C   C1723     1.0  0.53581  0.11669  0.02845  1.0000
  H   H1379     1.0  0.57438  0.26133  0.89581  1.0000
  C   C1724     1.0  0.63848  0.24770  0.86655  1.0000
  C   C1725     1.0  0.51181  0.13646  0.19532  1.0000
  C   C1726     1.0  0.52781  0.14666  0.40018  1.0000
  H   H1380     1.0  0.50850  0.03770  0.84208  1.0000
  P   P58       1.0  0.51922  0.11205  0.89820  1.0000
  C   C1727     1.0  0.52654  0.12008  0.05516  1.0000
  C   C1728     1.0  0.63400  0.07640  0.08397  1.0000
  H   H1381     1.0  0.65712  0.05528  0.21170  1.0000
  H   H1382     1.0  0.52833  0.15426  0.45746  1.0000
  H   H1383     1.0  0.52340  0.09743  0.76250  1.0000
  H   H1384     1.0  0.55702  0.26145  0.76312  1.0000
  C   C1729     1.0  0.63471  0.25192  0.95346  1.0000
  C   C1730     1.0  0.55156  0.26225  0.00470  1.0000
  C   C1731     1.0  0.65466  0.09674  0.04963  1.0000
  C   C1732     1.0  0.60948  0.24994  0.07092  1.0000
  H   H1385     1.0  0.66616  0.14553  0.52995  1.0000
  C   C1733     1.0  0.67301  0.10612  0.10884  1.0000
  H   H1386     1.0  0.66254  0.23364  0.04492  1.0000
  H   H1387     1.0  0.52538  0.17644  0.01155  1.0000
  C   C1734     1.0  0.66420  0.16914  0.01927  1.0000
  H   H1388     1.0  0.65947  0.16287  0.96385  1.0000
  H   H1389     1.0  0.54279  0.01601  0.96455  1.0000
  H   H1390     1.0  0.67008  0.22356  0.86417  1.0000
  C   C1735     1.0  0.64655  0.25464  0.92532  1.0000
  C   C1736     1.0  0.52288  0.13122  0.13026  1.0000
  C   C1737     1.0  0.52222  0.09628  0.04242  1.0000
  C   C1738     1.0  0.66417  0.17160  0.41581  1.0000
  H   H1391     1.0  0.52204  0.13626  0.74259  1.0000
  C   C1739     1.0  0.65923  0.24529  0.08915  1.0000
  H   H1392     1.0  0.52137  0.15554  0.89498  1.0000
  H   H1393     1.0  0.54526  0.25316  0.02101  1.0000
  Fe  Fe119     1.0  0.51486  0.03930  0.00866  1.0000
  H   H1394     1.0  0.66264  0.10459  0.03554  1.0000
  H   H1395     1.0  0.65254  0.09568  0.98297  1.0000
  C   C1740     1.0  0.51761  0.13953  0.14865  1.0000
  H   H1396     1.0  0.66256  0.11536  0.89884  1.0000
  H   H1397     1.0  0.52054  0.08690  0.03910  1.0000
  C   C1741     1.0  0.65669  0.06424  0.21633  1.0000
  S   S237      1.0  0.67244  0.19578  0.15389  1.0000
  H   H1398     1.0  0.66775  0.17312  0.08048  1.0000
  H   H1399     1.0  0.65759  0.25421  0.86127  1.0000
  H   H1400     1.0  0.63918  0.26254  0.08583  1.0000
  H   H1401     1.0  0.60226  0.01743  0.97870  1.0000
  H   H1402     1.0  0.51962  0.13923  0.41842  1.0000
  C   C1742     1.0  0.65257  0.25338  0.10073  1.0000
  S   S238      1.0  0.51380  0.05885  0.99775  1.0000
  H   H1403     1.0  0.61164  0.25962  0.07025  1.0000
  H   H1404     1.0  0.51004  0.13185  0.02283  1.0000
  C   C1743     1.0  0.56081  0.26149  0.79206  1.0000
  H   H1405     1.0  0.57670  0.01874  0.27228  1.0000
  H   H1406     1.0  0.51641  0.10820  0.22861  1.0000
  C   C1744     1.0  0.51348  0.14153  0.02055  1.0000
  C   C1745     1.0  0.51684  0.12820  0.77067  1.0000
  C   C1746     1.0  0.51428  0.11505  0.84651  1.0000
  C   C1747     1.0  0.51121  0.03030  0.86164  1.0000
  H   H1407     1.0  0.51211  0.13508  0.88593  1.0000
  C   C1748     1.0  0.51217  0.08297  0.82270  1.0000
  C   C1749     1.0  0.51175  0.07287  0.85803  1.0000
  C   C1750     1.0  0.51133  0.12516  0.22411  1.0000
  S   S239      1.0  0.67427  0.16469  0.80111  1.0000
  H   H1408     1.0  0.67319  0.17546  0.39248  1.0000
  C   C1751     1.0  0.50824  0.15003  0.99857  1.0000
  Fe  Fe120     1.0  0.59813  0.30224  0.00659  1.0000
  S   S240      1.0  0.60767  0.31519  0.93657  1.0000
  H   H1409     1.0  0.63609  0.36425  0.71649  1.0000
  Fe  Fe121     1.0  0.59727  0.32348  0.05126  1.0000
  S   S241      1.0  0.60652  0.33766  0.98427  1.0000
  S   S242      1.0  0.59536  0.33269  0.10911  1.0000
  Fe  Fe122     1.0  0.59432  0.32598  0.95378  1.0000
  S   S243      1.0  0.58886  0.33855  0.89951  1.0000
  Fe  Fe123     1.0  0.61909  0.32605  0.97246  1.0000
  S   S244      1.0  0.63892  0.33624  0.93782  1.0000
  S   S245      1.0  0.58400  0.31244  0.02205  1.0000
  S   S246      1.0  0.61070  0.31234  0.04130  1.0000
  Fe  Fe124     1.0  0.54048  0.37398  0.28129  1.0000
  S   S247      1.0  0.55279  0.37028  0.22324  1.0000
  S   S248      1.0  0.52576  0.38363  0.27701  1.0000
  Fe  Fe125     1.0  0.55412  0.36524  0.35076  1.0000
  S   S249      1.0  0.56714  0.36023  0.29838  1.0000
  S   S250      1.0  0.55998  0.36700  0.41497  1.0000
  Fe  Fe126     1.0  0.56794  0.37814  0.25143  1.0000
  S   S251      1.0  0.58622  0.39100  0.21112  1.0000
  Fe  Fe127     1.0  0.55101  0.35257  0.27446  1.0000
  S   S252      1.0  0.54858  0.33540  0.24904  1.0000
  S   S253      1.0  0.55591  0.38363  0.30412  1.0000
  S   S254      1.0  0.53761  0.35569  0.33184  1.0000
  Fe  Fe128     1.0  0.62464  0.42971  0.31882  1.0000
  S   S255      1.0  0.61867  0.44416  0.34837  1.0000
  S   S256      1.0  0.61339  0.40992  0.34959  1.0000
  Fe  Fe129     1.0  0.64682  0.44805  0.25105  1.0000
  P   P59       1.0  0.57451  0.43444  0.21747  1.0000
  Fe  Fe130     1.0  0.63826  0.45130  0.34686  1.0000
  C   C1752     1.0  0.61118  0.46287  0.41348  1.0000
  Fe  Fe131     1.0  0.62370  0.45568  0.27538  1.0000
  S   S257      1.0  0.61136  0.46649  0.24953  1.0000
  S   S258      1.0  0.64396  0.43598  0.32191  1.0000
  S   S259      1.0  0.62794  0.44056  0.24607  1.0000
  Fe  Fe132     1.0  0.53885  0.37846  0.73278  1.0000
  S   S260      1.0  0.52773  0.35886  0.74508  1.0000
  S   S261      1.0  0.53473  0.39579  0.74684  1.0000
  Fe  Fe133     1.0  0.56179  0.37354  0.68434  1.0000
  S   S262      1.0  0.55290  0.35357  0.69253  1.0000
  S   S263      1.0  0.58126  0.38320  0.64660  1.0000
  Fe  Fe134     1.0  0.53776  0.36048  0.67258  1.0000
  S   S264      1.0  0.52858  0.35382  0.62130  1.0000
  Fe  Fe135     1.0  0.54382  0.35344  0.76410  1.0000
  S   S265      1.0  0.54207  0.33765  0.82548  1.0000
  S   S266      1.0  0.54744  0.38044  0.65906  1.0000
  S   S267      1.0  0.55406  0.37287  0.75738  1.0000
  Fe  Fe136     1.0  0.63978  0.42420  0.76925  1.0000
  S   S268      1.0  0.62615  0.43397  0.79289  1.0000
  C   C1753     1.0  0.55169  0.45079  0.46372  1.0000
  Fe  Fe137     1.0  0.64302  0.43655  0.66662  1.0000
  S   S269      1.0  0.63018  0.44783  0.68311  1.0000
  S   S270      1.0  0.65025  0.43343  0.59678  1.0000
  Fe  Fe138     1.0  0.63896  0.45065  0.73952  1.0000
  S   S271      1.0  0.64343  0.46806  0.76259  1.0000
  Fe  Fe139     1.0  0.61857  0.43028  0.73507  1.0000
  S   S272      1.0  0.59852  0.42437  0.74268  1.0000
  S   S273      1.0  0.65315  0.44104  0.71847  1.0000
  S   S274      1.0  0.63089  0.41887  0.71660  1.0000
  S   S275      1.0  0.51387  0.40203  0.98715  1.0000
  H   H1410     1.0  0.65255  0.47046  0.60584  1.0000
  S   S276      1.0  0.53966  0.43178  0.95088  1.0000
  H   H1411     1.0  0.56968  0.32750  0.98680  1.0000
  Fe  Fe140     1.0  0.59494  0.48792  0.91994  1.0000
  S   S277      1.0  0.59340  0.47460  0.98601  1.0000
  S   S278      1.0  0.59646  0.48205  0.85434  1.0000
  Fe  Fe141     1.0  0.57760  0.48083  0.01556  1.0000
  S   S279      1.0  0.56177  0.46582  0.06418  1.0000
  Fe  Fe142     1.0  0.60439  0.49047  0.00386  1.0000
  H   H1412     1.0  0.53893  0.40744  0.00193  1.0000
  S   S280      1.0  0.57789  0.49280  0.94815  1.0000
  C   C1754     1.0  0.54626  0.44051  0.98366  1.0000
  C   C1755     1.0  0.55609  0.45095  0.96146  1.0000
  C   C1756     1.0  0.56112  0.45849  0.98641  1.0000
  C   C1757     1.0  0.55630  0.45564  0.03375  1.0000
  C   C1758     1.0  0.54681  0.44489  0.05636  1.0000
  C   C1759     1.0  0.54179  0.43731  0.03129  1.0000
  H   H1413     1.0  0.55958  0.45342  0.92469  1.0000
  H   H1414     1.0  0.56854  0.46665  0.96866  1.0000
  H   H1415     1.0  0.54312  0.44261  0.09301  1.0000
  H   H1416     1.0  0.53446  0.42903  0.04880  1.0000
  C   C1760     1.0  0.63047  0.47225  0.78704  1.0000
  C   C1761     1.0  0.63151  0.48111  0.81184  1.0000
  C   C1762     1.0  0.62116  0.48433  0.83217  1.0000
  C   C1763     1.0  0.60977  0.47880  0.82733  1.0000
  C   C1764     1.0  0.60883  0.47026  0.80127  1.0000
  C   C1765     1.0  0.61909  0.46684  0.78180  1.0000
  H   H1417     1.0  0.64030  0.48539  0.81567  1.0000
  H   H1418     1.0  0.62193  0.49109  0.85145  1.0000
  H   H1419     1.0  0.60012  0.46615  0.79653  1.0000
  H   H1420     1.0  0.61819  0.46008  0.76245  1.0000
  C   C1766     1.0  0.52430  0.46440  0.87696  1.0000
  C   C1767     1.0  0.56472  0.28093  0.01020  1.0000
  H   H1421     1.0  0.64392  0.49472  0.04871  1.0000
  Fe  Fe143     1.0  0.51981  0.42212  0.98244  1.0000
  C   C1768     1.0  0.63020  0.46261  0.96289  1.0000
  C   C1769     1.0  0.58618  0.39515  0.67095  1.0000
  C   C1770     1.0  0.59858  0.40027  0.66471  1.0000
  C   C1771     1.0  0.60247  0.40949  0.68572  1.0000
  C   C1772     1.0  0.59398  0.41352  0.71325  1.0000
  C   C1773     1.0  0.58159  0.40862  0.71839  1.0000
  C   C1774     1.0  0.57770  0.39944  0.69737  1.0000
  H   H1422     1.0  0.60518  0.39702  0.64419  1.0000
  H   H1423     1.0  0.61202  0.41346  0.68035  1.0000
  H   H1424     1.0  0.57495  0.41183  0.73895  1.0000
  H   H1425     1.0  0.56812  0.39591  0.70093  1.0000
  C   C1775     1.0  0.64374  0.45110  0.45936  1.0000
  C   C1776     1.0  0.56816  0.28555  0.96258  1.0000
  C   C1777     1.0  0.64941  0.43500  0.50790  1.0000
  C   C1778     1.0  0.64726  0.44021  0.54481  1.0000
  C   C1779     1.0  0.64320  0.45081  0.53894  1.0000
  C   C1780     1.0  0.64169  0.45635  0.49620  1.0000
  C   C1781     1.0  0.66387  0.37113  0.17970  1.0000
  C   C1782     1.0  0.51091  0.39029  0.22429  1.0000
  H   H1426     1.0  0.64146  0.45490  0.56701  1.0000
  H   H1427     1.0  0.63894  0.46479  0.49162  1.0000
  C   C1783     1.0  0.61368  0.47180  0.18968  1.0000
  C   C1784     1.0  0.62317  0.46990  0.15884  1.0000
  C   C1785     1.0  0.62462  0.47396  0.11143  1.0000
  C   C1786     1.0  0.61668  0.48003  0.09440  1.0000
  H   H1428     1.0  0.53932  0.41781  0.58816  1.0000
  C   C1787     1.0  0.60567  0.47778  0.17265  1.0000
  H   H1429     1.0  0.62937  0.46526  0.17153  1.0000
  H   H1430     1.0  0.63196  0.47242  0.08782  1.0000
  H   H1431     1.0  0.60340  0.33635  0.41560  1.0000
  H   H1432     1.0  0.65507  0.46644  0.11439  1.0000
  C   C1788     1.0  0.55064  0.36406  0.47100  1.0000
  C   C1789     1.0  0.53821  0.35797  0.48382  1.0000
  C   C1790     1.0  0.53145  0.35496  0.52993  1.0000
  C   C1791     1.0  0.53707  0.35810  0.56331  1.0000
  C   C1792     1.0  0.54939  0.36451  0.55008  1.0000
  C   C1793     1.0  0.55610  0.36752  0.50414  1.0000
  H   H1433     1.0  0.53386  0.35539  0.45847  1.0000
  H   H1434     1.0  0.52188  0.35008  0.53986  1.0000
  H   H1435     1.0  0.55380  0.36697  0.57545  1.0000
  H   H1436     1.0  0.56563  0.37247  0.49417  1.0000
  C   C1794     1.0  0.52029  0.38469  0.22799  1.0000
  H   H1437     1.0  0.64791  0.48707  0.12313  1.0000
  C   C1795     1.0  0.54300  0.49767  0.84725  1.0000
  H   H1438     1.0  0.57905  0.45463  0.13620  1.0000
  H   H1439     1.0  0.66035  0.43273  0.81048  1.0000
  H   H1440     1.0  0.65507  0.48523  0.88530  1.0000
  H   H1441     1.0  0.59137  0.37561  0.50988  1.0000
  H   H1442     1.0  0.61947  0.41567  0.46404  1.0000
  C   C1796     1.0  0.59661  0.27449  0.94454  1.0000
  C   C1797     1.0  0.59399  0.39586  0.24970  1.0000
  C   C1798     1.0  0.58889  0.39099  0.29694  1.0000
  C   C1799     1.0  0.59504  0.39503  0.32759  1.0000
  C   C1800     1.0  0.60613  0.40426  0.31111  1.0000
  C   C1801     1.0  0.61133  0.40892  0.26396  1.0000
  C   C1802     1.0  0.60537  0.40462  0.23331  1.0000
  H   H1443     1.0  0.58025  0.38404  0.31020  1.0000
  H   H1444     1.0  0.59101  0.39124  0.36406  1.0000
  H   H1445     1.0  0.62003  0.41574  0.25113  1.0000
  H   H1446     1.0  0.60954  0.40816  0.19698  1.0000
  H   H1447     1.0  0.60175  0.34402  0.79493  1.0000
  C   C1803     1.0  0.55485  0.33799  0.84770  1.0000
  C   C1804     1.0  0.55503  0.32764  0.88076  1.0000
  C   C1805     1.0  0.56526  0.32763  0.89793  1.0000
  C   C1806     1.0  0.57532  0.33809  0.88250  1.0000
  C   C1807     1.0  0.57494  0.34855  0.85065  1.0000
  C   C1808     1.0  0.56485  0.34846  0.83291  1.0000
  H   H1448     1.0  0.54727  0.31956  0.89291  1.0000
  H   H1449     1.0  0.56541  0.31950  0.92254  1.0000
  H   H1450     1.0  0.58266  0.35669  0.83868  1.0000
  H   H1451     1.0  0.56490  0.35649  0.80747  1.0000
  C   C1809     1.0  0.58193  0.33338  0.14575  1.0000
  C   C1810     1.0  0.58293  0.34234  0.16997  1.0000
  C   C1811     1.0  0.57267  0.34328  0.20027  1.0000
  C   C1812     1.0  0.56135  0.33487  0.20828  1.0000
  C   C1813     1.0  0.56031  0.32578  0.18442  1.0000
  C   C1814     1.0  0.57055  0.32514  0.15266  1.0000
  H   H1452     1.0  0.59170  0.34868  0.16488  1.0000
  H   H1453     1.0  0.57356  0.35039  0.21798  1.0000
  H   H1454     1.0  0.55158  0.31920  0.19069  1.0000
  H   H1455     1.0  0.56971  0.31811  0.13452  1.0000
  C   C1815     1.0  0.64777  0.34459  0.96688  1.0000
  C   C1816     1.0  0.65764  0.35491  0.94172  1.0000
  C   C1817     1.0  0.66536  0.36116  0.96380  1.0000
  C   C1818     1.0  0.66346  0.35690  0.01110  1.0000
  C   C1819     1.0  0.65362  0.34655  0.03609  1.0000
  C   C1820     1.0  0.64565  0.34060  0.01430  1.0000
  H   H1456     1.0  0.65939  0.35801  0.90496  1.0000
  C   C1821     1.0  0.55462  0.50542  0.82324  1.0000
  H   H1457     1.0  0.63815  0.33260  0.03397  1.0000
  H   H1458     1.0  0.57004  0.30519  0.79554  1.0000
  P   P60       1.0  0.64521  0.44684  0.96807  1.0000
  C   C1822     1.0  0.52314  0.39537  0.79414  1.0000
  H   H1459     1.0  0.56872  0.28625  0.03085  1.0000
  C   C1823     1.0  0.63513  0.29694  0.97458  1.0000
  C   C1824     1.0  0.54149  0.39150  0.88723  1.0000
  H   H1460     1.0  0.51496  0.38532  0.68671  1.0000
  C   C1825     1.0  0.58632  0.36752  0.09345  1.0000
  C   C1826     1.0  0.59114  0.35857  0.36888  1.0000
  H   H1461     1.0  0.58753  0.41473  0.57107  1.0000
  H   H1462     1.0  0.64282  0.44485  0.13145  1.0000
  H   H1463     1.0  0.59584  0.31306  0.55071  1.0000
  H   H1464     1.0  0.56142  0.49474  0.09181  1.0000
  C   C1827     1.0  0.62785  0.44757  0.91915  1.0000
  H   H1465     1.0  0.55050  0.35229  0.97202  1.0000
  C   C1828     1.0  0.52657  0.46849  0.96569  1.0000
  H   H1466     1.0  0.63872  0.43594  0.06880  1.0000
  H   H1467     1.0  0.54977  0.47458  0.14742  1.0000
  C   C1829     1.0  0.52136  0.44688  0.82687  1.0000
  H   H1468     1.0  0.51727  0.37332  0.62955  1.0000
  C   C1830     1.0  0.67023  0.46343  0.84336  1.0000
  C   C1831     1.0  0.54501  0.48053  0.13113  1.0000
  C   C1832     1.0  0.51657  0.45696  0.81815  1.0000
  C   C1833     1.0  0.60103  0.36521  0.33119  1.0000
  C   C1834     1.0  0.61164  0.36146  0.32396  1.0000
  C   C1835     1.0  0.61241  0.35103  0.35451  1.0000
  H   H1469     1.0  0.60043  0.37322  0.30720  1.0000
  H   H1470     1.0  0.61920  0.36659  0.29436  1.0000
  H   H1471     1.0  0.62063  0.34808  0.34872  1.0000
  C   C1836     1.0  0.64051  0.37188  0.00658  1.0000
  C   C1837     1.0  0.62920  0.36585  0.00264  1.0000
  C   C1838     1.0  0.61902  0.36209  0.04032  1.0000
  C   C1839     1.0  0.62013  0.36447  0.08178  1.0000
  C   C1840     1.0  0.63147  0.37055  0.08603  1.0000
  C   C1841     1.0  0.64170  0.37396  0.04833  1.0000
  P   P61       1.0  0.63305  0.37352  0.13972  1.0000
  C   C1842     1.0  0.64562  0.36817  0.15298  1.0000
  C   C1843     1.0  0.63627  0.38985  0.13618  1.0000
  C   C1844     1.0  0.63300  0.39372  0.17581  1.0000
  C   C1845     1.0  0.63644  0.40624  0.17414  1.0000
  C   C1846     1.0  0.64326  0.41500  0.13319  1.0000
  C   C1847     1.0  0.64662  0.41126  0.09371  1.0000
  C   C1848     1.0  0.64316  0.39875  0.09519  1.0000
  C   C1849     1.0  0.65379  0.37497  0.17192  1.0000
  C   C1850     1.0  0.61917  0.36500  0.18386  1.0000
  C   C1851     1.0  0.61764  0.35280  0.20872  1.0000
  C   C1852     1.0  0.60664  0.34605  0.24109  1.0000
  C   C1853     1.0  0.59710  0.35143  0.24894  1.0000
  C   C1854     1.0  0.59853  0.36353  0.22414  1.0000
  C   C1855     1.0  0.60945  0.37026  0.19145  1.0000
  H   H1472     1.0  0.64845  0.37458  0.97763  1.0000
  H   H1473     1.0  0.62841  0.36373  0.97082  1.0000
  H   H1474     1.0  0.61033  0.35698  0.03787  1.0000
  H   H1475     1.0  0.61217  0.36112  0.11069  1.0000
  H   H1476     1.0  0.65067  0.37796  0.05141  1.0000
  H   H1477     1.0  0.62813  0.38707  0.20839  1.0000
  H   H1478     1.0  0.63429  0.40912  0.20506  1.0000
  H   H1479     1.0  0.64642  0.42460  0.13266  1.0000
  H   H1480     1.0  0.65230  0.41801  0.06230  1.0000
  H   H1481     1.0  0.64623  0.39611  0.06452  1.0000
  H   H1482     1.0  0.64155  0.35212  0.12733  1.0000
  H   H1483     1.0  0.65267  0.38345  0.17943  1.0000
  H   H1484     1.0  0.62479  0.34834  0.20255  1.0000
  H   H1485     1.0  0.60540  0.33656  0.25947  1.0000
  H   H1486     1.0  0.58851  0.34617  0.27354  1.0000
  H   H1487     1.0  0.59107  0.36761  0.22962  1.0000
  H   H1488     1.0  0.61019  0.37950  0.17185  1.0000
  H   H1489     1.0  0.62535  0.41523  0.59640  1.0000
  H   H1490     1.0  0.60023  0.28426  0.92743  1.0000
  H   H1491     1.0  0.52724  0.46815  0.16629  1.0000
  P   P62       1.0  0.55463  0.35766  0.05719  1.0000
  H   H1492     1.0  0.61600  0.31601  0.81558  1.0000
  H   H1493     1.0  0.53233  0.37569  0.19501  1.0000
  C   C1856     1.0  0.51700  0.45805  0.99194  1.0000
  C   C1857     1.0  0.56113  0.40637  0.50524  1.0000
  C   C1858     1.0  0.57386  0.39420  0.53331  1.0000
  C   C1859     1.0  0.58417  0.40262  0.50148  1.0000
  C   C1860     1.0  0.58301  0.41292  0.47144  1.0000
  C   C1861     1.0  0.57154  0.41477  0.47309  1.0000
  C   C1862     1.0  0.54542  0.44328  0.44149  1.0000
  C   C1863     1.0  0.54370  0.43048  0.45434  1.0000
  H   H1494     1.0  0.57473  0.38625  0.55694  1.0000
  H   H1495     1.0  0.59305  0.40115  0.50017  1.0000
  H   H1496     1.0  0.59099  0.41935  0.44627  1.0000
  H   H1497     1.0  0.57079  0.42265  0.44879  1.0000
  C   C1864     1.0  0.51792  0.32966  0.04688  1.0000
  H   H1498     1.0  0.54187  0.44736  0.41426  1.0000
  H   H1499     1.0  0.53894  0.42493  0.43616  1.0000
  C   C1865     1.0  0.53919  0.41589  0.23082  1.0000
  C   C1866     1.0  0.53918  0.41603  0.18574  1.0000
  C   C1867     1.0  0.54985  0.42171  0.15055  1.0000
  C   C1868     1.0  0.56058  0.42702  0.16054  1.0000
  C   C1869     1.0  0.56077  0.42665  0.20584  1.0000
  C   C1870     1.0  0.54988  0.42138  0.24081  1.0000
  C   C1871     1.0  0.58775  0.43317  0.17925  1.0000
  C   C1872     1.0  0.59895  0.44204  0.16956  1.0000
  C   C1873     1.0  0.60960  0.44022  0.14532  1.0000
  C   C1874     1.0  0.60910  0.42957  0.13041  1.0000
  C   C1875     1.0  0.59795  0.42081  0.13912  1.0000
  C   C1876     1.0  0.58735  0.42246  0.16425  1.0000
  H   H1500     1.0  0.53088  0.41142  0.25806  1.0000
  H   H1501     1.0  0.53088  0.41181  0.17805  1.0000
  H   H1502     1.0  0.54977  0.42209  0.11548  1.0000
  H   H1503     1.0  0.56870  0.43147  0.13288  1.0000
  H   H1504     1.0  0.59951  0.45013  0.18223  1.0000
  H   H1505     1.0  0.61826  0.44693  0.13911  1.0000
  H   H1506     1.0  0.61737  0.42796  0.11308  1.0000
  H   H1507     1.0  0.59758  0.41239  0.12870  1.0000
  H   H1508     1.0  0.57896  0.41512  0.17365  1.0000
  H   H1509     1.0  0.58973  0.44398  0.27273  1.0000
  C   C1877     1.0  0.54867  0.33196  0.09228  1.0000
  C   C1878     1.0  0.54296  0.50849  0.97459  1.0000
  C   C1879     1.0  0.54821  0.42509  0.48978  1.0000
  C   C1880     1.0  0.63899  0.39894  0.64850  1.0000
  C   C1881     1.0  0.63810  0.39571  0.60830  1.0000
  C   C1882     1.0  0.62992  0.38461  0.61042  1.0000
  C   C1883     1.0  0.62250  0.37683  0.65272  1.0000
  C   C1884     1.0  0.62295  0.38031  0.69317  1.0000
  C   C1885     1.0  0.63153  0.39124  0.69073  1.0000
  P   P63       1.0  0.61338  0.37054  0.74838  1.0000
  C   C1886     1.0  0.62247  0.36279  0.77798  1.0000
  C   C1887     1.0  0.60767  0.38043  0.78036  1.0000
  C   C1888     1.0  0.61495  0.38669  0.80363  1.0000
  C   C1889     1.0  0.61100  0.39500  0.82580  1.0000
  C   C1890     1.0  0.61883  0.35834  0.82587  1.0000
  C   C1891     1.0  0.62584  0.35229  0.84884  1.0000
  C   C1892     1.0  0.63651  0.35066  0.82423  1.0000
  C   C1893     1.0  0.64016  0.35499  0.77656  1.0000
  C   C1894     1.0  0.63314  0.36100  0.75342  1.0000
  C   C1895     1.0  0.59715  0.34695  0.76959  1.0000
  H   H1510     1.0  0.64537  0.40751  0.64696  1.0000
  H   H1511     1.0  0.64376  0.40185  0.57566  1.0000
  H   H1512     1.0  0.62929  0.38203  0.57929  1.0000
  H   H1513     1.0  0.61644  0.36817  0.65355  1.0000
  H   H1514     1.0  0.63248  0.39386  0.72145  1.0000
  H   H1515     1.0  0.62384  0.38543  0.80384  1.0000
  H   H1516     1.0  0.61687  0.40006  0.84223  1.0000
  H   H1517     1.0  0.61053  0.35946  0.84550  1.0000
  H   H1518     1.0  0.62301  0.34887  0.88582  1.0000
  H   H1519     1.0  0.64196  0.34605  0.84222  1.0000
  H   H1520     1.0  0.64845  0.35371  0.75766  1.0000
  C   C1896     1.0  0.56238  0.39602  0.53500  1.0000
  C   C1897     1.0  0.64177  0.40992  0.98028  1.0000
  H   H1521     1.0  0.61710  0.29162  0.96616  1.0000
  C   C1898     1.0  0.64760  0.35739  0.14273  1.0000
  S   S281      1.0  0.59226  0.28104  0.02680  1.0000
  H   H1522     1.0  0.56922  0.39731  0.93647  1.0000
  C   C1899     1.0  0.60077  0.35924  0.74242  1.0000
  C   C1900     1.0  0.66230  0.39205  0.29472  1.0000
  H   H1523     1.0  0.58409  0.32909  0.78815  1.0000
  C   C1901     1.0  0.53965  0.35625  0.09147  1.0000
  H   H1524     1.0  0.56620  0.38765  0.87412  1.0000
  C   C1902     1.0  0.58469  0.43448  0.29073  1.0000
  H   H1525     1.0  0.59395  0.43403  0.34375  1.0000
  S   S282      1.0  0.64288  0.46410  0.27566  1.0000
  S   S283      1.0  0.60736  0.50352  0.93439  1.0000
  H   H1526     1.0  0.58297  0.36165  0.37401  1.0000
  C   C1903     1.0  0.63961  0.43013  0.98486  1.0000
  H   H1527     1.0  0.65329  0.42546  0.23831  1.0000
  C   C1904     1.0  0.58713  0.33840  0.76576  1.0000
  S   S284      1.0  0.58831  0.49610  0.03740  1.0000
  C   C1905     1.0  0.51459  0.48317  0.91485  1.0000
  C   C1906     1.0  0.60258  0.34438  0.39243  1.0000
  H   H1528     1.0  0.55544  0.39476  0.44331  1.0000
  H   H1529     1.0  0.55450  0.38930  0.55941  1.0000
  H   H1530     1.0  0.53682  0.39281  0.95634  1.0000
  C   C1907     1.0  0.56356  0.34057  0.01864  1.0000
  H   H1531     1.0  0.54962  0.42143  0.27577  1.0000
  C   C1908     1.0  0.59264  0.29016  0.83630  1.0000
  C   C1909     1.0  0.54553  0.49935  0.07720  1.0000
  C   C1910     1.0  0.62375  0.27578  0.98477  1.0000
  C   C1911     1.0  0.66725  0.40746  0.89809  1.0000
  C   C1912     1.0  0.59184  0.34809  0.39983  1.0000
  P   P64       1.0  0.52505  0.50496  0.05532  1.0000
  H   H1532     1.0  0.63575  0.30674  0.96663  1.0000
  C   C1913     1.0  0.53233  0.47686  0.14134  1.0000
  C   C1914     1.0  0.57623  0.42769  0.27286  1.0000
  C   C1915     1.0  0.58717  0.42885  0.33091  1.0000
  C   C1916     1.0  0.58118  0.41943  0.58463  1.0000
  H   H1533     1.0  0.56740  0.47050  0.27017  1.0000
  H   H1534     1.0  0.53322  0.34453  0.91724  1.0000
  H   H1535     1.0  0.63323  0.50689  0.93834  1.0000
  H   H1536     1.0  0.58006  0.45826  0.86546  1.0000
  C   C1917     1.0  0.60987  0.39805  0.94820  1.0000
  C   C1918     1.0  0.62461  0.28843  0.97433  1.0000
  H   H1537     1.0  0.57480  0.33454  0.36447  1.0000
  P   P65       1.0  0.54628  0.40860  0.50673  1.0000
  H   H1538     1.0  0.60065  0.46627  0.36543  1.0000
  C   C1919     1.0  0.61266  0.46352  0.55988  1.0000
  C   C1920     1.0  0.61265  0.41022  0.92157  1.0000
  C   C1921     1.0  0.59627  0.38248  0.78055  1.0000
  C   C1922     1.0  0.64743  0.44025  0.46569  1.0000
  C   C1923     1.0  0.56616  0.33411  0.38657  1.0000
  H   H1539     1.0  0.55623  0.32931  0.33866  1.0000
  C   C1924     1.0  0.52661  0.37556  0.95006  1.0000
  C   C1925     1.0  0.54633  0.39499  0.44202  1.0000
  C   C1926     1.0  0.53978  0.40099  0.46872  1.0000
  C   C1927     1.0  0.55638  0.44554  0.49848  1.0000
  C   C1928     1.0  0.62295  0.41425  0.53017  1.0000
  H   H1540     1.0  0.54594  0.38395  0.39449  1.0000
  C   C1929     1.0  0.65967  0.42640  0.20625  1.0000
  H   H1541     1.0  0.55253  0.41229  0.65393  1.0000
  H   H1542     1.0  0.62101  0.41410  0.89412  1.0000
  H   H1543     1.0  0.53458  0.31091  0.82213  1.0000
  H   H1544     1.0  0.54111  0.47281  0.04760  1.0000
  C   C1930     1.0  0.53410  0.51312  0.99771  1.0000
  C   C1931     1.0  0.65058  0.39251  0.31425  1.0000
  H   H1545     1.0  0.58215  0.44741  0.93891  1.0000
  C   C1932     1.0  0.60461  0.41732  0.92980  1.0000
  H   H1546     1.0  0.59046  0.37801  0.76261  1.0000
  H   H1547     1.0  0.60678  0.42662  0.90804  1.0000
  C   C1933     1.0  0.55565  0.33103  0.37194  1.0000
  C   C1934     1.0  0.55480  0.43277  0.51103  1.0000
  C   C1935     1.0  0.52252  0.39448  0.43880  1.0000
  C   C1936     1.0  0.66077  0.50443  0.95251  1.0000
  H   H1548     1.0  0.58369  0.39251  0.80190  1.0000
  C   C1937     1.0  0.57428  0.45033  0.20987  1.0000
  C   C1938     1.0  0.57659  0.45800  0.16564  1.0000
  H   H1549     1.0  0.65918  0.47075  0.97091  1.0000
  C   C1939     1.0  0.58081  0.44889  0.87071  1.0000
  H   H1550     1.0  0.55564  0.31664  0.77384  1.0000
  H   H1551     1.0  0.57949  0.44794  0.80341  1.0000
  C   C1940     1.0  0.58069  0.34203  0.73466  1.0000
  C   C1941     1.0  0.59426  0.36276  0.71118  1.0000
  H   H1552     1.0  0.63062  0.44028  0.90651  1.0000
  P   P66       1.0  0.57907  0.33973  0.44890  1.0000
  H   H1553     1.0  0.56462  0.33302  0.54411  1.0000
  H   H1554     1.0  0.57034  0.31423  0.44166  1.0000
  C   C1942     1.0  0.65030  0.50862  0.95643  1.0000
  C   C1943     1.0  0.52776  0.40052  0.46746  1.0000
  C   C1944     1.0  0.60714  0.48186  0.12520  1.0000
  C   C1945     1.0  0.58138  0.41639  0.35312  1.0000
  H   H1555     1.0  0.62265  0.42981  0.02919  1.0000
  H   H1556     1.0  0.59886  0.32378  0.84658  1.0000
  H   H1557     1.0  0.61982  0.46802  0.38884  1.0000
  C   C1946     1.0  0.58205  0.44265  0.91253  1.0000
  C   C1947     1.0  0.58047  0.44308  0.83577  1.0000
  H   H1558     1.0  0.65221  0.34299  0.07241  1.0000
  H   H1559     1.0  0.61830  0.47432  0.96022  1.0000
  C   C1948     1.0  0.57046  0.34234  0.53606  1.0000
  C   C1949     1.0  0.56548  0.33657  0.42934  1.0000
  C   C1950     1.0  0.54439  0.33043  0.39973  1.0000
  C   C1951     1.0  0.53622  0.40138  0.56377  1.0000
  C   C1952     1.0  0.53464  0.40813  0.59618  1.0000
  C   C1953     1.0  0.59191  0.27056  0.99215  1.0000
  C   C1954     1.0  0.56087  0.30262  0.81738  1.0000
  H   H1560     1.0  0.52770  0.29362  0.89308  1.0000
  H   H1561     1.0  0.52510  0.38388  0.38985  1.0000
  C   C1955     1.0  0.54654  0.40706  0.01633  1.0000
  C   C1956     1.0  0.57052  0.41517  0.29527  1.0000
  H   H1562     1.0  0.58382  0.41180  0.38259  1.0000
  C   C1957     1.0  0.51818  0.46580  0.84265  1.0000
  S   S285      1.0  0.66214  0.45136  0.18825  1.0000
  H   H1563     1.0  0.55118  0.47305  0.90134  1.0000
  C   C1958     1.0  0.56449  0.37396  0.10327  1.0000
  C   C1959     1.0  0.58432  0.35418  0.70713  1.0000
  H   H1564     1.0  0.57272  0.33554  0.73253  1.0000
  H   H1565     1.0  0.59676  0.37223  0.69040  1.0000
  C   C1960     1.0  0.58128  0.32511  0.47533  1.0000
  C   C1961     1.0  0.57594  0.31418  0.46528  1.0000
  H   H1566     1.0  0.56423  0.34395  0.60434  1.0000
  H   H1567     1.0  0.57355  0.29456  0.47826  1.0000
  H   H1568     1.0  0.53629  0.32825  0.38795  1.0000
  Fe  Fe144     1.0  0.59012  0.50775  0.96660  1.0000
  H   H1569     1.0  0.55870  0.42884  0.53741  1.0000
  H   H1570     1.0  0.59832  0.47929  0.19628  1.0000
  C   C1962     1.0  0.53696  0.29608  0.87193  1.0000
  C   C1963     1.0  0.67158  0.42882  0.85563  1.0000
  H   H1571     1.0  0.64712  0.40427  0.96715  1.0000
  H   H1572     1.0  0.50877  0.44495  0.05809  1.0000
  C   C1964     1.0  0.59380  0.41241  0.96538  1.0000
  H   H1573     1.0  0.61584  0.47224  0.65586  1.0000
  C   C1965     1.0  0.56209  0.38015  0.98945  1.0000
  C   C1966     1.0  0.57807  0.34823  0.49167  1.0000
  C   C1967     1.0  0.57035  0.34842  0.57052  1.0000
  C   C1968     1.0  0.57775  0.30296  0.48601  1.0000
  H   H1574     1.0  0.53431  0.45337  0.91020  1.0000
  H   H1575     1.0  0.57788  0.31023  0.87169  1.0000
  C   C1969     1.0  0.59118  0.40022  0.99254  1.0000
  H   H1576     1.0  0.57231  0.38686  0.13754  1.0000
  H   H1577     1.0  0.63447  0.46700  0.98520  1.0000
  C   C1970     1.0  0.57295  0.40959  0.33566  1.0000
  H   H1578     1.0  0.56462  0.40958  0.28051  1.0000
  H   H1579     1.0  0.53133  0.31956  0.04410  1.0000
  C   C1971     1.0  0.58294  0.43046  0.91972  1.0000
  H   H1580     1.0  0.59857  0.45565  0.07460  1.0000
  C   C1972     1.0  0.58143  0.43101  0.84250  1.0000
  H   H1581     1.0  0.61433  0.40711  0.05093  1.0000
  C   C1973     1.0  0.58852  0.32462  0.50614  1.0000
  C   C1974     1.0  0.55411  0.33590  0.45707  1.0000
  H   H1582     1.0  0.59279  0.33294  0.51417  1.0000
  C   C1975     1.0  0.52698  0.40234  0.64024  1.0000
  C   C1976     1.0  0.52985  0.38876  0.57623  1.0000
  H   H1583     1.0  0.52603  0.40747  0.66562  1.0000
  C   C1977     1.0  0.62090  0.46680  0.94901  1.0000
  C   C1978     1.0  0.57078  0.45484  0.24763  1.0000
  H   H1584     1.0  0.61307  0.44567  0.03898  1.0000
  C   C1979     1.0  0.57551  0.47004  0.15911  1.0000
  H   H1585     1.0  0.56860  0.44899  0.28213  1.0000
  H   H1586     1.0  0.57717  0.47580  0.12475  1.0000
  H   H1587     1.0  0.60677  0.43101  0.99472  1.0000
  C   C1980     1.0  0.58377  0.44620  0.05246  1.0000
  C   C1981     1.0  0.58009  0.43791  0.02799  1.0000
  C   C1982     1.0  0.58835  0.43234  0.00687  1.0000
  H   H1588     1.0  0.57087  0.43611  0.02463  1.0000
  H   H1589     1.0  0.57745  0.45075  0.06719  1.0000
  C   C1983     1.0  0.60025  0.43506  0.01125  1.0000
  C   C1984     1.0  0.53518  0.47384  0.98629  1.0000
  C   C1985     1.0  0.60385  0.44334  0.03612  1.0000
  P   P67       1.0  0.58348  0.42179  0.97477  1.0000
  C   C1986     1.0  0.59564  0.44895  0.05656  1.0000
  C   C1987     1.0  0.58561  0.36030  0.48251  1.0000
  C   C1988     1.0  0.55273  0.30902  0.80457  1.0000
  C   C1989     1.0  0.54362  0.33287  0.44222  1.0000
  C   C1990     1.0  0.65764  0.35351  0.15098  1.0000
  H   H1590     1.0  0.53100  0.38321  0.55242  1.0000
  C   C1991     1.0  0.55840  0.41267  0.98885  1.0000
  H   H1591     1.0  0.56879  0.39982  0.35222  1.0000
  C   C1992     1.0  0.66265  0.41596  0.19621  1.0000
  H   H1592     1.0  0.65310  0.29946  0.98401  1.0000
  C   C1993     1.0  0.64153  0.50413  0.93493  1.0000
  C   C1994     1.0  0.58275  0.42475  0.88412  1.0000
  H   H1593     1.0  0.58112  0.42651  0.81537  1.0000
  C   C1995     1.0  0.52529  0.40420  0.81855  1.0000
  H   H1594     1.0  0.65846  0.40700  0.22036  1.0000
  H   H1595     1.0  0.56715  0.40243  0.61721  1.0000
  C   C1996     1.0  0.59231  0.39071  0.80319  1.0000
  H   H1596     1.0  0.55567  0.51442  0.80092  1.0000
  C   C1997     1.0  0.57227  0.47458  0.19672  1.0000
  C   C1998     1.0  0.59030  0.31338  0.52681  1.0000
  C   C1999     1.0  0.58491  0.30255  0.51679  1.0000
  H   H1597     1.0  0.59151  0.36517  0.44872  1.0000
  C   C2000     1.0  0.64404  0.28017  0.99505  1.0000
  H   H1598     1.0  0.55327  0.33802  0.48960  1.0000
  C   C2001     1.0  0.51672  0.49519  0.92018  1.0000
  C   C2002     1.0  0.56993  0.46699  0.24100  1.0000
  H   H1599     1.0  0.51464  0.47368  0.83483  1.0000
  C   C2003     1.0  0.51086  0.33859  0.88181  1.0000
  H   H1600     1.0  0.55637  0.36516  0.89252  1.0000
  H   H1601     1.0  0.57874  0.44782  0.59303  1.0000
  C   C2004     1.0  0.52624  0.48433  0.11892  1.0000
  H   H1602     1.0  0.54792  0.40061  0.87413  1.0000
  C   C2005     1.0  0.55480  0.26690  0.95712  1.0000
  H   H1603     1.0  0.64272  0.38539  0.31476  1.0000
  H   H1604     1.0  0.58354  0.41544  0.88840  1.0000
  C   C2006     1.0  0.66514  0.43804  0.17517  1.0000
  H   H1605     1.0  0.60103  0.48661  0.11249  1.0000
  H   H1606     1.0  0.57931  0.35708  0.68322  1.0000
  H   H1607     1.0  0.53492  0.33263  0.46340  1.0000
  H   H1608     1.0  0.52002  0.43994  0.80833  1.0000
  S   S286      1.0  0.50955  0.42003  0.05429  1.0000
  H   H1609     1.0  0.57157  0.48396  0.19149  1.0000
  H   H1610     1.0  0.55966  0.41736  0.95336  1.0000
  H   H1611     1.0  0.66093  0.41018  0.71447  1.0000
  C   C2007     1.0  0.52508  0.37994  0.19278  1.0000
  C   C2008     1.0  0.52492  0.45821  0.05793  1.0000
  H   H1612     1.0  0.53414  0.41080  0.80934  1.0000
  C   C2009     1.0  0.54508  0.28969  0.88503  1.0000
  C   C2010     1.0  0.56328  0.27853  0.93556  1.0000
  C   C2011     1.0  0.56829  0.41280  0.00792  1.0000
  H   H1613     1.0  0.58050  0.44333  0.49986  1.0000
  C   C2012     1.0  0.53520  0.38713  0.93350  1.0000
  H   H1614     1.0  0.58299  0.39615  0.02023  1.0000
  H   H1615     1.0  0.61565  0.46729  0.52326  1.0000
  C   C2013     1.0  0.54916  0.32007  0.09034  1.0000
  S   S287      1.0  0.61934  0.48570  0.03453  1.0000
  H   H1616     1.0  0.60255  0.45087  0.69216  1.0000
  H   H1617     1.0  0.55080  0.50819  0.05338  1.0000
  H   H1618     1.0  0.58626  0.29383  0.53291  1.0000
  C   C2014     1.0  0.53437  0.46868  0.03212  1.0000
  H   H1619     1.0  0.67023  0.46808  0.80910  1.0000
  C   C2015     1.0  0.55715  0.36730  0.99987  1.0000
  C   C2016     1.0  0.64487  0.29281  0.98462  1.0000
  H   H1620     1.0  0.66324  0.47944  0.03412  1.0000
  H   H1621     1.0  0.52163  0.37243  0.98588  1.0000
  C   C2017     1.0  0.52401  0.36841  0.92010  1.0000
  H   H1622     1.0  0.55684  0.30919  0.05029  1.0000
  C   C2018     1.0  0.53032  0.35778  0.07073  1.0000
  C   C2019     1.0  0.65057  0.49691  0.10668  1.0000
  C   C2020     1.0  0.58561  0.36628  0.51727  1.0000
  C   C2021     1.0  0.59972  0.39706  0.82540  1.0000
  H   H1623     1.0  0.52906  0.36726  0.85017  1.0000
  C   C2022     1.0  0.65379  0.49175  0.90514  1.0000
  C   C2023     1.0  0.52930  0.45443  0.88473  1.0000
  H   H1624     1.0  0.60758  0.43054  0.47157  1.0000
  C   C2024     1.0  0.59914  0.39306  0.98365  1.0000
  H   H1625     1.0  0.65664  0.48079  0.66546  1.0000
  C   C2025     1.0  0.58288  0.29446  0.85442  1.0000
  S   S288      1.0  0.64264  0.45905  0.40524  1.0000
  C   C2026     1.0  0.55651  0.31841  0.05192  1.0000
  C   C2027     1.0  0.57799  0.36035  0.56125  1.0000
  H   H1626     1.0  0.54448  0.38749  0.82202  1.0000
  C   C2028     1.0  0.56616  0.36474  0.08148  1.0000
  C   C2029     1.0  0.58933  0.45485  0.43180  1.0000
  H   H1627     1.0  0.51790  0.41115  0.87431  1.0000
  H   H1628     1.0  0.57349  0.40758  0.07074  1.0000
  C   C2030     1.0  0.56606  0.40717  0.05488  1.0000
  H   H1629     1.0  0.57784  0.36506  0.58797  1.0000
  C   C2031     1.0  0.51620  0.45296  0.03791  1.0000
  C   C2032     1.0  0.51057  0.38553  0.15196  1.0000
  C   C2033     1.0  0.54440  0.40161  0.06285  1.0000
  H   H1630     1.0  0.54406  0.35149  0.15634  1.0000
  H   H1631     1.0  0.57870  0.35441  0.06047  1.0000
  C   C2034     1.0  0.52070  0.38982  0.65223  1.0000
  H   H1632     1.0  0.54389  0.31216  0.11885  1.0000
  H   H1633     1.0  0.61947  0.45721  0.46661  1.0000
  H   H1634     1.0  0.66355  0.38459  0.27982  1.0000
  H   H1635     1.0  0.54458  0.49999  0.99086  1.0000
  H   H1636     1.0  0.58098  0.45387  0.42131  1.0000
  H   H1637     1.0  0.59464  0.36480  0.09037  1.0000
  H   H1638     1.0  0.53514  0.39782  0.08388  1.0000
  C   C2035     1.0  0.52915  0.38867  0.41189  1.0000
  C   C2036     1.0  0.61096  0.45682  0.45782  1.0000
  C   C2037     1.0  0.58458  0.37663  0.11531  1.0000
  C   C2038     1.0  0.55414  0.40154  0.08217  1.0000
  C   C2039     1.0  0.65797  0.40424  0.87672  1.0000
  H   H1639     1.0  0.67072  0.49307  0.92317  1.0000
  H   H1640     1.0  0.59118  0.28080  0.83346  1.0000
  H   H1641     1.0  0.53211  0.36043  0.03390  1.0000
  C   C2040     1.0  0.53951  0.38411  0.85782  1.0000
  C   C2041     1.0  0.61804  0.41873  0.49490  1.0000
  H   H1642     1.0  0.52326  0.34808  0.20319  1.0000
  C   C2042     1.0  0.61135  0.42725  0.49919  1.0000
  C   C2043     1.0  0.56373  0.32868  0.01621  1.0000
  H   H1643     1.0  0.56350  0.38453  0.01604  1.0000
  C   C2044     1.0  0.60038  0.46185  0.40033  1.0000
  C   C2045     1.0  0.60954  0.43140  0.53880  1.0000
  H   H1644     1.0  0.56958  0.34837  0.99116  1.0000
  C   C2046     1.0  0.57717  0.36157  0.07665  1.0000
  H   H1645     1.0  0.59155  0.38099  0.12945  1.0000
  C   C2047     1.0  0.56359  0.38201  0.90920  1.0000
  C   C2048     1.0  0.58908  0.44894  0.47646  1.0000
  C   C2049     1.0  0.55561  0.34230  0.05579  1.0000
  C   C2050     1.0  0.63331  0.27153  0.99639  1.0000
  C   C2051     1.0  0.57370  0.37991  0.11993  1.0000
  C   C2052     1.0  0.52519  0.35067  0.16619  1.0000
  C   C2053     1.0  0.53703  0.35281  0.13944  1.0000
  H   H1646     1.0  0.55604  0.37650  0.10759  1.0000
  H   H1647     1.0  0.65250  0.42677  0.51220  1.0000
  C   C2054     1.0  0.59990  0.45000  0.49002  1.0000
  C   C2055     1.0  0.56535  0.38745  0.94426  1.0000
  C   C2056     1.0  0.61467  0.42700  0.57369  1.0000
  C   C2057     1.0  0.52873  0.34028  0.95332  1.0000
  C   C2058     1.0  0.65907  0.45233  0.92209  1.0000
  H   H1648     1.0  0.62820  0.40772  0.52680  1.0000
  P   P68       1.0  0.59989  0.44146  0.54617  1.0000
  C   C2059     1.0  0.56645  0.27156  0.84878  1.0000
  C   C2060     1.0  0.55803  0.36935  0.91958  1.0000
  H   H1649     1.0  0.54294  0.33295  0.12257  1.0000
  H   H1650     1.0  0.63987  0.40275  0.34718  1.0000
  C   C2061     1.0  0.62133  0.41845  0.56938  1.0000
  H   H1651     1.0  0.51391  0.32575  0.08337  1.0000
  H   H1652     1.0  0.57159  0.48677  0.85872  1.0000
  C   C2062     1.0  0.66584  0.36045  0.16899  1.0000
  C   C2063     1.0  0.64628  0.45044  0.09619  1.0000
  C   C2064     1.0  0.56160  0.27151  0.81109  1.0000
  C   C2065     1.0  0.64898  0.40230  0.33247  1.0000
  H   H1653     1.0  0.65936  0.34544  0.14135  1.0000
  C   C2066     1.0  0.56133  0.41795  0.63161  1.0000
  C   C2067     1.0  0.64396  0.44545  0.06054  1.0000
  C   C2068     1.0  0.60505  0.45143  0.58021  1.0000
  C   C2069     1.0  0.66242  0.47534  0.65350  1.0000
  H   H1654     1.0  0.59685  0.40382  0.84124  1.0000
  C   C2070     1.0  0.51852  0.35580  0.09763  1.0000
  C   C2071     1.0  0.53072  0.37264  0.87398  1.0000
  P   P69       1.0  0.56749  0.28440  0.87391  1.0000
  C   C2072     1.0  0.55469  0.36206  0.96478  1.0000
  C   C2073     1.0  0.65909  0.41163  0.33111  1.0000
  C   C2074     1.0  0.58462  0.43227  0.57772  1.0000
  H   H1655     1.0  0.65181  0.27721  0.00149  1.0000
  C   C2075     1.0  0.56463  0.43076  0.62457  1.0000
  C   C2076     1.0  0.57621  0.43793  0.59745  1.0000
  C   C2077     1.0  0.51834  0.34323  0.97454  1.0000
  C   C2078     1.0  0.64328  0.49572  0.90951  1.0000
  H   H1656     1.0  0.64900  0.43608  0.43780  1.0000
  C   C2079     1.0  0.52783  0.32628  0.02493  1.0000
  C   C2080     1.0  0.55201  0.48212  0.88002  1.0000
  H   H1657     1.0  0.65278  0.39467  0.88465  1.0000
  H   H1658     1.0  0.59593  0.43754  0.64499  1.0000
  H   H1659     1.0  0.55238  0.39750  0.11864  1.0000
  H   H1660     1.0  0.62687  0.50986  0.07057  1.0000
  H   H1661     1.0  0.54253  0.48198  0.96726  1.0000
  H   H1662     1.0  0.59698  0.38359  0.00401  1.0000
  H   H1663     1.0  0.61604  0.39250  0.94121  1.0000
  H   H1664     1.0  0.61443  0.44825  0.88093  1.0000
  C   C2081     1.0  0.65323  0.46267  0.08663  1.0000
  C   C2082     1.0  0.62801  0.42435  0.01511  1.0000
  C   C2083     1.0  0.60529  0.45447  0.65520  1.0000
  H   H1665     1.0  0.66912  0.40042  0.92259  1.0000
  H   H1666     1.0  0.62659  0.39429  0.01969  1.0000
  S   S289      1.0  0.64371  0.40909  0.81899  1.0000
  C   C2084     1.0  0.61653  0.47100  0.58708  1.0000
  H   H1667     1.0  0.65546  0.42693  0.94412  1.0000
  C   C2085     1.0  0.54098  0.38884  0.41395  1.0000
  C   C2086     1.0  0.65534  0.41335  0.84545  1.0000
  C   C2087     1.0  0.59710  0.31444  0.84310  1.0000
  C   C2088     1.0  0.58521  0.30670  0.85754  1.0000
  C   C2089     1.0  0.62330  0.41148  0.02764  1.0000
  H   H1668     1.0  0.55831  0.43507  0.64119  1.0000
  H   H1669     1.0  0.57474  0.29448  0.94733  1.0000
  H   H1670     1.0  0.52393  0.37662  0.12813  1.0000
  C   C2090     1.0  0.54079  0.30576  0.83179  1.0000
  C   C2091     1.0  0.60677  0.31005  0.82569  1.0000
  C   C2092     1.0  0.63018  0.40427  0.01006  1.0000
  C   C2093     1.0  0.61281  0.46649  0.63472  1.0000
  H   H1671     1.0  0.61352  0.43009  0.60442  1.0000
  C   C2094     1.0  0.60154  0.44693  0.62818  1.0000
  H   H1672     1.0  0.67004  0.44593  0.96508  1.0000
  H   H1673     1.0  0.56129  0.45136  0.51563  1.0000
  H   H1674     1.0  0.52243  0.40476  0.48885  1.0000
  H   H1675     1.0  0.63641  0.49219  0.89349  1.0000
  H   H1676     1.0  0.53161  0.43793  0.86649  1.0000
  C   C2095     1.0  0.66256  0.49614  0.92656  1.0000
  C   C2096     1.0  0.52021  0.38034  0.15509  1.0000
  C   C2097     1.0  0.61863  0.45193  0.90494  1.0000
  C   C2098     1.0  0.63359  0.45278  0.94883  1.0000
  C   C2099     1.0  0.53284  0.49535  0.08501  1.0000
  C   C2100     1.0  0.64851  0.45274  0.01498  1.0000
  H   H1677     1.0  0.60748  0.46432  0.91141  1.0000
  C   C2101     1.0  0.61491  0.46125  0.92109  1.0000
  C   C2102     1.0  0.64649  0.42280  0.96755  1.0000
  C   C2103     1.0  0.65787  0.46996  0.04143  1.0000
  H   H1678     1.0  0.54118  0.32928  0.96161  1.0000
  H   H1679     1.0  0.61205  0.29444  0.80927  1.0000
  H   H1680     1.0  0.66758  0.50767  0.96932  1.0000
  H   H1681     1.0  0.65106  0.45984  0.86899  1.0000
  P   P70       1.0  0.52673  0.47583  0.90814  1.0000
  C   C2104     1.0  0.65926  0.45860  0.87768  1.0000
  H   H1682     1.0  0.62243  0.48029  0.57121  1.0000
  C   C2105     1.0  0.55159  0.49185  0.09951  1.0000
  C   C2106     1.0  0.66727  0.46209  0.60578  1.0000
  C   C2107     1.0  0.65557  0.46500  0.00576  1.0000
  C   C2108     1.0  0.53329  0.33166  0.97831  1.0000
  C   C2109     1.0  0.60454  0.29791  0.82224  1.0000
  H   H1683     1.0  0.67036  0.37671  0.19258  1.0000
  H   H1684     1.0  0.55295  0.46069  0.45391  1.0000
  C   C2110     1.0  0.56955  0.41236  0.61102  1.0000
  C   C2111     1.0  0.66219  0.42566  0.83493  1.0000
  C   C2112     1.0  0.64835  0.50128  0.06452  1.0000
  H   H1685     1.0  0.54190  0.28221  0.91616  1.0000
  C   C2113     1.0  0.56492  0.50155  0.82779  1.0000
  H   H1686     1.0  0.60077  0.26879  0.88251  1.0000
  H   H1687     1.0  0.53516  0.50070  0.84220  1.0000
  H   H1688     1.0  0.57394  0.50754  0.80935  1.0000
  C   C2114     1.0  0.54162  0.48610  0.87693  1.0000
  H   H1689     1.0  0.52441  0.45413  0.09331  1.0000
  C   C2115     1.0  0.65597  0.50524  0.12820  1.0000
  C   C2116     1.0  0.55715  0.29302  0.85814  1.0000
  C   C2117     1.0  0.51161  0.38698  0.80583  1.0000
  C   C2118     1.0  0.66011  0.46950  0.61997  1.0000
  H   H1690     1.0  0.65763  0.41901  0.34593  1.0000
  C   C2119     1.0  0.52786  0.44572  0.85970  1.0000
  H   H1691     1.0  0.66666  0.42713  0.64365  1.0000
  H   H1692     1.0  0.55840  0.27914  0.79635  1.0000
  H   H1693     1.0  0.50893  0.51003  0.92998  1.0000
  C   C2120     1.0  0.51592  0.35209  0.14532  1.0000
  H   H1694     1.0  0.51160  0.45790  0.79246  1.0000
  C   C2121     1.0  0.51091  0.49619  0.04892  1.0000
  C   C2122     1.0  0.56360  0.48985  0.85579  1.0000
  H   H1695     1.0  0.51140  0.35744  0.08170  1.0000
  H   H1696     1.0  0.66650  0.45258  0.37933  1.0000
  H   H1697     1.0  0.52566  0.50028  0.92034  1.0000
  H   H1698     1.0  0.65752  0.50182  0.16118  1.0000
  C   C2123     1.0  0.67106  0.41706  0.15512  1.0000
  H   H1699     1.0  0.66499  0.45737  0.58099  1.0000
  H   H1700     1.0  0.51001  0.32735  0.83477  1.0000
  C   C2124     1.0  0.66998  0.45091  0.93136  1.0000
  C   C2125     1.0  0.51610  0.40442  0.85531  1.0000
  C   C2126     1.0  0.67421  0.44000  0.34824  1.0000
  C   C2127     1.0  0.52205  0.38307  0.62011  1.0000
  H   H1701     1.0  0.61562  0.26931  0.98376  1.0000
  H   H1702     1.0  0.55723  0.51168  0.91344  1.0000
  H   H1703     1.0  0.51641  0.48142  0.12776  1.0000
  H   H1704     1.0  0.51326  0.39414  0.43781  1.0000
  C   C2128     1.0  0.51172  0.51463  0.11768  1.0000
  S   S290      1.0  0.67381  0.36334  0.03960  1.0000
  H   H1705     1.0  0.67334  0.47795  0.70012  1.0000
  C   C2129     1.0  0.67189  0.47375  0.67295  1.0000
  C   C2130     1.0  0.55655  0.26925  0.03122  1.0000
  H   H1706     1.0  0.67301  0.36900  0.94405  1.0000
  S   S291      1.0  0.67304  0.39761  0.03090  1.0000
  C   C2131     1.0  0.66893  0.41787  0.70740  1.0000
  H   H1707     1.0  0.66978  0.46791  0.30586  1.0000
  P   P71       1.0  0.51220  0.35395  0.94129  1.0000
  C   C2132     1.0  0.51321  0.33812  0.02188  1.0000
  C   C2133     1.0  0.67223  0.42750  0.66725  1.0000
  C   C2134     1.0  0.67084  0.45092  0.34773  1.0000
  C   C2135     1.0  0.67271  0.45962  0.30625  1.0000
  C   C2136     1.0  0.50930  0.48387  0.04732  1.0000
  H   H1708     1.0  0.51652  0.47957  0.04900  1.0000
  C   C2137     1.0  0.59690  0.26570  0.91913  1.0000
  H   H1709     1.0  0.60649  0.51305  0.08423  1.0000
  C   C2138     1.0  0.67330  0.43913  0.13345  1.0000
  H   H1710     1.0  0.51582  0.33333  0.89970  1.0000
  H   H1711     1.0  0.51007  0.45389  0.97717  1.0000
  H   H1712     1.0  0.50981  0.38032  0.78659  1.0000
  C   C2139     1.0  0.67242  0.40147  0.29276  1.0000
  C   C2140     1.0  0.67088  0.41147  0.31028  1.0000
  H   H1713     1.0  0.67387  0.35771  0.17351  1.0000
  H   H1714     1.0  0.67231  0.43321  0.38065  1.0000
  C   C2141     1.0  0.67400  0.41982  0.88793  1.0000
  H   H1715     1.0  0.67292  0.41101  0.77104  1.0000
  C   C2142     1.0  0.65157  0.51402  0.04341  1.0000
  C   C2143     1.0  0.55006  0.51502  0.93031  1.0000
  H   H1716     1.0  0.55423  0.26558  0.06803  1.0000
  C   C2144     1.0  0.51060  0.63445  0.16844  1.0000
  C   C2145     1.0  0.52797  0.57054  0.63629  1.0000
  Fe  Fe145     1.0  0.51387  0.56430  0.04275  1.0000
  S   S292      1.0  0.53189  0.57868  0.01360  1.0000
  C   C2146     1.0  0.62937  0.52783  0.96448  1.0000
  Fe  Fe146     1.0  0.51830  0.55330  0.96114  1.0000
  S   S293      1.0  0.53655  0.56670  0.92648  1.0000
  H   H1717     1.0  0.66332  0.52439  0.12434  1.0000
  Fe  Fe147     1.0  0.53933  0.56314  0.99713  1.0000
  S   S294      1.0  0.55473  0.55751  0.02226  1.0000
  Fe  Fe148     1.0  0.52707  0.58055  0.94617  1.0000
  S   S295      1.0  0.52751  0.59846  0.89776  1.0000
  S   S296      1.0  0.52150  0.54874  0.03034  1.0000
  H   H1718     1.0  0.67048  0.52880  0.91165  1.0000
  C   C2147     1.0  0.50931  0.62405  0.90727  1.0000
  S   S297      1.0  0.58825  0.52695  0.93995  1.0000
  H   H1719     1.0  0.51178  0.63017  0.59969  1.0000
  C   C2148     1.0  0.56227  0.54746  0.00008  1.0000
  C   C2149     1.0  0.56506  0.54820  0.95343  1.0000
  C   C2150     1.0  0.57264  0.54145  0.93574  1.0000
  C   C2151     1.0  0.57707  0.53348  0.96470  1.0000
  C   C2152     1.0  0.57371  0.53218  0.01176  1.0000
  C   C2153     1.0  0.56656  0.53936  0.02919  1.0000
  H   H1720     1.0  0.56196  0.55453  0.93061  1.0000
  H   H1721     1.0  0.57535  0.54266  0.89924  1.0000
  H   H1722     1.0  0.57724  0.52627  0.03432  1.0000
  H   H1723     1.0  0.56458  0.53886  0.06523  1.0000
  C   C2154     1.0  0.52042  0.53275  0.14017  1.0000
  C   C2155     1.0  0.51077  0.62106  0.59418  1.0000
  H   H1724     1.0  0.52616  0.57914  0.51962  1.0000
  H   H1725     1.0  0.52786  0.57201  0.75631  1.0000
  C   C2156     1.0  0.51859  0.59676  0.85877  1.0000
  H   H1726     1.0  0.60053  0.52567  0.02168  1.0000
  C   C2157     1.0  0.51746  0.60726  0.82924  1.0000
  C   C2158     1.0  0.54813  0.52604  0.90829  1.0000
  C   C2159     1.0  0.52302  0.51592  0.08796  1.0000
  C   C2160     1.0  0.51007  0.55309  0.65793  1.0000
  C   C2161     1.0  0.51033  0.56913  0.74233  1.0000
  C   C2162     1.0  0.60956  0.52437  0.01581  1.0000
  C   C2163     1.0  0.51476  0.55591  0.80462  1.0000
  C   C2164     1.0  0.52051  0.58099  0.49708  1.0000
  C   C2165     1.0  0.52121  0.61100  0.01058  1.0000
  C   C2166     1.0  0.51293  0.58260  0.12681  1.0000
  C   C2167     1.0  0.53307  0.52550  0.08571  1.0000
  H   H1727     1.0  0.51623  0.63797  0.02580  1.0000
  H   H1728     1.0  0.51280  0.64997  0.19707  1.0000
  H   H1729     1.0  0.52039  0.58266  0.09963  1.0000
  H   H1730     1.0  0.52325  0.59828  0.14288  1.0000
  H   H1731     1.0  0.52148  0.58556  0.38418  1.0000
  H   H1732     1.0  0.52107  0.55369  0.82400  1.0000
  H   H1733     1.0  0.51937  0.53954  0.15895  1.0000
  H   H1734     1.0  0.53386  0.58083  0.43794  1.0000
  H   H1735     1.0  0.55379  0.53124  0.87436  1.0000
  C   C2168     1.0  0.51257  0.58505  0.85680  1.0000
  H   H1736     1.0  0.51601  0.63002  0.18726  1.0000
  C   C2169     1.0  0.51859  0.56618  0.76648  1.0000
  P   P72       1.0  0.64824  0.51948  0.98967  1.0000
  C   C2170     1.0  0.65702  0.52234  0.06521  1.0000
  S   S298      1.0  0.50859  0.56719  0.97667  1.0000
  C   C2171     1.0  0.65921  0.51794  0.10744  1.0000
  C   C2172     1.0  0.63288  0.52084  0.99973  1.0000
  C   C2173     1.0  0.51102  0.61956  0.55059  1.0000
  H   H1737     1.0  0.53956  0.54134  0.10933  1.0000
  H   H1738     1.0  0.50924  0.61425  0.77664  1.0000
  H   H1739     1.0  0.52712  0.58730  0.59256  1.0000
  H   H1740     1.0  0.64786  0.54401  0.99970  1.0000
  H   H1741     1.0  0.66119  0.56495  0.95844  1.0000
  H   H1742     1.0  0.51722  0.62517  0.92053  1.0000
  C   C2174     1.0  0.61293  0.51729  0.05094  1.0000
  H   H1743     1.0  0.65950  0.53221  0.05007  1.0000
  H   H1744     1.0  0.52833  0.60742  0.99465  1.0000
  C   C2175     1.0  0.51428  0.62820  0.02794  1.0000
  H   H1745     1.0  0.51860  0.63790  0.84344  1.0000
  C   C2176     1.0  0.52188  0.55821  0.65988  1.0000
  C   C2177     1.0  0.51047  0.57263  0.60794  1.0000
  C   C2178     1.0  0.51456  0.59143  0.15158  1.0000
  H   H1746     1.0  0.52623  0.55269  0.68035  1.0000
  C   C2179     1.0  0.65817  0.53476  0.95907  1.0000
  C   C2180     1.0  0.65569  0.54512  0.97185  1.0000
  H   H1747     1.0  0.51321  0.57728  0.71348  1.0000
  H   H1748     1.0  0.52244  0.61631  0.82942  1.0000
  H   H1749     1.0  0.63560  0.53192  0.93070  1.0000
  C   C2181     1.0  0.51796  0.58456  0.42034  1.0000
  C   C2182     1.0  0.66836  0.53652  0.92271  1.0000
  C   C2183     1.0  0.53209  0.52407  0.97505  1.0000
  C   C2184     1.0  0.53909  0.53050  0.93055  1.0000
  H   H1750     1.0  0.53245  0.62980  0.98967  1.0000
  H   H1751     1.0  0.52515  0.52769  0.99174  1.0000
  C   C2185     1.0  0.52228  0.57774  0.61057  1.0000
  H   H1752     1.0  0.61498  0.53483  0.94521  1.0000
  C   C2186     1.0  0.61775  0.52957  0.97257  1.0000
  C   C2187     1.0  0.52350  0.62360  0.00761  1.0000
  C   C2188     1.0  0.52493  0.58193  0.45064  1.0000
  H   H1753     1.0  0.53707  0.57457  0.63830  1.0000
  H   H1754     1.0  0.53760  0.53908  0.91365  1.0000
  C   C2189     1.0  0.53179  0.53380  0.11207  1.0000
  S   S299      1.0  0.51105  0.53904  0.92760  1.0000
  H   H1755     1.0  0.51218  0.62750  0.52241  1.0000
  H   H1756     1.0  0.54187  0.52668  0.06312  1.0000
  H   H1757     1.0  0.51356  0.57686  0.87845  1.0000
  C   C2190     1.0  0.51006  0.60609  0.79908  1.0000
  C   C2191     1.0  0.51012  0.63118  0.86377  1.0000
  C   C2192     1.0  0.66323  0.55701  0.94857  1.0000
  C   C2193     1.0  0.51038  0.52316  0.14300  1.0000
  C   C2194     1.0  0.50973  0.60298  0.03414  1.0000
  H   H1758     1.0  0.50904  0.60685  0.50982  1.0000
  C   C2195     1.0  0.50902  0.58263  0.51363  1.0000
  C   C2196     1.0  0.50886  0.64570  0.17375  1.0000
  C   C2197     1.0  0.50918  0.60776  0.54368  1.0000
  C   C2198     1.0  0.50891  0.61079  0.63080  1.0000
  H   H1759     1.0  0.50864  0.61193  0.66473  1.0000
  C   C2199     1.0  0.67332  0.55868  0.91240  1.0000
  C   C2200     1.0  0.62454  0.51551  0.04300  1.0000
  C   C2201     1.0  0.58699  0.99248  0.95140  1.0000
  S   S300      1.0  0.52506  0.94859  0.99732  1.0000
  H   H1760     1.0  0.52734  0.99456  0.10625  1.0000
  H   H1761     1.0  0.56904  0.92868  0.04244  1.0000
  S   S301      1.0  0.54868  0.93885  0.99949  1.0000
  H   H1762     1.0  0.52708  0.88895  0.30471  1.0000
  Fe  Fe149     1.0  0.54060  0.95239  0.02945  1.0000
  S   S302      1.0  0.54763  0.97310  0.02512  1.0000
  C   C2202     1.0  0.58630  0.95866  0.99637  1.0000
  H   H1763     1.0  0.51363  0.77059  0.74815  1.0000
  C   C2203     1.0  0.54322  0.99414  0.90617  1.0000
  C   C2204     1.0  0.56364  0.00518  0.90375  1.0000
  C   C2205     1.0  0.58961  0.00407  0.95995  1.0000
  C   C2206     1.0  0.54354  0.91313  0.21284  1.0000
  H   H1764     1.0  0.51990  0.90208  0.15251  1.0000
  H   H1765     1.0  0.60293  0.94936  0.94812  1.0000
  C   C2207     1.0  0.53355  0.92557  0.82287  1.0000
  H   H1766     1.0  0.56614  0.96729  0.96872  1.0000
  H   H1767     1.0  0.52483  0.83575  0.74225  1.0000
  C   C2208     1.0  0.53136  0.94876  0.20355  1.0000
  C   C2209     1.0  0.52172  0.99685  0.08391  1.0000
  C   C2210     1.0  0.52472  0.91689  0.24885  1.0000
  C   C2211     1.0  0.58429  0.95195  0.07795  1.0000
  C   C2212     1.0  0.62479  0.97686  0.84879  1.0000
  C   C2213     1.0  0.55895  0.98176  0.04571  1.0000
  C   C2214     1.0  0.56724  0.97663  0.06402  1.0000
  C   C2215     1.0  0.57651  0.98409  0.07720  1.0000
  C   C2216     1.0  0.57752  0.99672  0.07304  1.0000
  C   C2217     1.0  0.56895  0.00173  0.05613  1.0000
  C   C2218     1.0  0.55984  0.99434  0.04222  1.0000
  H   H1768     1.0  0.56661  0.96697  0.06735  1.0000
  H   H1769     1.0  0.58300  0.98007  0.09047  1.0000
  H   H1770     1.0  0.53782  0.92888  0.18615  1.0000
  H   H1771     1.0  0.55350  0.99847  0.02834  1.0000
  C   C2219     1.0  0.58073  0.96857  0.91097  1.0000
  Fe  Fe150     1.0  0.53714  0.92437  0.06392  1.0000
  C   C2220     1.0  0.55948  0.96500  0.91090  1.0000
  C   C2221     1.0  0.57446  0.96557  0.84334  1.0000
  C   C2222     1.0  0.60893  0.95713  0.92060  1.0000
  H   H1772     1.0  0.54105  0.93379  0.80620  1.0000
  P   P73       1.0  0.59217  0.97035  0.94206  1.0000
  S   S303      1.0  0.52124  0.91864  0.03610  1.0000
  C   C2223     1.0  0.52791  0.89139  0.02882  1.0000
  H   H1773     1.0  0.56953  0.01139  0.05268  1.0000
  C   C2224     1.0  0.52036  0.88367  0.97063  1.0000
  H   H1774     1.0  0.53254  0.99283  0.02737  1.0000
  C   C2225     1.0  0.51900  0.90769  0.81644  1.0000
  H   H1775     1.0  0.57331  0.93325  0.11263  1.0000
  H   H1776     1.0  0.51522  0.90892  0.92784  1.0000
  C   C2226     1.0  0.56859  0.96708  0.93339  1.0000
  H   H1777     1.0  0.59286  0.96874  0.84750  1.0000
  H   H1778     1.0  0.59440  0.97006  0.03540  1.0000
  H   H1779     1.0  0.57825  0.98892  0.94586  1.0000
  C   C2227     1.0  0.51901  0.91155  0.89120  1.0000
  C   C2228     1.0  0.52479  0.99612  0.03881  1.0000
  H   H1780     1.0  0.57666  0.96470  0.80876  1.0000
  H   H1781     1.0  0.55012  0.96378  0.92877  1.0000
  H   H1782     1.0  0.55520  0.96193  0.84948  1.0000
  C   C2229     1.0  0.51792  0.01135  0.91521  1.0000
  H   H1783     1.0  0.63093  0.98450  0.82095  1.0000
  C   C2230     1.0  0.60896  0.00186  0.97054  1.0000
  C   C2231     1.0  0.58897  0.96108  0.03614  1.0000
  C   C2232     1.0  0.57467  0.93772  0.04060  1.0000
  H   H1784     1.0  0.53203  0.85191  0.17036  1.0000
  C   C2233     1.0  0.52244  0.84948  0.17204  1.0000
  H   H1785     1.0  0.55948  0.99041  0.87237  1.0000
  C   C2234     1.0  0.57928  0.94683  0.99881  1.0000
  S   S304      1.0  0.53045  0.93810  0.09594  1.0000
  H   H1786     1.0  0.54157  0.87167  0.20469  1.0000
  P   P74       1.0  0.52215  0.99914  0.95018  1.0000
  Fe  Fe151     1.0  0.51554  0.93370  0.06223  1.0000
  C   C2235     1.0  0.50986  0.82396  0.72798  1.0000
  H   H1787     1.0  0.53296  0.92090  0.76000  1.0000
  H   H1788     1.0  0.54655  0.89593  0.24438  1.0000
  C   C2236     1.0  0.54272  0.88841  0.15569  1.0000
  H   H1789     1.0  0.53733  0.98694  0.89720  1.0000
  C   C2237     1.0  0.59543  0.98552  0.95184  1.0000
  C   C2238     1.0  0.52867  0.92241  0.87024  1.0000
  C   C2239     1.0  0.57708  0.94029  0.08022  1.0000
  C   C2240     1.0  0.53581  0.96021  0.17052  1.0000
  C   C2241     1.0  0.52451  0.89530  0.16340  1.0000
  C   C2242     1.0  0.53671  0.87814  0.19307  1.0000
  H   H1790     1.0  0.55217  0.88977  0.13877  1.0000
  C   C2243     1.0  0.53557  0.92054  0.21370  1.0000
  C   C2244     1.0  0.54058  0.90188  0.24615  1.0000
  H   H1791     1.0  0.53490  0.90032  0.95653  1.0000
  H   H1792     1.0  0.55175  0.91582  0.18502  1.0000
  S   S305      1.0  0.53506  0.93285  0.89950  1.0000
  C   C2245     1.0  0.52840  0.89251  0.98277  1.0000
  C   C2246     1.0  0.52464  0.87640  0.21660  1.0000
  H   H1793     1.0  0.57723  0.94466  0.96853  1.0000
  Fe  Fe152     1.0  0.53220  0.93385  0.97332  1.0000
  H   H1794     1.0  0.52068  0.88465  0.93487  1.0000
  C   C2247     1.0  0.51193  0.98271  0.90499  1.0000
  C   C2248     1.0  0.58363  0.96785  0.86557  1.0000
  H   H1795     1.0  0.61193  0.98701  0.86514  1.0000
  H   H1796     1.0  0.53412  0.89826  0.03826  1.0000
  S   S306      1.0  0.51332  0.89979  0.77840  1.0000
  H   H1797     1.0  0.62186  0.94702  0.90355  1.0000
  C   C2249     1.0  0.60054  0.00872  0.96982  1.0000
  C   C2250     1.0  0.51239  0.94531  0.18217  1.0000
  C   C2251     1.0  0.56238  0.96407  0.86611  1.0000
  C   C2252     1.0  0.61969  0.95576  0.89532  1.0000
  H   H1798     1.0  0.61300  0.98503  0.96306  1.0000
  H   H1799     1.0  0.52010  0.92806  0.71663  1.0000
  H   H1800     1.0  0.61727  0.00535  0.97946  1.0000
  C   C2253     1.0  0.61404  0.97826  0.87396  1.0000
  C   C2254     1.0  0.52887  0.91826  0.79648  1.0000
  C   C2255     1.0  0.54633  0.01046  0.94396  1.0000
  C   C2256     1.0  0.60646  0.99033  0.96142  1.0000
  C   C2257     1.0  0.52961  0.89796  0.28023  1.0000
  C   C2258     1.0  0.53680  0.89716  0.14118  1.0000
  H   H1801     1.0  0.63594  0.96453  0.83994  1.0000
  H   H1802     1.0  0.52277  0.85507  0.69555  1.0000
  C   C2259     1.0  0.60606  0.96842  0.91017  1.0000
  H   H1803     1.0  0.51881  0.88109  0.09839  1.0000
  H   H1804     1.0  0.58613  0.95397  0.10872  1.0000
  H   H1805     1.0  0.52314  0.94691  0.65453  1.0000
  S   S307      1.0  0.58998  0.00596  0.08680  1.0000
  H   H1806     1.0  0.58292  0.00922  0.96118  1.0000
  S   S308      1.0  0.54563  0.91061  0.09764  1.0000
  C   C2260     1.0  0.51794  0.99971  0.00884  1.0000
  H   H1807     1.0  0.52574  0.92327  0.32806  1.0000
  H   H1808     1.0  0.52499  0.86181  0.10657  1.0000
  C   C2261     1.0  0.51840  0.88486  0.20127  1.0000
  C   C2262     1.0  0.51408  0.90425  0.86424  1.0000
  S   S309      1.0  0.51847  0.86399  0.26668  1.0000
  C   C2263     1.0  0.51782  0.83535  0.72431  1.0000
  C   C2264     1.0  0.51835  0.85525  0.13621  1.0000
  H   H1809     1.0  0.51098  0.81568  0.74851  1.0000
  H   H1810     1.0  0.53706  0.94586  0.22463  1.0000
  C   C2265     1.0  0.51402  0.93386  0.72010  1.0000
  C   C2266     1.0  0.53839  0.00140  0.93199  1.0000
  H   H1811     1.0  0.51132  0.95989  0.12801  1.0000
  C   C2267     1.0  0.62761  0.96561  0.85947  1.0000
  H   H1812     1.0  0.50918  0.00135  0.13475  1.0000
  H   H1813     1.0  0.54493  0.96596  0.16550  1.0000
  C   C2268     1.0  0.51659  0.84626  0.69830  1.0000
  C   C2269     1.0  0.52859  0.96418  0.14325  1.0000
  C   C2270     1.0  0.52169  0.90542  0.28159  1.0000
  C   C2271     1.0  0.51396  0.98423  0.94671  1.0000
  C   C2272     1.0  0.51565  0.94441  0.68501  1.0000
  H   H1814     1.0  0.50910  0.88363  0.21957  1.0000
  H   H1815     1.0  0.51314  0.90215  0.30790  1.0000
  H   H1816     1.0  0.51396  0.77974  0.66785  1.0000
  H   H1817     1.0  0.53217  0.97291  0.11688  1.0000
  C   C2273     1.0  0.51929  0.88156  0.06282  1.0000
  C   C2274     1.0  0.55581  0.99607  0.89205  1.0000
  C   C2275     1.0  0.51152  0.00067  0.09994  1.0000
  C   C2276     1.0  0.51857  0.92762  0.33587  1.0000
  H   H1818     1.0  0.51533  0.99041  0.87446  1.0000
  C   C2277     1.0  0.55890  0.01234  0.92988  1.0000
  C   C2278     1.0  0.51142  0.87245  0.05089  1.0000
  C   C2279     1.0  0.50987  0.97396  0.98529  1.0000
  H   H1819     1.0  0.52178  0.92880  0.40082  1.0000
  H   H1820     1.0  0.57336  0.00663  0.89287  1.0000
  H   H1821     1.0  0.51053  0.93516  0.91408  1.0000
  C   C2280     1.0  0.51641  0.93083  0.37716  1.0000
  C   C2281     1.0  0.51161  0.93018  0.30515  1.0000
  C   C2282     1.0  0.51684  0.95681  0.14945  1.0000
  C   C2283     1.0  0.51189  0.87368  0.00452  1.0000
  H   H1822     1.0  0.50881  0.95981  0.66184  1.0000
  C   C2284     1.0  0.51414  0.84082  0.21068  1.0000
  H   H1823     1.0  0.51093  0.84631  0.03774  1.0000
  H   H1824     1.0  0.51729  0.83662  0.23891  1.0000
  P   P75       1.0  0.51424  0.92626  0.25144  1.0000
  C   C2285     1.0  0.51977  0.94104  0.20865  1.0000
  H   H1825     1.0  0.51177  0.97471  0.01735  1.0000
  C   C2286     1.0  0.50926  0.77785  0.74030  1.0000
  C   C2287     1.0  0.50944  0.78300  0.69507  1.0000
  Fe  Fe153     1.0  0.69314  0.20024  0.98671  1.0000
  C   C2288     1.0  0.67946  0.16944  0.84672  1.0000
  S   S310      1.0  0.69470  0.18343  0.95885  1.0000
  Fe  Fe154     1.0  0.70531  0.22427  0.01298  1.0000
  S   S311      1.0  0.68692  0.22532  0.04973  1.0000
  S   S312      1.0  0.72385  0.23878  0.00361  1.0000
  Fe  Fe155     1.0  0.68259  0.20467  0.07904  1.0000
  H   H1826     1.0  0.68232  0.17691  0.12300  1.0000
  C   C2289     1.0  0.74618  0.18768  0.10219  1.0000
  C   C2290     1.0  0.68209  0.18206  0.84548  1.0000
  S   S313      1.0  0.70104  0.20366  0.04505  1.0000
  S   S314      1.0  0.69889  0.22066  0.95124  1.0000
  C   C2291     1.0  0.73635  0.25710  0.09369  1.0000
  P   P76       1.0  0.72753  0.18924  0.06008  1.0000
  H   H1827     1.0  0.71199  0.14518  0.14876  1.0000
  C   C2292     1.0  0.76944  0.26254  0.27620  1.0000
  C   C2293     1.0  0.69748  0.11951  0.06795  1.0000
  H   H1828     1.0  0.76058  0.18658  0.13485  1.0000
  H   H1829     1.0  0.77501  0.25593  0.17331  1.0000
  C   C2294     1.0  0.77572  0.26104  0.19860  1.0000
  H   H1830     1.0  0.68972  0.15863  0.06724  1.0000
  C   C2295     1.0  0.67733  0.13001  0.96359  1.0000
  H   H1831     1.0  0.68762  0.15921  0.94439  1.0000
  H   H1832     1.0  0.69062  0.13471  0.04265  1.0000
  C   C2296     1.0  0.69449  0.10720  0.09367  1.0000
  H   H1833     1.0  0.69332  0.14154  0.12221  1.0000
  C   C2297     1.0  0.68828  0.12513  0.06234  1.0000
  H   H1834     1.0  0.72484  0.18007  0.98030  1.0000
  C   C2298     1.0  0.72629  0.19578  0.92619  1.0000
  C   C2299     1.0  0.74259  0.18813  0.06160  1.0000
  C   C2300     1.0  0.72640  0.19000  0.97046  1.0000
  C   C2301     1.0  0.71116  0.19336  0.13121  1.0000
  H   H1835     1.0  0.67962  0.15154  0.88423  1.0000
  C   C2302     1.0  0.68850  0.17825  0.91591  1.0000
  C   C2303     1.0  0.68653  0.18643  0.87974  1.0000
  H   H1836     1.0  0.68874  0.19619  0.87744  1.0000
  C   C2304     1.0  0.73044  0.20916  0.09851  1.0000
  H   H1837     1.0  0.73158  0.21552  0.01027  1.0000
  C   C2305     1.0  0.68596  0.16562  0.91710  1.0000
  H   H1838     1.0  0.76252  0.24659  0.25362  1.0000
  C   C2306     1.0  0.68139  0.16123  0.88303  1.0000
  H   H1839     1.0  0.73324  0.25694  0.12916  1.0000
  H   H1840     1.0  0.70693  0.12469  0.05241  1.0000
  H   H1841     1.0  0.76380  0.25831  0.31083  1.0000
  C   C2307     1.0  0.76598  0.18641  0.06440  1.0000
  H   H1842     1.0  0.70444  0.17916  0.04047  1.0000
  C   C2308     1.0  0.68231  0.10052  0.11412  1.0000
  C   C2309     1.0  0.71482  0.21190  0.15699  1.0000
  H   H1843     1.0  0.72702  0.16567  0.12127  1.0000
  H   H1844     1.0  0.76054  0.25286  0.45422  1.0000
  C   C2310     1.0  0.76867  0.25582  0.24383  1.0000
  H   H1845     1.0  0.70163  0.10283  0.09804  1.0000
  C   C2311     1.0  0.70721  0.20044  0.15942  1.0000
  C   C2312     1.0  0.74794  0.26301  0.43751  1.0000
  H   H1846     1.0  0.68268  0.12031  0.91409  1.0000
  H   H1847     1.0  0.70496  0.18465  0.13318  1.0000
  H   H1848     1.0  0.73997  0.18797  0.13288  1.0000
  H   H1849     1.0  0.74090  0.25808  0.46893  1.0000
  C   C2313     1.0  0.74408  0.25718  0.00267  1.0000
  C   C2314     1.0  0.72271  0.19781  0.09959  1.0000
  C   C2315     1.0  0.73271  0.24896  0.02930  1.0000
  C   C2316     1.0  0.72893  0.24907  0.07513  1.0000
  C   C2317     1.0  0.67716  0.17308  0.15843  1.0000
  Fe  Fe156     1.0  0.68031  0.22036  0.99109  1.0000
  H   H1850     1.0  0.68022  0.09104  0.13420  1.0000
  C   C2318     1.0  0.72810  0.20855  0.91259  1.0000
  H   H1851     1.0  0.72028  0.24291  0.09643  1.0000
  H   H1852     1.0  0.68630  0.13255  0.96887  1.0000
  H   H1853     1.0  0.72439  0.19029  0.90289  1.0000
  H   H1854     1.0  0.69810  0.19717  0.18231  1.0000
  C   C2319     1.0  0.71055  0.15255  0.12415  1.0000
  C   C2320     1.0  0.70003  0.15048  0.10908  1.0000
  C   C2321     1.0  0.69797  0.16008  0.07842  1.0000
  C   C2322     1.0  0.70639  0.17176  0.06315  1.0000
  C   C2323     1.0  0.71711  0.17388  0.07742  1.0000
  C   C2324     1.0  0.71906  0.16421  0.10849  1.0000
  C   C2325     1.0  0.75901  0.26008  0.42924  1.0000
  C   C2326     1.0  0.72813  0.19693  0.00188  1.0000
  C   C2327     1.0  0.75784  0.18685  0.10350  1.0000
  H   H1855     1.0  0.77659  0.26397  0.38254  1.0000
  H   H1856     1.0  0.68079  0.18858  0.81747  1.0000
  H   H1857     1.0  0.73943  0.21274  0.07489  1.0000
  H   H1858     1.0  0.74826  0.18786  0.99088  1.0000
  H   H1859     1.0  0.73144  0.22547  0.93284  1.0000
  H   H1860     1.0  0.67997  0.15502  0.16300  1.0000
  C   C2328     1.0  0.75079  0.18759  0.02254  1.0000
  C   C2329     1.0  0.73024  0.20982  0.98740  1.0000
  C   C2330     1.0  0.75144  0.26532  0.02107  1.0000
  H   H1861     1.0  0.74724  0.25729  0.96727  1.0000
  C   C2331     1.0  0.76245  0.18676  0.02398  1.0000
  H   H1862     1.0  0.77503  0.18581  0.06540  1.0000
  C   C2332     1.0  0.74769  0.26537  0.06697  1.0000
  H   H1863     1.0  0.71164  0.21751  0.17808  1.0000
  H   H1864     1.0  0.76876  0.18643  0.99364  1.0000
  C   C2333     1.0  0.72647  0.21621  0.12682  1.0000
  C   C2334     1.0  0.73017  0.21557  0.94307  1.0000
  H   H1865     1.0  0.73232  0.22517  0.12450  1.0000
  H   H1866     1.0  0.72771  0.21298  0.87868  1.0000
  C   C2335     1.0  0.67609  0.11844  0.08234  1.0000
  C   C2336     1.0  0.67535  0.12319  0.93245  1.0000
  C   C2337     1.0  0.67593  0.16073  0.18119  1.0000
  Fe  Fe157     1.0  0.81465  0.43274  0.02066  1.0000
  S   S315      1.0  0.80432  0.43383  0.08884  1.0000
  S   S316      1.0  0.82859  0.45002  0.97254  1.0000
  Fe  Fe158     1.0  0.80575  0.40459  0.04742  1.0000
  S   S317      1.0  0.79516  0.40353  0.11781  1.0000
  S   S318      1.0  0.80794  0.38878  0.01687  1.0000
  Fe  Fe159     1.0  0.78893  0.41916  0.08133  1.0000
  S   S319      1.0  0.76879  0.41864  0.10358  1.0000
  Fe  Fe160     1.0  0.81142  0.41829  0.11909  1.0000
  S   S320      1.0  0.82130  0.41638  0.17569  1.0000
  S   S321      1.0  0.79882  0.41945  0.01052  1.0000
  S   S322      1.0  0.82238  0.41794  0.05117  1.0000
  S   S323      1.0  0.77564  0.31058  0.03016  1.0000
  Fe  Fe161     1.0  0.79818  0.30328  0.10188  1.0000
  S   S324      1.0  0.80104  0.32205  0.05557  1.0000
  H   H1867     1.0  0.80225  0.28224  0.25681  1.0000
  Fe  Fe162     1.0  0.78114  0.31896  0.08438  1.0000
  S   S325      1.0  0.77508  0.33375  0.11324  1.0000
  Fe  Fe163     1.0  0.79557  0.31205  0.00547  1.0000
  C   C2338     1.0  0.78640  0.34694  0.89585  1.0000
  H   H1868     1.0  0.69942  0.47706  0.57683  1.0000
  H   H1869     1.0  0.68271  0.42958  0.09152  1.0000
  Fe  Fe164     1.0  0.70819  0.40270  0.01252  1.0000
  S   S326      1.0  0.69424  0.38868  0.07265  1.0000
  S   S327      1.0  0.72881  0.40530  0.99587  1.0000
  Fe  Fe165     1.0  0.68838  0.41073  0.97300  1.0000
  C   C2339     1.0  0.67804  0.45744  0.26526  1.0000
  S   S328      1.0  0.68523  0.42449  0.91570  1.0000
  C   C2340     1.0  0.80273  0.28496  0.28767  1.0000
  H   H1870     1.0  0.68527  0.44501  0.23317  1.0000
  C   C2341     1.0  0.83794  0.31507  0.90620  1.0000
  H   H1871     1.0  0.76303  0.31190  0.19878  1.0000
  S   S329      1.0  0.69922  0.41787  0.01885  1.0000
  S   S330      1.0  0.69832  0.39651  0.96230  1.0000
  C   C2342     1.0  0.67965  0.43775  0.30715  1.0000
  C   C2343     1.0  0.68231  0.43773  0.65874  1.0000
  C   C2344     1.0  0.70208  0.32475  0.25884  1.0000
  Fe  Fe166     1.0  0.77416  0.29195  0.07587  1.0000
  C   C2345     1.0  0.81059  0.34470  0.19199  1.0000
  H   H1872     1.0  0.68045  0.42105  0.51471  1.0000
  H   H1873     1.0  0.83935  0.36488  0.55220  1.0000
  H   H1874     1.0  0.68925  0.45429  0.90413  1.0000
  H   H1875     1.0  0.81985  0.35200  0.07631  1.0000
  C   C2346     1.0  0.78448  0.34141  0.94230  1.0000
  H   H1876     1.0  0.73733  0.27449  0.41149  1.0000
  C   C2347     1.0  0.75501  0.27862  0.36454  1.0000
  C   C2348     1.0  0.82188  0.34758  0.20135  1.0000
  C   C2349     1.0  0.81995  0.39589  0.73428  1.0000
  C   C2350     1.0  0.83998  0.42924  0.71894  1.0000
  C   C2351     1.0  0.81523  0.29158  0.33579  1.0000
  C   C2352     1.0  0.80996  0.34610  0.14691  1.0000
  H   H1877     1.0  0.72965  0.45305  0.58325  1.0000
  H   H1878     1.0  0.82488  0.40527  0.93420  1.0000
  C   C2353     1.0  0.78359  0.27296  0.18576  1.0000
  C   C2354     1.0  0.82940  0.39184  0.71260  1.0000
  Fe  Fe167     1.0  0.68462  0.40340  0.07586  1.0000
  H   H1879     1.0  0.78234  0.32854  0.28336  1.0000
  C   C2355     1.0  0.83204  0.35317  0.12011  1.0000
  H   H1880     1.0  0.68954  0.46566  0.82629  1.0000
  H   H1881     1.0  0.67979  0.39988  0.37714  1.0000
  C   C2356     1.0  0.82452  0.37687  0.89612  1.0000
  H   H1882     1.0  0.72638  0.32677  0.90581  1.0000
  H   H1883     1.0  0.79137  0.33774  0.95410  1.0000
  H   H1884     1.0  0.82143  0.43844  0.90450  1.0000
  C   C2357     1.0  0.82963  0.42783  0.19685  1.0000
  C   C2358     1.0  0.82821  0.43977  0.19010  1.0000
  H   H1885     1.0  0.79952  0.31199  0.20580  1.0000
  S   S331      1.0  0.80435  0.32072  0.92973  1.0000
  C   C2359     1.0  0.77255  0.32150  0.23867  1.0000
  C   C2360     1.0  0.68321  0.45481  0.51995  1.0000
  H   H1886     1.0  0.82192  0.44228  0.17129  1.0000
  H   H1887     1.0  0.69208  0.39063  0.18038  1.0000
  C   C2361     1.0  0.67563  0.41839  0.73953  1.0000
  C   C2362     1.0  0.83738  0.44431  0.84700  1.0000
  C   C2363     1.0  0.75777  0.41554  0.07263  1.0000
  C   C2364     1.0  0.76107  0.41505  0.02731  1.0000
  C   C2365     1.0  0.75208  0.41210  0.00438  1.0000
  C   C2366     1.0  0.73966  0.40964  0.02624  1.0000
  C   C2367     1.0  0.73632  0.41030  0.07143  1.0000
  C   C2368     1.0  0.74535  0.41328  0.09438  1.0000
  H   H1888     1.0  0.77057  0.41692  0.00992  1.0000
  H   H1889     1.0  0.75478  0.41175  0.96931  1.0000
  H   H1890     1.0  0.72682  0.40842  0.08879  1.0000
  H   H1891     1.0  0.74268  0.41368  0.12940  1.0000
  C   C2369     1.0  0.79903  0.37347  0.04532  1.0000
  C   C2370     1.0  0.79205  0.37015  0.09075  1.0000
  C   C2371     1.0  0.78480  0.35790  0.11170  1.0000
  C   C2372     1.0  0.78477  0.34886  0.08775  1.0000
  C   C2373     1.0  0.79209  0.35211  0.04298  1.0000
  C   C2374     1.0  0.79894  0.36441  0.02159  1.0000
  H   H1892     1.0  0.79222  0.37703  0.10958  1.0000
  H   H1893     1.0  0.77939  0.35539  0.14671  1.0000
  H   H1894     1.0  0.79225  0.34522  0.02436  1.0000
  H   H1895     1.0  0.80402  0.36693  0.98624  1.0000
  C   C2375     1.0  0.83469  0.42583  0.58103  1.0000
  C   C2376     1.0  0.79247  0.28627  0.31692  1.0000
  H   H1896     1.0  0.68408  0.42483  0.21378  1.0000
  H   H1897     1.0  0.83021  0.38353  0.95044  1.0000
  C   C2377     1.0  0.83257  0.35177  0.16568  1.0000
  C   C2378     1.0  0.82613  0.39184  0.80483  1.0000
  C   C2379     1.0  0.72302  0.45826  0.58214  1.0000
  C   C2380     1.0  0.67620  0.42864  0.12328  1.0000
  C   C2381     1.0  0.80914  0.39364  0.88651  1.0000
  C   C2382     1.0  0.80768  0.40554  0.88373  1.0000
  C   C2383     1.0  0.79621  0.40706  0.90027  1.0000
  C   C2384     1.0  0.78608  0.39675  0.91897  1.0000
  C   C2385     1.0  0.78740  0.38490  0.92139  1.0000
  C   C2386     1.0  0.79888  0.38333  0.90526  1.0000
  H   H1898     1.0  0.68667  0.39465  0.44672  1.0000
  C   C2387     1.0  0.77548  0.29850  0.27942  1.0000
  C   C2388     1.0  0.80860  0.31309  0.21000  1.0000
  P   P77       1.0  0.68396  0.42355  0.30856  1.0000
  H   H1899     1.0  0.82079  0.33514  0.84335  1.0000
  C   C2389     1.0  0.82780  0.37561  0.93745  1.0000
  C   C2390     1.0  0.79374  0.29012  0.35608  1.0000
  H   H1900     1.0  0.70742  0.31811  0.20009  1.0000
  H   H1901     1.0  0.79474  0.34736  0.87174  1.0000
  C   C2391     1.0  0.68938  0.40416  0.42601  1.0000
  H   H1902     1.0  0.75325  0.28569  0.33976  1.0000
  H   H1903     1.0  0.83999  0.42322  0.93869  1.0000
  C   C2392     1.0  0.81402  0.28756  0.29724  1.0000
  H   H1904     1.0  0.78603  0.29133  0.37898  1.0000
  S   S332      1.0  0.75674  0.27530  0.09303  1.0000
  H   H1905     1.0  0.81738  0.36687  0.85137  1.0000
  H   H1906     1.0  0.81390  0.39908  0.71550  1.0000
  H   H1907     1.0  0.79521  0.41623  0.89918  1.0000
  H   H1908     1.0  0.77722  0.39798  0.93185  1.0000
  H   H1909     1.0  0.77957  0.37689  0.93635  1.0000
  H   H1910     1.0  0.79967  0.37405  0.90791  1.0000
  H   H1911     1.0  0.69798  0.33404  0.31088  1.0000
  C   C2393     1.0  0.70198  0.45873  0.59342  1.0000
  P   P78       1.0  0.82395  0.39169  0.86443  1.0000
  H   H1912     1.0  0.83883  0.41549  0.22819  1.0000
  C   C2394     1.0  0.82037  0.36625  0.88225  1.0000
  H   H1913     1.0  0.82222  0.34428  0.97078  1.0000
  C   C2395     1.0  0.83873  0.33295  0.00736  1.0000
  C   C2396     1.0  0.72685  0.47118  0.56858  1.0000
  H   H1914     1.0  0.70778  0.44202  0.60434  1.0000
  H   H1915     1.0  0.81540  0.41365  0.86935  1.0000
  C   C2397     1.0  0.81168  0.31761  0.24616  1.0000
  H   H1916     1.0  0.80120  0.34376  0.13973  1.0000
  C   C2398     1.0  0.83713  0.38766  0.73696  1.0000
  H   H1917     1.0  0.67749  0.44813  0.10919  1.0000
  C   C2399     1.0  0.83081  0.42361  0.54312  1.0000
  H   H1918     1.0  0.81875  0.46656  0.11047  1.0000
  S   S333      1.0  0.81323  0.30203  0.13866  1.0000
  H   H1919     1.0  0.68408  0.42709  0.58305  1.0000
  H   H1920     1.0  0.80613  0.29634  0.39429  1.0000
  S   S334      1.0  0.77825  0.30043  0.13275  1.0000
  H   H1921     1.0  0.69628  0.44630  0.68732  1.0000
  C   C2400     1.0  0.70732  0.32618  0.21263  1.0000
  H   H1922     1.0  0.82904  0.46527  0.03433  1.0000
  H   H1923     1.0  0.68141  0.40103  0.27694  1.0000
  C   C2401     1.0  0.80508  0.29283  0.36525  1.0000
  H   H1924     1.0  0.83602  0.37261  0.21265  1.0000
  H   H1925     1.0  0.81078  0.39884  0.79645  1.0000
  C   C2402     1.0  0.82720  0.36392  0.96390  1.0000
  C   C2403     1.0  0.71063  0.45204  0.59423  1.0000
  C   C2404     1.0  0.77759  0.35185  0.88076  1.0000
  C   C2405     1.0  0.76674  0.35101  0.91209  1.0000
  C   C2406     1.0  0.76454  0.34499  0.95858  1.0000
  C   C2407     1.0  0.77365  0.34054  0.97362  1.0000
  P   P79       1.0  0.75100  0.34471  0.99949  1.0000
  C   C2408     1.0  0.74810  0.33248  0.05093  1.0000
  C   C2409     1.0  0.75445  0.35979  0.00933  1.0000
  C   C2410     1.0  0.76377  0.36301  0.03014  1.0000
  C   C2411     1.0  0.76743  0.37498  0.03450  1.0000
  C   C2412     1.0  0.76166  0.38375  0.01892  1.0000
  C   C2413     1.0  0.75249  0.38070  0.99750  1.0000
  C   C2414     1.0  0.74899  0.36880  0.99211  1.0000
  C   C2415     1.0  0.74815  0.32052  0.04781  1.0000
  C   C2416     1.0  0.74600  0.31095  0.08732  1.0000
  C   C2417     1.0  0.74367  0.31324  0.13020  1.0000
  C   C2418     1.0  0.74332  0.32506  0.13367  1.0000
  C   C2419     1.0  0.74548  0.33465  0.09417  1.0000
  C   C2420     1.0  0.73751  0.34107  0.97992  1.0000
  C   C2421     1.0  0.73721  0.33484  0.94580  1.0000
  C   C2422     1.0  0.72656  0.33158  0.93218  1.0000
  C   C2423     1.0  0.71609  0.33432  0.95304  1.0000
  C   C2424     1.0  0.71621  0.34019  0.98796  1.0000
  C   C2425     1.0  0.72685  0.34346  0.00169  1.0000
  H   H1926     1.0  0.77916  0.35627  0.84478  1.0000
  H   H1927     1.0  0.76008  0.35505  0.90009  1.0000
  H   H1928     1.0  0.76839  0.35633  0.04218  1.0000
  H   H1929     1.0  0.77481  0.37752  0.04966  1.0000
  H   H1930     1.0  0.76449  0.39295  0.02288  1.0000
  H   H1931     1.0  0.74817  0.38763  0.98475  1.0000
  H   H1932     1.0  0.74220  0.36680  0.97386  1.0000
  H   H1933     1.0  0.75007  0.31861  0.01479  1.0000
  H   H1934     1.0  0.74639  0.30180  0.08460  1.0000
  H   H1935     1.0  0.74232  0.30587  0.16058  1.0000
  H   H1936     1.0  0.74174  0.32686  0.16686  1.0000
  H   H1937     1.0  0.74531  0.34376  0.09740  1.0000
  H   H1938     1.0  0.74510  0.33227  0.93021  1.0000
  H   H1939     1.0  0.70782  0.33175  0.94257  1.0000
  H   H1940     1.0  0.70801  0.34210  0.00461  1.0000
  H   H1941     1.0  0.72672  0.34779  0.02944  1.0000
  H   H1942     1.0  0.80235  0.34125  0.21973  1.0000
  C   C2426     1.0  0.70590  0.47170  0.57897  1.0000
  H   H1943     1.0  0.68627  0.46508  0.67471  1.0000
  C   C2427     1.0  0.76761  0.31103  0.22575  1.0000
  H   H1944     1.0  0.82134  0.28973  0.44957  1.0000
  C   C2428     1.0  0.71830  0.47789  0.56683  1.0000
  H   H1945     1.0  0.82196  0.28696  0.27361  1.0000
  C   C2429     1.0  0.83477  0.44841  0.20852  1.0000
  C   C2430     1.0  0.69601  0.42555  0.25805  1.0000
  C   C2431     1.0  0.70807  0.42665  0.26016  1.0000
  C   C2432     1.0  0.71714  0.42770  0.22103  1.0000
  C   C2433     1.0  0.71425  0.42761  0.17964  1.0000
  C   C2434     1.0  0.70230  0.42653  0.17730  1.0000
  C   C2435     1.0  0.69326  0.42557  0.21623  1.0000
  H   H1946     1.0  0.83087  0.47587  0.15745  1.0000
  C   C2436     1.0  0.82561  0.32968  0.86142  1.0000
  H   H1947     1.0  0.83070  0.33571  0.07122  1.0000
  C   C2437     1.0  0.70029  0.42563  0.41207  1.0000
  C   C2438     1.0  0.69644  0.42867  0.37251  1.0000
  H   H1948     1.0  0.83335  0.45747  0.20425  1.0000
  C   C2439     1.0  0.82060  0.35056  0.11106  1.0000
  H   H1949     1.0  0.83070  0.39183  0.67704  1.0000
  H   H1950     1.0  0.83638  0.35866  0.63630  1.0000
  C   C2440     1.0  0.77856  0.32044  0.27309  1.0000
  C   C2441     1.0  0.83027  0.29199  0.45546  1.0000
  C   C2442     1.0  0.82307  0.35340  0.94979  1.0000
  H   H1951     1.0  0.69809  0.31556  0.28214  1.0000
  C   C2443     1.0  0.81711  0.30952  0.18064  1.0000
  H   H1952     1.0  0.80496  0.32000  0.26942  1.0000
  H   H1953     1.0  0.82237  0.34638  0.23646  1.0000
  H   H1954     1.0  0.71054  0.42666  0.29177  1.0000
  H   H1955     1.0  0.72645  0.42859  0.22267  1.0000
  H   H1956     1.0  0.72126  0.42837  0.14935  1.0000
  H   H1957     1.0  0.69999  0.42639  0.14530  1.0000
  C   C2444     1.0  0.68898  0.41946  0.35947  1.0000
  C   C2445     1.0  0.81961  0.32154  0.90495  1.0000
  H   H1958     1.0  0.67921  0.46405  0.23297  1.0000
  C   C2446     1.0  0.76810  0.26641  0.38869  1.0000
  H   H1959     1.0  0.70602  0.43279  0.42197  1.0000
  H   H1960     1.0  0.69928  0.43821  0.35199  1.0000
  H   H1961     1.0  0.79020  0.28910  0.20694  1.0000
  H   H1962     1.0  0.69980  0.41103  0.46939  1.0000
  C   C2447     1.0  0.67694  0.46057  0.62462  1.0000
  C   C2448     1.0  0.68146  0.44654  0.26557  1.0000
  C   C2449     1.0  0.82583  0.31427  0.92747  1.0000
  C   C2450     1.0  0.83900  0.38166  0.07769  1.0000
  C   C2451     1.0  0.81916  0.42556  0.76220  1.0000
  C   C2452     1.0  0.81590  0.42894  0.72155  1.0000
  C   C2453     1.0  0.82470  0.43261  0.67955  1.0000
  H   H1963     1.0  0.81616  0.34645  0.89878  1.0000
  H   H1964     1.0  0.83275  0.43988  0.82577  1.0000
  H   H1965     1.0  0.72755  0.37851  0.21939  1.0000
  C   C2454     1.0  0.83786  0.33088  0.84113  1.0000
  P   P80       1.0  0.68605  0.45063  0.60840  1.0000
  C   C2455     1.0  0.69677  0.41338  0.43881  1.0000
  H   H1966     1.0  0.69041  0.42916  0.75781  1.0000
  H   H1967     1.0  0.83378  0.39812  0.08345  1.0000
  C   C2456     1.0  0.83439  0.46912  0.05513  1.0000
  C   C2457     1.0  0.68314  0.43392  0.55518  1.0000
  H   H1968     1.0  0.82411  0.29419  0.34184  1.0000
  C   C2458     1.0  0.83678  0.43265  0.67792  1.0000
  H   H1969     1.0  0.81242  0.42313  0.79470  1.0000
  H   H1970     1.0  0.80663  0.42912  0.72268  1.0000
  H   H1971     1.0  0.82217  0.43588  0.64851  1.0000
  H   H1972     1.0  0.67851  0.43645  0.44943  1.0000
  C   C2459     1.0  0.68882  0.43830  0.69184  1.0000
  H   H1973     1.0  0.77247  0.33645  0.00962  1.0000
  C   C2460     1.0  0.76897  0.29955  0.24624  1.0000
  C   C2461     1.0  0.74594  0.27226  0.40515  1.0000
  S   S335      1.0  0.82633  0.32388  0.30148  1.0000
  C   C2462     1.0  0.70200  0.33516  0.27500  1.0000
  H   H1974     1.0  0.76008  0.27149  0.99968  1.0000
  C   C2463     1.0  0.70007  0.35715  0.06690  1.0000
  C   C2464     1.0  0.70741  0.36564  0.02608  1.0000
  C   C2465     1.0  0.71858  0.37325  0.02525  1.0000
  C   C2466     1.0  0.72236  0.37253  0.06537  1.0000
  C   C2467     1.0  0.71508  0.36395  0.10649  1.0000
  C   C2468     1.0  0.70381  0.35637  0.10701  1.0000
  P   P81       1.0  0.71924  0.36379  0.15942  1.0000
  C   C2469     1.0  0.71238  0.34853  0.19848  1.0000
  C   C2470     1.0  0.73558  0.36740  0.15004  1.0000
  C   C2471     1.0  0.74121  0.35806  0.16203  1.0000
  C   C2472     1.0  0.75367  0.36107  0.15845  1.0000
  C   C2473     1.0  0.76058  0.37343  0.14368  1.0000
  C   C2474     1.0  0.75512  0.38275  0.13102  1.0000
  C   C2475     1.0  0.74271  0.37976  0.13364  1.0000
  C   C2476     1.0  0.70715  0.34703  0.24499  1.0000
  C   C2477     1.0  0.82888  0.31108  0.18695  1.0000
  C   C2478     1.0  0.83801  0.33962  0.04005  1.0000
  C   C2479     1.0  0.71247  0.33802  0.18253  1.0000
  C   C2480     1.0  0.71375  0.37520  0.18301  1.0000
  C   C2481     1.0  0.70356  0.37853  0.17319  1.0000
  C   C2482     1.0  0.69970  0.38781  0.18944  1.0000
  C   C2483     1.0  0.70584  0.39369  0.21627  1.0000
  C   C2484     1.0  0.71583  0.39025  0.22716  1.0000
  C   C2485     1.0  0.71974  0.38099  0.21084  1.0000
  H   H1975     1.0  0.69126  0.35149  0.06768  1.0000
  H   H1976     1.0  0.70425  0.36657  0.99542  1.0000
  H   H1977     1.0  0.72408  0.38008  0.99379  1.0000
  H   H1978     1.0  0.73073  0.37898  0.06433  1.0000
  H   H1979     1.0  0.69770  0.35012  0.13856  1.0000
  H   H1980     1.0  0.73607  0.34845  0.17478  1.0000
  H   H1981     1.0  0.75795  0.35383  0.16754  1.0000
  H   H1982     1.0  0.77021  0.37583  0.14157  1.0000
  H   H1983     1.0  0.76054  0.39232  0.11920  1.0000
  H   H1984     1.0  0.73865  0.38713  0.12390  1.0000
  H   H1985     1.0  0.70707  0.35497  0.25822  1.0000
  S   S336      1.0  0.79412  0.29316  0.04888  1.0000
  H   H1986     1.0  0.71659  0.33897  0.14685  1.0000
  H   H1987     1.0  0.69869  0.37413  0.15238  1.0000
  C   C2486     1.0  0.83894  0.39189  0.18046  1.0000
  H   H1988     1.0  0.70292  0.40100  0.22822  1.0000
  H   H1989     1.0  0.72067  0.39489  0.24762  1.0000
  S   S337      1.0  0.67575  0.40402  0.14710  1.0000
  H   H1990     1.0  0.68043  0.45807  0.45249  1.0000
  H   H1991     1.0  0.82123  0.30786  0.96077  1.0000
  C   C2487     1.0  0.68552  0.42862  0.73193  1.0000
  H   H1992     1.0  0.83191  0.32427  0.01319  1.0000
  H   H1993     1.0  0.78480  0.30846  0.31965  1.0000
  Fe  Fe168     1.0  0.68358  0.38378  0.02349  1.0000
  H   H1994     1.0  0.83263  0.43072  0.47111  1.0000
  C   C2488     1.0  0.82343  0.31920  0.25248  1.0000
  C   C2489     1.0  0.81824  0.39579  0.78030  1.0000
  C   C2490     1.0  0.83575  0.40384  0.87090  1.0000
  C   C2491     1.0  0.68550  0.40716  0.38645  1.0000
  C   C2492     1.0  0.68107  0.46210  0.85305  1.0000
  H   H1995     1.0  0.77180  0.33043  0.22160  1.0000
  C   C2493     1.0  0.77996  0.30898  0.29359  1.0000
  C   C2494     1.0  0.83491  0.28260  0.47509  1.0000
  H   H1996     1.0  0.72128  0.48791  0.55594  1.0000
  H   H1997     1.0  0.82955  0.27304  0.48444  1.0000
  C   C2495     1.0  0.68361  0.44600  0.55819  1.0000
  H   H1998     1.0  0.73646  0.47599  0.55922  1.0000
  C   C2496     1.0  0.67913  0.46641  0.65860  1.0000
  C   C2497     1.0  0.83551  0.38763  0.78287  1.0000
  H   H1999     1.0  0.82976  0.39194  0.19600  1.0000
  C   C2498     1.0  0.68093  0.45578  0.89696  1.0000
  C   C2499     1.0  0.83541  0.47511  0.12444  1.0000
  C   C2500     1.0  0.83210  0.31610  0.22200  1.0000
  C   C2501     1.0  0.77724  0.27460  0.26336  1.0000
  H   H2000     1.0  0.83491  0.37716  0.11368  1.0000
  C   C2502     1.0  0.68130  0.45135  0.48098  1.0000
  H   H2001     1.0  0.82420  0.41502  0.54644  1.0000
  H   H2002     1.0  0.78909  0.27703  0.15071  1.0000
  C   C2503     1.0  0.83348  0.40888  0.90813  1.0000
  H   H2003     1.0  0.68410  0.46432  0.52059  1.0000
  C   C2504     1.0  0.83095  0.44350  0.89159  1.0000
  H   H2004     1.0  0.83382  0.42329  0.79226  1.0000
  H   H2005     1.0  0.82937  0.36295  0.99634  1.0000
  H   H2006     1.0  0.83546  0.30815  0.16505  1.0000
  C   C2505     1.0  0.82857  0.46993  0.09795  1.0000
  C   C2506     1.0  0.81964  0.35460  0.90909  1.0000
  C   C2507     1.0  0.68128  0.43049  0.51609  1.0000
  C   C2508     1.0  0.83774  0.42473  0.22211  1.0000
  C   C2509     1.0  0.83673  0.44969  0.91859  1.0000
  H   H2007     1.0  0.67695  0.43830  0.84671  1.0000
  C   C2510     1.0  0.83118  0.42562  0.76085  1.0000
  C   C2511     1.0  0.68024  0.43917  0.47921  1.0000
  P   P82       1.0  0.77790  0.28380  0.30374  1.0000
  C   C2512     1.0  0.78425  0.27976  0.21782  1.0000
  H   H2008     1.0  0.76514  0.29158  0.23537  1.0000
  C   C2513     1.0  0.83716  0.30432  0.44348  1.0000
  C   C2514     1.0  0.83554  0.43245  0.50065  1.0000
  C   C2515     1.0  0.76618  0.27578  0.35619  1.0000
  H   H2009     1.0  0.83107  0.41884  0.61354  1.0000
  C   C2516     1.0  0.83836  0.39364  0.06066  1.0000
  H   H2010     1.0  0.83361  0.31166  0.42827  1.0000
  H   H2011     1.0  0.84110  0.31704  0.22683  1.0000
  H   H2012     1.0  0.84111  0.35413  0.17415  1.0000
  H   H2013     1.0  0.84124  0.46134  0.57995  1.0000
  H   H2014     1.0  0.68367  0.54975  0.87125  1.0000
  H   H2015     1.0  0.67912  0.56791  0.89423  1.0000
  C   C2517     1.0  0.67588  0.54844  0.89950  1.0000
  H   H2016     1.0  0.88542  0.25921  0.51683  1.0000
  H   H2017     1.0  0.87109  0.26363  0.57804  1.0000
  H   H2018     1.0  0.86660  0.47487  0.67914  1.0000
  Fe  Fe169     1.0  0.87177  0.34335  0.28272  1.0000
  S   S338      1.0  0.85830  0.32790  0.34078  1.0000
  S   S339      1.0  0.88612  0.34007  0.22910  1.0000
  Fe  Fe170     1.0  0.85775  0.36154  0.29991  1.0000
  H   H2019     1.0  0.93996  0.49122  0.27526  1.0000
  S   S340      1.0  0.85625  0.38055  0.27317  1.0000
  Fe  Fe171     1.0  0.85900  0.34232  0.38100  1.0000
  S   S341      1.0  0.85707  0.34030  0.45842  1.0000
  C   C2518     1.0  0.84329  0.43696  0.57664  1.0000
  C   C2519     1.0  0.98060  0.49996  0.24113  1.0000
  S   S342      1.0  0.87348  0.35719  0.32410  1.0000
  S   S343      1.0  0.85746  0.34932  0.25310  1.0000
  Fe  Fe172     1.0  0.87498  0.36872  0.73664  1.0000
  S   S344      1.0  0.89296  0.37034  0.68998  1.0000
  S   S345      1.0  0.86765  0.38519  0.73489  1.0000
  Fe  Fe173     1.0  0.87048  0.34171  0.78086  1.0000
  S   S346      1.0  0.88819  0.34131  0.73668  1.0000
  S   S347      1.0  0.85938  0.32474  0.83849  1.0000
  Fe  Fe174     1.0  0.89620  0.35907  0.75286  1.0000
  S   S348      1.0  0.91456  0.36234  0.77051  1.0000
  Fe  Fe175     1.0  0.88323  0.35260  0.67771  1.0000
  S   S349      1.0  0.88749  0.35039  0.60404  1.0000
  S   S350      1.0  0.87879  0.35873  0.80007  1.0000
  S   S351      1.0  0.86494  0.35170  0.72144  1.0000
  Fe  Fe176     1.0  0.87113  0.43435  0.36265  1.0000
  S   S352      1.0  0.86669  0.41449  0.40174  1.0000
  Fe  Fe177     1.0  0.89067  0.45661  0.29596  1.0000
  S   S353      1.0  0.87881  0.46919  0.30521  1.0000
  S   S354      1.0  0.90987  0.46126  0.25091  1.0000
  Fe  Fe178     1.0  0.87417  0.45948  0.38093  1.0000
  S   S355      1.0  0.87275  0.46837  0.44078  1.0000
  S   S356      1.0  0.88684  0.44781  0.37137  1.0000
  S   S357      1.0  0.87622  0.44178  0.28634  1.0000
  Fe  Fe179     1.0  0.87796  0.45888  0.74954  1.0000
  S   S358      1.0  0.88925  0.47851  0.71456  1.0000
  S   S359      1.0  0.85747  0.45157  0.77376  1.0000
  Fe  Fe180     1.0  0.89984  0.44888  0.73540  1.0000
  S   S360      1.0  0.91288  0.46766  0.70010  1.0000
  S   S361      1.0  0.90617  0.43168  0.74649  1.0000
  Fe  Fe181     1.0  0.90236  0.47391  0.75603  1.0000
  S   S362      1.0  0.90853  0.48522  0.80440  1.0000
  Fe  Fe182     1.0  0.89879  0.47049  0.66163  1.0000
  S   S363      1.0  0.90452  0.47620  0.58281  1.0000
  S   S364      1.0  0.89020  0.45471  0.79357  1.0000
  S   S365      1.0  0.88661  0.45136  0.69426  1.0000
  C   C2520     1.0  0.84738  0.40287  0.15249  1.0000
  S   S366      1.0  0.96854  0.50460  0.05910  1.0000
  Fe  Fe183     1.0  0.95875  0.50541  0.94493  1.0000
  S   S367      1.0  0.94708  0.49259  0.01242  1.0000
  C   C2521     1.0  0.00022  0.41450  0.04008  1.0000
  H   H2020     1.0  0.86832  0.32146  0.63235  1.0000
  C   C2522     1.0  0.96656  0.39296  0.81650  1.0000
  Fe  Fe184     1.0  0.96445  0.48956  0.02479  1.0000
  S   S368      1.0  0.96570  0.47094  0.05883  1.0000
  C   C2523     1.0  0.94936  0.37777  0.71445  1.0000
  S   S369      1.0  0.97605  0.50121  0.95589  1.0000
  Fe  Fe185     1.0  0.94559  0.41104  0.00216  1.0000
  S   S370      1.0  0.95842  0.40873  0.94218  1.0000
  S   S371      1.0  0.93769  0.42718  0.99495  1.0000
  Fe  Fe186     1.0  0.94577  0.38753  0.06542  1.0000
  S   S372      1.0  0.95899  0.38336  0.01074  1.0000
  S   S373      1.0  0.93848  0.37786  0.14099  1.0000
  Fe  Fe187     1.0  0.94705  0.38885  0.96551  1.0000
  S   S374      1.0  0.94175  0.37693  0.91816  1.0000
  S   S375      1.0  0.95697  0.40721  0.05006  1.0000
  S   S376      1.0  0.93338  0.39170  0.02181  1.0000
  C   C2524     1.0  0.95774  0.45886  0.04159  1.0000
  C   C2525     1.0  0.95716  0.44668  0.06270  1.0000
  C   C2526     1.0  0.95093  0.43689  0.04884  1.0000
  C   C2527     1.0  0.94533  0.43927  0.01363  1.0000
  C   C2528     1.0  0.94563  0.45147  0.99361  1.0000
  C   C2529     1.0  0.95192  0.46126  0.00721  1.0000
  H   H2021     1.0  0.96165  0.44484  0.08939  1.0000
  H   H2022     1.0  0.95027  0.42753  0.06615  1.0000
  H   H2023     1.0  0.94121  0.45347  0.96701  1.0000
  H   H2024     1.0  0.95235  0.47065  0.99073  1.0000
  C   C2530     1.0  0.92155  0.48826  0.82635  1.0000
  C   C2531     1.0  0.93341  0.49084  0.79889  1.0000
  C   C2532     1.0  0.94349  0.49544  0.81495  1.0000
  C   C2533     1.0  0.94191  0.49719  0.85914  1.0000
  C   C2534     1.0  0.93007  0.49396  0.88750  1.0000
  C   C2535     1.0  0.91999  0.48972  0.87094  1.0000
  H   H2025     1.0  0.93481  0.48996  0.76437  1.0000
  H   H2026     1.0  0.85835  0.48979  0.63362  1.0000
  H   H2027     1.0  0.92484  0.48809  0.48225  1.0000
  H   H2028     1.0  0.91091  0.48777  0.89265  1.0000
  C   C2536     1.0  0.88141  0.46954  0.48155  1.0000
  C   C2537     1.0  0.87766  0.47490  0.51671  1.0000
  C   C2538     1.0  0.88432  0.47640  0.54909  1.0000
  C   C2539     1.0  0.89492  0.47260  0.54686  1.0000
  C   C2540     1.0  0.89871  0.46722  0.51167  1.0000
  C   C2541     1.0  0.89194  0.46557  0.47955  1.0000
  H   H2029     1.0  0.86961  0.47810  0.51855  1.0000
  H   H2030     1.0  0.88146  0.48088  0.57494  1.0000
  H   H2031     1.0  0.90700  0.46443  0.50898  1.0000
  H   H2032     1.0  0.89494  0.46136  0.45301  1.0000
  C   C2542     1.0  0.91720  0.47550  0.20928  1.0000
  C   C2543     1.0  0.91143  0.48482  0.20032  1.0000
  C   C2544     1.0  0.91755  0.49581  0.16522  1.0000
  C   C2545     1.0  0.92938  0.49745  0.13870  1.0000
  C   C2546     1.0  0.93514  0.48818  0.14816  1.0000
  C   C2547     1.0  0.92914  0.47735  0.18370  1.0000
  H   H2033     1.0  0.90224  0.48349  0.22005  1.0000
  H   H2034     1.0  0.91304  0.50296  0.15819  1.0000
  H   H2035     1.0  0.94426  0.48934  0.12814  1.0000
  H   H2036     1.0  0.93369  0.47026  0.19099  1.0000
  C   C2548     1.0  0.87821  0.39783  0.74041  1.0000
  C   C2549     1.0  0.87494  0.40867  0.74271  1.0000
  C   C2550     1.0  0.88343  0.41901  0.74533  1.0000
  C   C2551     1.0  0.89527  0.41859  0.74534  1.0000
  C   C2552     1.0  0.89847  0.40764  0.74400  1.0000
  C   C2553     1.0  0.88995  0.39726  0.74172  1.0000
  H   H2037     1.0  0.86587  0.40915  0.74185  1.0000
  H   H2038     1.0  0.88078  0.42728  0.74744  1.0000
  H   H2039     1.0  0.90756  0.40719  0.74422  1.0000
  H   H2040     1.0  0.89251  0.38886  0.74066  1.0000
  C   C2554     1.0  0.92016  0.36566  0.81713  1.0000
  C   C2555     1.0  0.91673  0.37392  0.84130  1.0000
  C   C2556     1.0  0.92297  0.37742  0.87331  1.0000
  C   C2557     1.0  0.93265  0.37264  0.88132  1.0000
  C   C2558     1.0  0.93562  0.36406  0.85838  1.0000
  C   C2559     1.0  0.92949  0.36066  0.82679  1.0000
  H   H2041     1.0  0.90961  0.37796  0.83396  1.0000
  H   H2042     1.0  0.92043  0.38393  0.89109  1.0000
  H   H2043     1.0  0.94290  0.36013  0.86445  1.0000
  H   H2044     1.0  0.93211  0.35412  0.80928  1.0000
  C   C2560     1.0  0.86592  0.34414  0.49683  1.0000
  C   C2561     1.0  0.87847  0.34563  0.48691  1.0000
  C   C2562     1.0  0.88488  0.34768  0.51979  1.0000
  C   C2563     1.0  0.87892  0.34844  0.56309  1.0000
  C   C2564     1.0  0.86643  0.34733  0.57255  1.0000
  C   C2565     1.0  0.86000  0.34511  0.53985  1.0000
  H   H2045     1.0  0.88322  0.34505  0.45406  1.0000
  H   H2046     1.0  0.89452  0.34855  0.51178  1.0000
  H   H2047     1.0  0.86167  0.34789  0.60548  1.0000
  H   H2048     1.0  0.85031  0.34397  0.54822  1.0000
  C   C2566     1.0  0.90007  0.35157  0.20333  1.0000
  C   C2567     1.0  0.90631  0.35278  0.15808  1.0000
  C   C2568     1.0  0.91783  0.36132  0.13767  1.0000
  C   C2569     1.0  0.92341  0.36830  0.16318  1.0000
  C   C2570     1.0  0.91715  0.36709  0.20838  1.0000
  C   C2571     1.0  0.90539  0.35898  0.22804  1.0000
  H   H2049     1.0  0.90227  0.34699  0.13892  1.0000
  H   H2050     1.0  0.92265  0.36208  0.10301  1.0000
  H   H2051     1.0  0.92144  0.37236  0.22843  1.0000
  H   H2052     1.0  0.90066  0.35812  0.26290  1.0000
  C   C2572     1.0  0.85751  0.38940  0.31195  1.0000
  C   C2573     1.0  0.85713  0.40167  0.29956  1.0000
  C   C2574     1.0  0.85944  0.40928  0.32813  1.0000
  C   C2575     1.0  0.86208  0.40462  0.36909  1.0000
  C   C2576     1.0  0.86166  0.39212  0.38286  1.0000
  C   C2577     1.0  0.85953  0.38453  0.35401  1.0000
  H   H2053     1.0  0.85278  0.39854  0.94883  1.0000
  H   H2054     1.0  0.85906  0.41871  0.31857  1.0000
  H   H2055     1.0  0.86335  0.38841  0.41515  1.0000
  H   H2056     1.0  0.85962  0.37498  0.36408  1.0000
  H   H2057     1.0  0.92660  0.42199  0.74363  1.0000
  C   C2578     1.0  0.88619  0.27538  0.46521  1.0000
  H   H2058     1.0  0.88523  0.49975  0.95259  1.0000
  H   H2059     1.0  0.85041  0.31113  0.53380  1.0000
  C   C2579     1.0  0.94544  0.42412  0.71233  1.0000
  H   H2060     1.0  0.93073  0.45025  0.69713  1.0000
  C   C2580     1.0  0.88190  0.49964  0.30197  1.0000
  H   H2061     1.0  0.95934  0.38456  0.82328  1.0000
  C   C2581     1.0  0.84964  0.38179  0.00190  1.0000
  H   H2062     1.0  0.85391  0.31686  0.44165  1.0000
  C   C2582     1.0  0.87317  0.50053  0.03834  1.0000
  C   C2583     1.0  0.94571  0.36530  0.71538  1.0000
  H   H2063     1.0  0.84925  0.40502  0.80935  1.0000
  H   H2064     1.0  0.93035  0.50292  0.22780  1.0000
  C   C2584     1.0  0.98784  0.40516  0.66810  1.0000
  C   C2585     1.0  0.84291  0.44536  0.23350  1.0000
  C   C2586     1.0  0.84635  0.36886  0.56699  1.0000
  H   H2065     1.0  0.97734  0.41517  0.55885  1.0000
  C   C2587     1.0  0.99256  0.41328  0.58586  1.0000
  H   H2066     1.0  0.86506  0.46213  0.84394  1.0000
  C   C2588     1.0  0.96413  0.46242  0.17838  1.0000
  C   C2589     1.0  0.96427  0.47449  0.17970  1.0000
  C   C2590     1.0  0.97456  0.48427  0.15532  1.0000
  C   C2591     1.0  0.98460  0.48204  0.12864  1.0000
  C   C2592     1.0  0.98435  0.47004  0.12536  1.0000
  C   C2593     1.0  0.97419  0.46018  0.15167  1.0000
  H   H2067     1.0  0.89454  0.48946  0.38630  1.0000
  C   C2594     1.0  0.88261  0.47513  0.90833  1.0000
  H   H2068     1.0  0.87214  0.34434  0.16141  1.0000
  C   C2595     1.0  0.87416  0.26984  0.54379  1.0000
  H   H2069     1.0  0.98758  0.49701  0.22129  1.0000
  C   C2596     1.0  0.89328  0.44175  0.14278  1.0000
  C   C2597     1.0  0.88584  0.48737  0.91034  1.0000
  H   H2070     1.0  0.89080  0.49465  0.87926  1.0000
  C   C2598     1.0  0.89413  0.49372  0.35222  1.0000
  C   C2599     1.0  0.88263  0.49020  0.95204  1.0000
  H   H2071     1.0  0.85325  0.48308  0.12995  1.0000
  H   H2072     1.0  0.87308  0.49989  0.29678  1.0000
  H   H2073     1.0  0.86887  0.46102  0.02088  1.0000
  H   H2074     1.0  0.87401  0.45615  0.94663  1.0000
  H   H2075     1.0  0.97852  0.42925  0.01032  1.0000
  H   H2076     1.0  0.95610  0.45485  0.19672  1.0000
  H   H2077     1.0  0.95632  0.47630  0.19881  1.0000
  H   H2078     1.0  0.97466  0.49364  0.15586  1.0000
  H   H2079     1.0  0.99240  0.48969  0.10956  1.0000
  H   H2080     1.0  0.97379  0.45085  0.15012  1.0000
  H   H2081     1.0  0.99084  0.40201  0.69809  1.0000
  C   C2600     1.0  0.85659  0.35499  0.99309  1.0000
  H   H2082     1.0  0.92106  0.51450  0.80592  1.0000
  H   H2083     1.0  0.89586  0.48937  0.04655  1.0000
  C   C2601     1.0  0.97557  0.40465  0.67200  1.0000
  H   H2084     1.0  0.99027  0.48655  0.02961  1.0000
  H   H2085     1.0  0.98986  0.43998  0.12202  1.0000
  C   C2602     1.0  0.84868  0.30726  0.45100  1.0000
  C   C2603     1.0  0.88210  0.28592  0.45546  1.0000
  C   C2604     1.0  0.84907  0.39385  0.98499  1.0000
  C   C2605     1.0  0.84707  0.47329  0.03900  1.0000
  C   C2606     1.0  0.94899  0.41869  0.82600  1.0000
  C   C2607     1.0  0.94094  0.40889  0.86144  1.0000
  H   H2086     1.0  0.95634  0.41706  0.80288  1.0000
  H   H2087     1.0  0.94208  0.39972  0.86523  1.0000
  C   C2608     1.0  0.90400  0.39727  0.60003  1.0000
  C   C2609     1.0  0.91087  0.38920  0.59033  1.0000
  C   C2610     1.0  0.90836  0.38227  0.55992  1.0000
  C   C2611     1.0  0.89923  0.38364  0.53820  1.0000
  C   C2612     1.0  0.89256  0.39202  0.54658  1.0000
  C   C2613     1.0  0.89478  0.39855  0.57870  1.0000
  P   P83       1.0  0.88035  0.39340  0.52033  1.0000
  C   C2614     1.0  0.88381  0.39047  0.46473  1.0000
  C   C2615     1.0  0.86644  0.38233  0.55713  1.0000
  C   C2616     1.0  0.85714  0.37739  0.53852  1.0000
  C   C2617     1.0  0.00064  0.41997  0.99474  1.0000
  H   H2088     1.0  0.00481  0.47692  0.16113  1.0000
  C   C2618     1.0  0.85377  0.37045  0.63317  1.0000
  C   C2619     1.0  0.86463  0.37886  0.60477  1.0000
  C   C2620     1.0  0.88838  0.40028  0.42454  1.0000
  C   C2621     1.0  0.89054  0.39789  0.38170  1.0000
  C   C2622     1.0  0.88826  0.38573  0.37858  1.0000
  C   C2623     1.0  0.88375  0.37593  0.41833  1.0000
  C   C2624     1.0  0.88159  0.37827  0.46123  1.0000
  C   C2625     1.0  0.87842  0.40878  0.51337  1.0000
  C   C2626     1.0  0.88847  0.41910  0.50440  1.0000
  C   C2627     1.0  0.88689  0.43097  0.49890  1.0000
  C   C2628     1.0  0.87534  0.43264  0.50128  1.0000
  C   C2629     1.0  0.86538  0.42246  0.50925  1.0000
  C   C2630     1.0  0.86689  0.41058  0.51536  1.0000
  H   H2089     1.0  0.90550  0.40216  0.62543  1.0000
  H   H2090     1.0  0.91771  0.38786  0.60810  1.0000
  H   H2091     1.0  0.91316  0.37545  0.55448  1.0000
  H   H2092     1.0  0.89720  0.37785  0.51607  1.0000
  H   H2093     1.0  0.88919  0.40439  0.58809  1.0000
  H   H2094     1.0  0.85819  0.38008  0.50199  1.0000
  C   C2631     1.0  0.89645  0.47804  0.11020  1.0000
  C   C2632     1.0  0.84798  0.44244  0.04681  1.0000
  H   H2095     1.0  0.85250  0.36778  0.66985  1.0000
  H   H2096     1.0  0.87157  0.38253  0.62031  1.0000
  H   H2097     1.0  0.88977  0.40976  0.42592  1.0000
  H   H2098     1.0  0.89338  0.40547  0.35093  1.0000
  H   H2099     1.0  0.88953  0.38387  0.34543  1.0000
  H   H2100     1.0  0.88155  0.36651  0.41583  1.0000
  H   H2101     1.0  0.87790  0.37057  0.49169  1.0000
  H   H2102     1.0  0.89751  0.41800  0.50138  1.0000
  C   C2633     1.0  0.84670  0.35099  0.03234  1.0000
  H   H2103     1.0  0.85908  0.40290  0.52010  1.0000
  C   C2634     1.0  0.85333  0.42376  0.87848  1.0000
  C   C2635     1.0  0.98022  0.40650  0.84523  1.0000
  H   H2104     1.0  0.99120  0.42368  0.79697  1.0000
  C   C2636     1.0  0.87124  0.35214  0.13712  1.0000
  Fe  Fe188     1.0  0.86386  0.45361  0.30032  1.0000
  C   C2637     1.0  0.88304  0.43641  0.60861  1.0000
  H   H2105     1.0  0.93156  0.44476  0.18957  1.0000
  H   H2106     1.0  0.84632  0.44699  0.11086  1.0000
  C   C2638     1.0  0.86139  0.47203  0.65631  1.0000
  C   C2639     1.0  0.85924  0.45988  0.65300  1.0000
  C   C2640     1.0  0.84809  0.47916  0.10875  1.0000
  H   H2107     1.0  0.88632  0.31562  0.59636  1.0000
  H   H2108     1.0  0.89969  0.45082  0.12800  1.0000
  C   C2641     1.0  0.91926  0.32307  0.01772  1.0000
  H   H2109     1.0  0.89220  0.44256  0.59662  1.0000
  S   S377      1.0  0.85796  0.44531  0.37670  1.0000
  C   C2642     1.0  0.88977  0.46897  0.15070  1.0000
  C   C2643     1.0  0.92166  0.49404  0.45825  1.0000
  H   H2110     1.0  0.86274  0.45347  0.67381  1.0000
  C   C2644     1.0  0.88941  0.39124  0.24051  1.0000
  C   C2645     1.0  0.89112  0.38441  0.20880  1.0000
  C   C2646     1.0  0.90219  0.38780  0.17534  1.0000
  C   C2647     1.0  0.91156  0.39792  0.17389  1.0000
  C   C2648     1.0  0.90991  0.40476  0.20599  1.0000
  C   C2649     1.0  0.89868  0.40144  0.23891  1.0000
  P   P84       1.0  0.92198  0.41786  0.20435  1.0000
  C   C2650     1.0  0.91939  0.42073  0.26014  1.0000
  C   C2651     1.0  0.93637  0.41425  0.19340  1.0000
  C   C2652     1.0  0.93689  0.40196  0.20558  1.0000
  C   C2653     1.0  0.94808  0.39927  0.19754  1.0000
  C   C2654     1.0  0.95884  0.40881  0.17790  1.0000
  C   C2655     1.0  0.95841  0.42107  0.16686  1.0000
  C   C2656     1.0  0.94724  0.42380  0.17442  1.0000
  C   C2657     1.0  0.91326  0.42943  0.26974  1.0000
  C   C2658     1.0  0.91093  0.43129  0.31336  1.0000
  C   C2659     1.0  0.91465  0.42445  0.34790  1.0000
  C   C2660     1.0  0.92062  0.41564  0.33890  1.0000
  C   C2661     1.0  0.92293  0.41374  0.29529  1.0000
  C   C2662     1.0  0.92277  0.43118  0.15937  1.0000
  C   C2663     1.0  0.91887  0.42956  0.12069  1.0000
  C   C2664     1.0  0.92018  0.43978  0.08460  1.0000
  C   C2665     1.0  0.92542  0.45170  0.08663  1.0000
  C   C2666     1.0  0.92948  0.45340  0.12454  1.0000
  C   C2667     1.0  0.92813  0.44322  0.16091  1.0000
  H   H2111     1.0  0.88090  0.38857  0.26669  1.0000
  H   H2112     1.0  0.88390  0.37643  0.21063  1.0000
  H   H2113     1.0  0.90364  0.38237  0.15125  1.0000
  H   H2114     1.0  0.92015  0.40028  0.14811  1.0000
  H   H2115     1.0  0.89703  0.40660  0.26369  1.0000
  H   H2116     1.0  0.92869  0.39440  0.22106  1.0000
  H   H2117     1.0  0.94837  0.38973  0.20572  1.0000
  H   H2118     1.0  0.96748  0.40667  0.17102  1.0000
  H   H2119     1.0  0.96670  0.42848  0.15205  1.0000
  H   H2120     1.0  0.94716  0.43335  0.16521  1.0000
  H   H2121     1.0  0.91020  0.43476  0.24378  1.0000
  H   H2122     1.0  0.90610  0.43797  0.32037  1.0000
  H   H2123     1.0  0.91265  0.42578  0.38185  1.0000
  H   H2124     1.0  0.92324  0.41011  0.36598  1.0000
  H   H2125     1.0  0.92734  0.40670  0.28934  1.0000
  H   H2126     1.0  0.91513  0.42045  0.11747  1.0000
  H   H2127     1.0  0.91766  0.43843  0.05411  1.0000
  H   H2128     1.0  0.92680  0.45959  0.05800  1.0000
  H   H2129     1.0  0.93407  0.46262  0.12476  1.0000
  Fe  Fe189     1.0  0.96934  0.40366  0.99189  1.0000
  H   H2130     1.0  0.87410  0.44182  0.49622  1.0000
  C   C2668     1.0  0.92340  0.49340  0.41299  1.0000
  C   C2669     1.0  0.87846  0.30962  0.54510  1.0000
  H   H2131     1.0  0.97311  0.37716  0.76159  1.0000
  H   H2132     1.0  0.89460  0.43889  0.49248  1.0000
  C   C2670     1.0  0.85559  0.45690  0.85715  1.0000
  H   H2133     1.0  0.85993  0.43174  0.88032  1.0000
  C   C2671     1.0  0.87735  0.46373  0.15774  1.0000
  C   C2672     1.0  0.97099  0.40133  0.77278  1.0000
  C   C2673     1.0  0.84972  0.45093  0.82972  1.0000
  H   H2134     1.0  0.92561  0.40339  0.92054  1.0000
  C   C2674     1.0  0.89411  0.37991  0.94365  1.0000
  C   C2675     1.0  0.93163  0.41099  0.89234  1.0000
  H   H2135     1.0  0.86443  0.42251  0.81619  1.0000
  H   H2136     1.0  0.89441  0.33186  0.08291  1.0000
  H   H2137     1.0  0.91133  0.41750  0.01232  1.0000
  C   C2676     1.0  0.87831  0.31319  0.42616  1.0000
  C   C2677     1.0  0.87606  0.48074  0.99206  1.0000
  C   C2678     1.0  0.94767  0.43059  0.82086  1.0000
  H   H2138     1.0  0.88812  0.32518  0.45939  1.0000
  H   H2139     1.0  0.95414  0.43812  0.79357  1.0000
  C   C2679     1.0  0.92949  0.33322  0.00616  1.0000
  H   H2140     1.0  0.93880  0.38966  0.77777  1.0000
  H   H2141     1.0  0.94483  0.47253  0.86843  1.0000
  C   C2680     1.0  0.84904  0.45644  0.90122  1.0000
  C   C2681     1.0  0.91859  0.50056  0.38275  1.0000
  C   C2682     1.0  0.86124  0.43353  0.62477  1.0000
  C   C2683     1.0  0.85814  0.31619  0.58591  1.0000
  H   H2142     1.0  0.87093  0.40888  0.19618  1.0000
  C   C2684     1.0  0.85583  0.41858  0.84214  1.0000
  C   C2685     1.0  0.85665  0.48038  0.63098  1.0000
  H   H2143     1.0  0.88870  0.42002  0.62917  1.0000
  H   H2144     1.0  0.86178  0.46379  0.13224  1.0000
  C   C2686     1.0  0.89228  0.50417  0.26504  1.0000
  C   C2687     1.0  0.88107  0.42372  0.62650  1.0000
  H   H2145     1.0  0.86438  0.35187  0.92860  1.0000
  H   H2146     1.0  0.87222  0.39213  0.13039  1.0000
  C   C2688     1.0  0.93038  0.42295  0.88779  1.0000
  C   C2689     1.0  0.86287  0.39209  0.14284  1.0000
  H   H2147     1.0  0.88100  0.40022  0.96843  1.0000
  C   C2690     1.0  0.93842  0.43286  0.85196  1.0000
  C   C2691     1.0  0.95151  0.46775  0.87531  1.0000
  C   C2692     1.0  0.84954  0.47649  0.60299  1.0000
  C   C2693     1.0  0.85436  0.38106  0.17011  1.0000
  C   C2694     1.0  0.97980  0.41252  0.76605  1.0000
  H   H2148     1.0  0.88754  0.37565  0.88743  1.0000
  C   C2695     1.0  0.88456  0.40496  0.99141  1.0000
  H   H2149     1.0  0.90336  0.40711  0.95853  1.0000
  H   H2150     1.0  0.86687  0.40403  0.03117  1.0000
  H   H2151     1.0  0.89489  0.38965  0.93202  1.0000
  H   H2152     1.0  0.90117  0.34015  0.38761  1.0000
  C   C2696     1.0  0.98021  0.51232  0.23007  1.0000
  H   H2153     1.0  0.91989  0.31384  0.03133  1.0000
  C   C2697     1.0  0.89710  0.40879  0.98590  1.0000
  C   C2698     1.0  0.87656  0.40730  0.02655  1.0000
  C   C2699     1.0  0.85942  0.40306  0.13353  1.0000
  H   H2154     1.0  0.98332  0.45119  0.96786  1.0000
  H   H2155     1.0  0.90062  0.38133  0.00289  1.0000
  H   H2156     1.0  0.92334  0.42441  0.91279  1.0000
  H   H2157     1.0  0.96378  0.42366  0.68710  1.0000
  H   H2158     1.0  0.84439  0.38439  0.72032  1.0000
  C   C2700     1.0  0.89004  0.37204  0.91826  1.0000
  C   C2701     1.0  0.90161  0.41476  0.01601  1.0000
  C   C2702     1.0  0.88103  0.41385  0.05551  1.0000
  H   H2159     1.0  0.92676  0.44149  0.94581  1.0000
  C   C2703     1.0  0.89738  0.37523  0.98326  1.0000
  H   H2160     1.0  0.94882  0.34744  0.73474  1.0000
  C   C2704     1.0  0.89363  0.41727  0.05073  1.0000
  C   C2705     1.0  0.87712  0.41807  0.18072  1.0000
  H   H2161     1.0  0.88183  0.41917  0.24341  1.0000
  H   H2162     1.0  0.00237  0.50455  0.96482  1.0000
  H   H2163     1.0  0.91040  0.45354  0.38429  1.0000
  H   H2164     1.0  0.90622  0.34432  0.89270  1.0000
  P   P85       1.0  0.87055  0.41731  0.09938  1.0000
  H   H2165     1.0  0.84988  0.27811  0.49758  1.0000
  C   C2706     1.0  0.88339  0.42383  0.20761  1.0000
  H   H2166     1.0  0.89738  0.42175  0.07382  1.0000
  H   H2167     1.0  0.90556  0.47354  0.37677  1.0000
  C   C2707     1.0  0.88046  0.36327  0.12221  1.0000
  H   H2168     1.0  0.90213  0.33628  0.82838  1.0000
  C   C2708     1.0  0.89829  0.33663  0.89892  1.0000
  C   C2709     1.0  0.92228  0.48398  0.32511  1.0000
  C   C2710     1.0  0.98214  0.43642  0.02533  1.0000
  C   C2711     1.0  0.87873  0.42427  0.13482  1.0000
  H   H2169     1.0  0.87476  0.49075  0.37408  1.0000
  C   C2712     1.0  0.89603  0.33207  0.86242  1.0000
  C   C2713     1.0  0.88956  0.35954  0.93157  1.0000
  S   S378      1.0  0.95497  0.50416  0.87575  1.0000
  H   H2170     1.0  0.85059  0.43087  0.25925  1.0000
  H   H2171     1.0  0.86435  0.42392  0.01060  1.0000
  C   C2714     1.0  0.91668  0.46180  0.35990  1.0000
  C   C2715     1.0  0.91399  0.47316  0.35561  1.0000
  C   C2716     1.0  0.87613  0.32431  0.12495  1.0000
  H   H2172     1.0  0.87222  0.45650  0.18874  1.0000
  H   H2173     1.0  0.94388  0.47108  0.27996  1.0000
  C   C2717     1.0  0.84468  0.36537  0.61430  1.0000
  C   C2718     1.0  0.98030  0.41251  0.58940  1.0000
  C   C2719     1.0  0.86275  0.42804  0.07625  1.0000
  C   C2720     1.0  0.86064  0.42893  0.03289  1.0000
  C   C2721     1.0  0.87725  0.31143  0.38363  1.0000
  H   H2174     1.0  0.95257  0.49791  0.79258  1.0000
  C   C2722     1.0  0.88572  0.32233  0.86951  1.0000
  C   C2723     1.0  0.92097  0.44573  0.92900  1.0000
  H   H2175     1.0  0.90805  0.44379  0.99229  1.0000
  C   C2724     1.0  0.89670  0.36266  0.99715  1.0000
  C   C2725     1.0  0.87351  0.46842  0.99012  1.0000
  C   C2726     1.0  0.88479  0.31992  0.34299  1.0000
  C   C2727     1.0  0.88678  0.43620  0.11618  1.0000
  C   C2728     1.0  0.92739  0.46103  0.33236  1.0000
  H   H2176     1.0  0.92923  0.45216  0.33463  1.0000
  C   C2729     1.0  0.98400  0.43330  0.06873  1.0000
  H   H2177     1.0  0.88650  0.35372  0.91081  1.0000
  S   S379      1.0  0.99006  0.41324  0.96641  1.0000
  H   H2178     1.0  0.88374  0.31904  0.84093  1.0000
  P   P86       1.0  0.93828  0.44868  0.84809  1.0000
  C   C2730     1.0  0.89311  0.35478  0.97070  1.0000
  C   C2731     1.0  0.84646  0.28553  0.48259  1.0000
  C   C2732     1.0  0.85933  0.42073  0.64115  1.0000
  H   H2179     1.0  0.88846  0.36400  0.13484  1.0000
  C   C2733     1.0  0.85231  0.45595  0.62434  1.0000
  C   C2734     1.0  0.85776  0.43487  0.10380  1.0000
  H   H2180     1.0  0.85378  0.37742  0.97801  1.0000
  C   C2735     1.0  0.95897  0.44966  0.88089  1.0000
  C   C2736     1.0  0.86923  0.41585  0.64184  1.0000
  H   H2181     1.0  0.87486  0.45111  0.59327  1.0000
  H   H2182     1.0  0.85366  0.34246  0.13381  1.0000
  H   H2183     1.0  0.89617  0.44027  0.20945  1.0000
  C   C2737     1.0  0.86380  0.32151  0.12646  1.0000
  C   C2738     1.0  0.91530  0.50195  0.47348  1.0000
  C   C2739     1.0  0.94071  0.39921  0.75869  1.0000
  H   H2184     1.0  0.89926  0.35913  0.02789  1.0000
  C   C2740     1.0  0.91033  0.44697  0.95540  1.0000
  H   H2185     1.0  0.95316  0.47324  0.78596  1.0000
  C   C2741     1.0  0.87781  0.31698  0.91329  1.0000
  C   C2742     1.0  0.89012  0.33164  0.94269  1.0000
  H   H2186     1.0  0.89907  0.33692  0.31278  1.0000
  H   H2187     1.0  0.95585  0.48777  0.33335  1.0000
  C   C2743     1.0  0.93319  0.48314  0.29834  1.0000
  C   C2744     1.0  0.93562  0.47170  0.30148  1.0000
  H   H2188     1.0  0.96229  0.40728  0.63436  1.0000
  H   H2189     1.0  0.86613  0.33192  0.01333  1.0000
  C   C2745     1.0  0.94830  0.46803  0.76711  1.0000
  C   C2746     1.0  0.95181  0.35713  0.73340  1.0000
  C   C2747     1.0  0.91261  0.50885  0.39792  1.0000
  H   H2190     1.0  0.96636  0.35510  0.76421  1.0000
  H   H2191     1.0  0.84860  0.33251  0.94118  1.0000
  C   C2748     1.0  0.89456  0.33206  0.38654  1.0000
  C   C2749     1.0  0.84404  0.32353  0.86335  1.0000
  C   C2750     1.0  0.86864  0.50744  0.00636  1.0000
  C   C2751     1.0  0.87144  0.46795  0.12538  1.0000
  P   P87       1.0  0.99714  0.46721  0.08926  1.0000
  C   C2752     1.0  0.94050  0.45607  0.78837  1.0000
  C   C2753     1.0  0.92412  0.44986  0.88115  1.0000
  C   C2754     1.0  0.94976  0.47352  0.72083  1.0000
  H   H2192     1.0  0.95560  0.48284  0.70485  1.0000
  C   C2755     1.0  0.97181  0.40812  0.63228  1.0000
  H   H2193     1.0  0.85126  0.47278  0.00523  1.0000
  C   C2756     1.0  0.95048  0.45586  0.86947  1.0000
  C   C2757     1.0  0.97180  0.49115  0.27811  1.0000
  H   H2194     1.0  0.86772  0.40599  0.65555  1.0000
  C   C2758     1.0  0.87798  0.47750  0.08558  1.0000
  C   C2759     1.0  0.88285  0.49446  0.34552  1.0000
  P   P88       1.0  0.87040  0.48409  0.04544  1.0000
  C   C2760     1.0  0.92869  0.34510  0.98817  1.0000
  H   H2195     1.0  0.96784  0.38897  0.88606  1.0000
  H   H2196     1.0  0.93793  0.36192  0.70312  1.0000
  H   H2197     1.0  0.92864  0.49512  0.92163  1.0000
  C   C2761     1.0  0.89061  0.48221  0.07751  1.0000
  C   C2762     1.0  0.85405  0.47808  0.06622  1.0000
  C   C2763     1.0  0.95903  0.38213  0.73230  1.0000
  H   H2198     1.0  0.85539  0.45391  0.52886  1.0000
  C   C2764     1.0  0.99145  0.45510  0.06402  1.0000
  C   C2765     1.0  0.88711  0.32353  0.42729  1.0000
  C   C2766     1.0  0.86839  0.30836  0.52675  1.0000
  H   H2199     1.0  0.87888  0.32254  0.15646  1.0000
  H   H2200     1.0  0.96187  0.48263  0.89530  1.0000
  C   C2767     1.0  0.96259  0.49459  0.30443  1.0000
  H   H2201     1.0  0.88381  0.31866  0.31021  1.0000
  C   C2768     1.0  0.85344  0.29791  0.47050  1.0000
  C   C2769     1.0  0.89340  0.33027  0.34442  1.0000
  H   H2202     1.0  0.88181  0.50117  0.09355  1.0000
  C   C2770     1.0  0.85324  0.43610  0.01836  1.0000
  C   C2771     1.0  0.86824  0.31755  0.60355  1.0000
  H   H2203     1.0  0.86377  0.28216  0.56125  1.0000
  C   C2772     1.0  0.86903  0.32968  0.04415  1.0000
  C   C2773     1.0  0.90573  0.45656  0.88653  1.0000
  C   C2774     1.0  0.90271  0.45240  0.93416  1.0000
  C   C2775     1.0  0.86077  0.35114  0.12162  1.0000
  C   C2776     1.0  0.88005  0.32149  0.94997  1.0000
  H   H2204     1.0  0.85065  0.32229  0.08742  1.0000
  P   P89       1.0  0.91946  0.49878  0.32571  1.0000
  H   H2205     1.0  0.86975  0.30950  0.91835  1.0000
  H   H2206     1.0  0.89454  0.45348  0.95462  1.0000
  H   H2207     1.0  0.91144  0.50742  0.24252  1.0000
  H   H2208     1.0  0.95816  0.44026  0.87928  1.0000
  C   C2777     1.0  0.91639  0.45534  0.85999  1.0000
  H   H2209     1.0  0.98298  0.41935  0.73315  1.0000
  C   C2778     1.0  0.87842  0.31431  0.58306  1.0000
  C   C2779     1.0  0.87882  0.50635  0.06686  1.0000
  P   P90       1.0  0.89281  0.33869  0.98766  1.0000
  H   H2210     1.0  0.91858  0.45889  0.82320  1.0000
  C   C2780     1.0  0.94354  0.46709  0.69545  1.0000
  H   H2211     1.0  0.89992  0.46093  0.86999  1.0000
  C   C2781     1.0  0.96533  0.37393  0.74922  1.0000
  C   C2782     1.0  0.87653  0.46564  0.94828  1.0000
  C   C2783     1.0  0.91766  0.34691  0.98197  1.0000
  C   C2784     1.0  0.85043  0.44204  0.08900  1.0000
  C   C2785     1.0  0.93423  0.44972  0.76268  1.0000
  P   P91       1.0  0.86855  0.30200  0.47827  1.0000
  H   H2212     1.0  0.84266  0.30928  0.92337  1.0000
  H   H2213     1.0  0.97694  0.47178  0.91355  1.0000
  H   H2214     1.0  0.86797  0.38045  0.05274  1.0000
  C   C2786     1.0  0.86024  0.32429  0.08612  1.0000
  S   S380      1.0  0.84332  0.34758  0.35771  1.0000
  C   C2787     1.0  0.85706  0.34850  0.95987  1.0000
  H   H2215     1.0  0.88487  0.47304  0.87571  1.0000
  C   C2788     1.0  0.85933  0.36139  0.09184  1.0000
  H   H2216     1.0  0.86395  0.36314  0.98798  1.0000
  P   P92       1.0  0.84847  0.43985  0.62505  1.0000
  H   H2217     1.0  0.88533  0.29201  0.42110  1.0000
  H   H2218     1.0  0.00795  0.51242  0.04310  1.0000
  H   H2219     1.0  0.88641  0.30711  0.52969  1.0000
  H   H2220     1.0  0.88808  0.44116  0.08094  1.0000
  C   C2789     1.0  0.86876  0.37248  0.07620  1.0000
  H   H2221     1.0  0.85902  0.43421  0.13775  1.0000
  H   H2222     1.0  0.87050  0.30356  0.38181  1.0000
  H   H2223     1.0  0.85653  0.42377  0.50938  1.0000
  H   H2224     1.0  0.87386  0.31705  0.98347  1.0000
  H   H2225     1.0  0.98188  0.42366  0.08716  1.0000
  H   H2226     1.0  0.99912  0.41660  0.55258  1.0000
  C   C2790     1.0  0.88144  0.33199  0.04204  1.0000
  C   C2791     1.0  0.99631  0.40956  0.62517  1.0000
  H   H2227     1.0  0.90614  0.48193  0.10451  1.0000
  H   H2228     1.0  0.97494  0.45050  0.90512  1.0000
  C   C2792     1.0  0.98860  0.44259  0.08814  1.0000
  C   C2793     1.0  0.87399  0.28848  0.48992  1.0000
  C   C2794     1.0  0.84442  0.43345  0.23995  1.0000
  H   H2229     1.0  0.99120  0.46757  0.00124  1.0000
  C   C2795     1.0  0.87316  0.44128  0.60726  1.0000
  C   C2796     1.0  0.96855  0.45543  0.89609  1.0000
  H   H2230     1.0  0.85346  0.46144  0.92173  1.0000
  C   C2797     1.0  0.85823  0.31173  0.54741  1.0000
  C   C2798     1.0  0.98492  0.44879  0.00118  1.0000
  H   H2231     1.0  0.98372  0.40848  0.87340  1.0000
  H   H2232     1.0  0.91737  0.35618  0.96717  1.0000
  C   C2799     1.0  0.96115  0.47351  0.89045  1.0000
  C   C2800     1.0  0.93582  0.45516  0.71636  1.0000
  C   C2801     1.0  0.84832  0.44555  0.53357  1.0000
  H   H2233     1.0  0.94448  0.47142  0.65985  1.0000
  C   C2802     1.0  0.90727  0.33680  0.99456  1.0000
  H   H2234     1.0  0.92792  0.44061  0.77868  1.0000
  C   C2803     1.0  0.93379  0.41748  0.73988  1.0000
  C   C2804     1.0  0.90820  0.32484  0.01172  1.0000
  H   H2235     1.0  0.90033  0.31690  0.02070  1.0000
  C   C2805     1.0  0.87927  0.37341  0.09146  1.0000
  Fe  Fe190     1.0  0.95196  0.50867  0.04127  1.0000
  C   C2806     1.0  0.88493  0.32959  0.08299  1.0000
  C   C2807     1.0  0.89147  0.43567  0.18860  1.0000
  C   C2808     1.0  0.87005  0.28036  0.53417  1.0000
  H   H2236     1.0  0.93807  0.33188  0.01089  1.0000
  H   H2237     1.0  0.99298  0.40627  0.05963  1.0000
  H   H2238     1.0  0.85702  0.31741  0.15904  1.0000
  C   C2809     1.0  0.96968  0.46739  0.90071  1.0000
  H   H2239     1.0  0.93667  0.35295  0.97883  1.0000
  H   H2240     1.0  0.88642  0.38205  0.08000  1.0000
  H   H2241     1.0  0.86379  0.50301  0.98539  1.0000
  C   C2810     1.0  0.95474  0.41831  0.70776  1.0000
  C   C2811     1.0  0.96163  0.36145  0.75026  1.0000
  C   C2812     1.0  0.93143  0.40504  0.76308  1.0000
  H   H2242     1.0  0.94724  0.43381  0.69492  1.0000
  H   H2243     1.0  0.84937  0.42992  0.71887  1.0000
  C   C2813     1.0  0.98443  0.41505  0.80213  1.0000
  C   C2814     1.0  0.84711  0.40866  0.83829  1.0000
  H   H2244     1.0  0.92242  0.39994  0.78487  1.0000
  H   H2245     1.0  0.84569  0.48291  0.58394  1.0000
  C   C2815     1.0  0.97128  0.39549  0.85236  1.0000
  P   P93       1.0  0.96451  0.39842  0.72693  1.0000
  C   C2816     1.0  0.95238  0.40574  0.73036  1.0000
  H   H2246     1.0  0.89423  0.46583  0.17644  1.0000
  H   H2247     1.0  0.94451  0.38391  0.70012  1.0000
  H   H2248     1.0  0.85717  0.37272  0.17872  1.0000
  H   H2249     1.0  0.85516  0.40533  0.26773  1.0000
  S   S381      1.0  0.85099  0.45677  0.25550  1.0000
  C   C2817     1.0  0.84464  0.37556  0.04864  1.0000
  H   H2250     1.0  0.97217  0.48164  0.28642  1.0000
  C   C2818     1.0  0.98949  0.45810  0.02039  1.0000
  C   C2819     1.0  0.88223  0.26735  0.50933  1.0000
  C   C2820     1.0  0.00007  0.48851  0.01978  1.0000
  H   H2251     1.0  0.85021  0.41456  0.65405  1.0000
  H   H2252     1.0  0.84443  0.41117  0.14663  1.0000
  C   C2821     1.0  0.90471  0.49854  0.31554  1.0000
  C   C2822     1.0  0.84720  0.46427  0.60024  1.0000
  H   H2253     1.0  0.84810  0.45023  0.46308  1.0000
  C   C2823     1.0  0.90363  0.50371  0.27177  1.0000
  H   H2254     1.0  0.85127  0.43652  0.98557  1.0000
  H   H2255     1.0  0.89152  0.50800  0.23109  1.0000
  H   H2256     1.0  0.84244  0.33731  0.80790  1.0000
  H   H2257     1.0  0.92814  0.48701  0.40238  1.0000
  H   H2258     1.0  0.89246  0.27346  0.43850  1.0000
  C   C2824     1.0  0.84213  0.41893  0.91136  1.0000
  C   C2825     1.0  0.84812  0.33753  0.96691  1.0000
  C   C2826     1.0  0.00680  0.46311  0.12479  1.0000
  Fe  Fe191     1.0  0.84405  0.33474  0.31221  1.0000
  C   C2827     1.0  0.84243  0.38099  0.18941  1.0000
  H   H2259     1.0  0.90889  0.51452  0.37520  1.0000
  H   H2260     1.0  0.91360  0.50205  0.50908  1.0000
  C   C2828     1.0  0.96202  0.50681  0.29326  1.0000
  H   H2261     1.0  0.84273  0.40898  0.00150  1.0000
  H   H2262     1.0  0.85037  0.31899  0.60122  1.0000
  P   P94       1.0  0.84564  0.36015  0.07295  1.0000
  C   C2829     1.0  0.93113  0.51145  0.28323  1.0000
  C   C2830     1.0  0.84429  0.44340  0.49599  1.0000
  H   H2263     1.0  0.92735  0.50792  0.99348  1.0000
  S   S382      1.0  0.93696  0.51117  0.09447  1.0000
  H   H2264     1.0  0.84192  0.44762  0.03634  1.0000
  C   C2831     1.0  0.84339  0.39974  0.01439  1.0000
  C   C2832     1.0  0.00689  0.49866  0.98280  1.0000
  H   H2265     1.0  0.00578  0.40995  0.62234  1.0000
  C   C2833     1.0  0.91091  0.50946  0.44321  1.0000
  H   H2266     1.0  0.95483  0.50945  0.31350  1.0000
  C   C2834     1.0  0.00588  0.48083  0.04321  1.0000
  C   C2835     1.0  0.93451  0.51095  0.23771  1.0000
  C   C2836     1.0  0.00816  0.51196  0.07802  1.0000
  H   H2267     1.0  0.97169  0.51534  0.14366  1.0000
  H   H2268     1.0  0.84161  0.38428  0.80115  1.0000
  H   H2269     1.0  0.00819  0.39071  0.00478  1.0000
  C   C2837     1.0  0.93745  0.56056  0.84063  1.0000
  S   S383      1.0  0.99921  0.52833  0.97289  1.0000
  C   C2838     1.0  0.97146  0.54442  0.09275  1.0000
  P   P95       1.0  0.99154  0.52396  0.18284  1.0000
  S   S384      1.0  0.96256  0.52217  0.97274  1.0000
  C   C2839     1.0  0.92625  0.52529  0.00665  1.0000
  C   C2840     1.0  0.97053  0.55146  0.88685  1.0000
  C   C2841     1.0  0.87025  0.52009  0.00147  1.0000
  C   C2842     1.0  0.95012  0.53021  0.74502  1.0000
  H   H2270     1.0  0.99539  0.54393  0.03564  1.0000
  H   H2271     1.0  0.96143  0.52630  0.09335  1.0000
  H   H2272     1.0  0.92103  0.52108  0.04199  1.0000
  C   C2843     1.0  0.94892  0.55841  0.83609  1.0000
  C   C2844     1.0  0.98264  0.53526  0.85573  1.0000
  C   C2845     1.0  0.94868  0.53132  0.21612  1.0000
  H   H2273     1.0  0.99056  0.53004  0.27157  1.0000
  H   H2274     1.0  0.92735  0.54388  0.01068  1.0000
  C   C2846     1.0  0.98349  0.53207  0.14872  1.0000
  C   C2847     1.0  0.96833  0.53152  0.10572  1.0000
  H   H2275     1.0  0.95536  0.53901  0.19008  1.0000
  H   H2276     1.0  0.92926  0.55310  0.85842  1.0000
  C   C2848     1.0  0.99888  0.53581  0.24675  1.0000
  C   C2849     1.0  0.94545  0.53191  0.26135  1.0000
  C   C2850     1.0  0.96515  0.54350  0.86363  1.0000
  H   H2277     1.0  0.96645  0.58730  0.77310  1.0000
  H   H2278     1.0  0.99359  0.55052  0.14654  1.0000
  C   C2851     1.0  0.93683  0.52327  0.93414  1.0000
  C   C2852     1.0  0.94318  0.52084  0.20437  1.0000
  C   C2853     1.0  0.97129  0.53538  0.84827  1.0000
  C   C2854     1.0  0.93014  0.52069  0.79761  1.0000
  C   C2855     1.0  0.93667  0.52204  0.29481  1.0000
  H   H2279     1.0  0.96828  0.56652  0.80515  1.0000
  H   H2280     1.0  0.98715  0.52871  0.84491  1.0000
  H   H2281     1.0  0.87733  0.53566  0.02548  1.0000
  C   C2856     1.0  0.95936  0.56807  0.81087  1.0000
  H   H2282     1.0  0.88479  0.52345  0.08391  1.0000
  H   H2283     1.0  0.98301  0.56119  0.09755  1.0000
  C   C2857     1.0  0.94029  0.53615  0.91579  1.0000
  H   H2284     1.0  0.98599  0.55738  0.91252  1.0000
  H   H2285     1.0  0.00447  0.54551  0.29440  1.0000
  C   C2858     1.0  0.00093  0.51686  0.14909  1.0000
  C   C2859     1.0  0.00490  0.54427  0.02721  1.0000
  C   C2860     1.0  0.00676  0.54458  0.25992  1.0000
  C   C2861     1.0  0.95363  0.53645  0.77618  1.0000
  H   H2286     1.0  0.93989  0.55355  0.93117  1.0000
  H   H2287     1.0  0.92705  0.52552  0.86088  1.0000
  H   H2288     1.0  0.94963  0.54009  0.27039  1.0000
  C   C2862     1.0  0.93365  0.52684  0.82897  1.0000
  C   C2863     1.0  0.93691  0.54357  0.94379  1.0000
  H   H2289     1.0  0.99665  0.54297  0.88518  1.0000
  H   H2290     1.0  0.95649  0.53147  0.71254  1.0000
  C   C2864     1.0  0.98192  0.55138  0.89399  1.0000
  H   H2291     1.0  0.93568  0.51728  0.73213  1.0000
  H   H2292     1.0  0.96581  0.55755  0.90021  1.0000
  C   C2865     1.0  0.00041  0.51694  0.10435  1.0000
  H   H2293     1.0  0.93422  0.52277  0.32946  1.0000
  C   C2866     1.0  0.94553  0.53456  0.81892  1.0000
  H   H2294     1.0  0.96722  0.52885  0.83172  1.0000
  H   H2295     1.0  0.93979  0.51743  0.91376  1.0000
  H   H2296     1.0  0.99429  0.52104  0.08888  1.0000
  H   H2297     1.0  0.96269  0.54269  0.76704  1.0000
  C   C2867     1.0  0.98796  0.54326  0.87853  1.0000
  P   P96       1.0  0.94998  0.54302  0.85826  1.0000
  C   C2868     1.0  0.98646  0.54504  0.13603  1.0000
  C   C2869     1.0  0.98045  0.55118  0.10818  1.0000
  C   C2870     1.0  0.95836  0.57985  0.79229  1.0000
  C   C2871     1.0  0.88042  0.51901  0.06185  1.0000
  H   H2298     1.0  0.92759  0.57398  0.82574  1.0000
  H   H2299     1.0  0.94616  0.59113  0.78338  1.0000
  C   C2872     1.0  0.94692  0.58201  0.79799  1.0000
  C   C2873     1.0  0.93647  0.57235  0.82197  1.0000
  C   C2874     1.0  0.92984  0.53814  0.98898  1.0000
  H   H2300     1.0  0.96700  0.54917  0.07028  1.0000
  H   H2301     1.0  0.94544  0.52038  0.16926  1.0000
  C   C2875     1.0  0.97418  0.52535  0.13416  1.0000
  C   C2876     1.0  0.93839  0.52228  0.75585  1.0000
  Fe  Fe192     1.0  0.97907  0.51691  0.98907  1.0000
  H   H2302     1.0  0.86675  0.52535  0.97662  1.0000
  C   C2877     1.0  0.87618  0.52588  0.02905  1.0000
  C   C2878     1.0  0.00178  0.53468  0.20192  1.0000
  H   H2303     1.0  0.97017  0.52507  0.24772  1.0000
  C   C2879     1.0  0.92979  0.51786  0.97929  1.0000
  H   H2304     1.0  0.90589  0.51551  0.45526  1.0000
  C   C2880     1.0  0.97074  0.51563  0.25607  1.0000
