data_image0
_chemical_formula_structural       CFeCHFeS2CFeSHSCSFeSHFeSFeSH2C2H2C2HCH2C2HC6HCH3SCH2C5H6C13H4C2SH2PH2SH4CHCHCHPH2PCH3C2HC2HC13SCS2C2H4CH3CH4CHCHSHCHCHCHCHC3HCH3C5H2CHCPC6SCSC7HCH4CH2CH2C5H2C2SHFeSHFeSFeHCH2SFeS2HFeSCSFeSH2SFeSFeCHFeSCHSHFeSCSHC7H2CHC2HC3H4C6H4CSC4H2FeC4HCHFeCHC2H5SC4PHC3HC2H2CSC4H2C2HCH4SCHC3SCSH5CH2S2C2FeHCHC3H3FeHC6PC12HC2H11C3H2C3HSCHCH4FeS2HSFeCFeSCS3FeS2CSFeSFeS2C10H2CHC6H4C6H2CHCH3CH3C3H3C2SC4HPHCHC2HC6H3CH5C3H7CH2C3H2CHCH2SC2HCHC2H2C3PHCH2CSCH3C5H2C8H4CH3C4HC3H2CHPHSHC4H2C3HCHC5HFeHCH2CHCHPC3H2C2HSPC2H2CH2CH2CHC3HCHC2H3CPHC2HCH3CHCHC2SH4C4H2CHC2HC6H2SHCFeSFeSHS3FeS2FeS2FeSHSHCHCHC4HCH2C6H4C3HC7H4C2FeC3H3CSC4H2C2HCH4CSPHFeC2H2C3HCHC7HC3H3SH3C2HCHC4H3PC2HCH2C2HC6PCH3CH2C7HCH4CHCHC2H7CH2C2H3CH2C4SC2H3C2HC4H3CHCHC2SFeSCFeSFeSFeS3CSCFeS2FeS2FeSFeS3CHC7H4C6H4C4HC6H4C2HCH3C4HC3HC2HCH3C2HSCH2C3PHC2H4SC2H2C2HC3PC13HC5HC2H8CHCH2CH2C4HC4HC2HC4HCHC3H2C2HCHC5HCHCHPC9H2C7H2C3H2C2H4CHC6PC3H2FeC8H2C2PCH3C2H9CHCHCSCHCH2CHCHC3H3C2HCH2PCH4CHC2H2CH2CH2CHC3HC4FeH2C4H2CHCSHC4HCHCHCH8C2H4CHCH6C2H2C3HCHCHC2H2C2HPH3C2HC7H4CPCH4CH10S2FeS2FeS2FeSFeS4CFeSFeSCFeSFeS2C4HSHC5H4C4HC6H4CFeHC2HC6H4C6H5C6PC4HC3H2C3HC2H6CHC3HCHCPHCHC6PHC9HC2HC2H2C2HC3H3CHCH3CHC6H3CH7C5HC11H2C2H8CH2C3HCHCHCHCH2CH2CH2C8H2CHFeHCH2C3H2C3HPHCHC2H3CHCHCHC3H2CH3CPH5C12H2C4H4C4PC2H2SHPHCH2C2HCHCH3C2HCHCHC2H2CH2C2H2C4H3C2H2CHCHCHCH2C3HCHC2HC2HC3HC3HCH2CH2C2HC2SFeS2FeS2Fe2S3HSFeS2FeSFe2S2C2HCH3CSC3H2C6H4C3H5C8HCH2SC2HCHCHSHC4H3CH2C5H3CHC7PC3FeCSCH3CHC2HCH2C2HC2HC2H2C2H2CHC5H2C2HC2HC2H3C2HCH4PCH2CFeHC2HCHPHCH2CH3CHCHCHC2H3CH2C4H3C4PC2HCH3C4SH5C3H2CHC4HCH2CHCHCH3C4H2C4HC3HCH5FeS2FeS2FeSFeCS2C2FeS2FeCFeH2S2C17H4C6H5C6H3CHCH2CPCHCH3C4H2C4H5C6PC8H2C8H2PCH2CH3C4H5C3HC2SCHCHCH2CPHC3H2CHCH3C2H3CHCHCHCPH3CH2C7SHC3H2C2H2CHCHCHC2H2CFeCH3CHC2HC2H2CSHC2SH3C3HCHSCHCHC2HCH3C2H3CH3CH2CH4FeS2FeS2FeHS2H2FeS2FeSFeCS2FeS2FeSHFe2S3FeS2FeSFe2S2HCHC6H6C7H7C8H8C4HCH2C2H2C3H3C2H4C5H2C4H2C2H3C4PC3H2C3HC7H4FeCH2CH2CH2C2PHC2H4CHCHCHCHC3HC7H4CSH2CH2C2H3C2H7CH2C4H3CH6C3HC3HC3PC4H2C2H3C7HC3H2C3HC2HSHC2H2C2HPC2HSHC4HCSHCH3CHC2H3C2H5CH2SFeS2FeSFeSFeS3FeS2FeS2FeSFeS4C6H4C2HC3H2C7H4C9H2C3PC3H2C4H3C7H2PCH5CH6C6H2C4H2CH3C4H2CH2CHC6PC18H20C3HC2HC3H3C2HCHCH5C2H3C2HCP2HC2HCH4C2H2CHCHCHCHCHC2HCHC9H2CH3CH2C4HC2HCH2CH2CH3C3FeH2C5HCH4C
_chemical_formula_sum              "C1440 Fe96 H1152 S192 P48"
_cell_length_a       54.5383
_cell_length_b       54.6
_cell_length_c       49.4808
_cell_angle_alpha    90.1053
_cell_angle_beta     90.0755
_cell_angle_gamma    119.887

_space_group_name_H-M_alt    "P 1"
_space_group_IT_number       1

loop_
  _space_group_symop_operation_xyz
  'x, y, z'

loop_
  _atom_site_type_symbol
  _atom_site_label
  _atom_site_symmetry_multiplicity
  _atom_site_fract_x
  _atom_site_fract_y
  _atom_site_fract_z
  _atom_site_occupancy
  C   C1        1.0  0.40398  0.21227  0.27435  1.0000
  Fe  Fe1       1.0  0.45632  0.10819  0.15661  1.0000
  C   C2        1.0  0.46638  0.22252  0.10198  1.0000
  H   H1        1.0  0.18718  0.33929  0.99183  1.0000
  Fe  Fe2       1.0  0.43552  0.07954  0.09924  1.0000
  S   S1        1.0  0.45875  0.12113  0.07768  1.0000
  S   S2        1.0  0.41328  0.03693  0.07572  1.0000
  C   C3        1.0  0.45139  0.47270  0.08850  1.0000
  Fe  Fe3       1.0  0.44371  0.13898  0.11102  1.0000
  S   S3        1.0  0.42295  0.16658  0.10826  1.0000
  H   H2        1.0  0.00496  0.29665  0.12358  1.0000
  S   S4        1.0  0.41752  0.09651  0.13111  1.0000
  C   C4        1.0  0.99058  0.45639  0.18773  1.0000
  S   S5        1.0  0.43711  0.38821  0.11004  1.0000
  Fe  Fe4       1.0  0.45403  0.32892  0.09449  1.0000
  S   S6        1.0  0.40938  0.32167  0.09526  1.0000
  H   H3        1.0  0.15491  0.36300  0.00951  1.0000
  Fe  Fe5       1.0  0.42673  0.36281  0.07148  1.0000
  S   S7        1.0  0.40308  0.37587  0.04038  1.0000
  Fe  Fe6       1.0  0.42374  0.34838  0.13337  1.0000
  S   S8        1.0  0.39827  0.34063  0.17231  1.0000
  H   H4        1.0  0.39155  0.08449  0.99709  1.0000
  H   H5        1.0  0.42955  0.44453  0.15887  1.0000
  C   C5        1.0  0.32697  0.42934  0.98906  1.0000
  C   C6        1.0  0.41234  0.04587  0.01972  1.0000
  H   H6        1.0  0.40482  0.04260  0.26881  1.0000
  H   H7        1.0  0.43621  0.25173  0.15588  1.0000
  C   C7        1.0  0.03549  0.40241  0.00692  1.0000
  C   C8        1.0  0.00769  0.38100  0.01311  1.0000
  H   H8        1.0  0.41822  0.21410  0.20614  1.0000
  C   C9        1.0  0.09470  0.29924  0.00489  1.0000
  H   H9        1.0  0.04785  0.41776  0.02231  1.0000
  H   H10       1.0  0.29081  0.39988  0.01220  1.0000
  C   C10       1.0  0.47204  0.01782  0.03160  1.0000
  C   C11       1.0  0.39931  0.27884  0.20456  1.0000
  H   H11       1.0  0.45427  0.18608  0.25054  1.0000
  C   C12       1.0  0.41305  0.34468  0.20526  1.0000
  C   C13       1.0  0.44059  0.34976  0.20915  1.0000
  C   C14       1.0  0.45123  0.35157  0.23547  1.0000
  C   C15       1.0  0.43459  0.34805  0.25836  1.0000
  C   C16       1.0  0.40710  0.34326  0.25460  1.0000
  C   C17       1.0  0.39643  0.34163  0.22817  1.0000
  H   H12       1.0  0.45366  0.35204  0.19188  1.0000
  C   C18       1.0  0.41899  0.12963  0.99999  1.0000
  H   H13       1.0  0.39398  0.34054  0.27199  1.0000
  H   H14       1.0  0.37505  0.33759  0.22545  1.0000
  H   H15       1.0  0.01261  0.46199  0.18885  1.0000
  S   S9        1.0  0.47208  0.08761  0.12694  1.0000
  C   C19       1.0  0.40252  0.38567  0.00568  1.0000
  H   H16       1.0  0.39809  0.20175  0.25497  1.0000
  H   H17       1.0  0.36848  0.39432  0.01247  1.0000
  C   C20       1.0  0.43098  0.44967  0.07377  1.0000
  C   C21       1.0  0.43730  0.20371  0.10407  1.0000
  C   C22       1.0  0.41867  0.21451  0.10232  1.0000
  C   C23       1.0  0.42886  0.24363  0.09831  1.0000
  C   C24       1.0  0.45791  0.26240  0.09600  1.0000
  H   H18       1.0  0.99764  0.29288  0.00733  1.0000
  H   H19       1.0  0.11566  0.32819  0.03776  1.0000
  H   H20       1.0  0.39613  0.20019  0.10377  1.0000
  H   H21       1.0  0.41422  0.25145  0.09640  1.0000
  H   H22       1.0  0.42294  0.13202  0.25608  1.0000
  H   H23       1.0  0.46175  0.46914  0.10555  1.0000
  C   C25       1.0  0.40683  0.02657  0.04065  1.0000
  C   C26       1.0  0.07425  0.35602  0.01218  1.0000
  C   C27       1.0  0.36461  0.11329  0.21785  1.0000
  C   C28       1.0  0.44647  0.44690  0.17207  1.0000
  C   C29       1.0  0.00130  0.36900  0.23039  1.0000
  C   C30       1.0  0.41769  0.45400  0.05163  1.0000
  C   C31       1.0  0.43538  0.08095  0.28877  1.0000
  C   C32       1.0  0.45746  0.10858  0.28466  1.0000
  C   C33       1.0  0.00306  0.36841  0.25867  1.0000
  C   C34       1.0  0.45302  0.10175  0.23533  1.0000
  C   C35       1.0  0.43061  0.07429  0.23942  1.0000
  C   C36       1.0  0.42199  0.06398  0.26595  1.0000
  C   C37       1.0  0.02188  0.27745  0.07325  1.0000
  H   H24       1.0  0.31594  0.41481  0.05619  1.0000
  H   H25       1.0  0.42006  0.06090  0.22219  1.0000
  H   H26       1.0  0.47247  0.35551  0.23814  1.0000
  H   H27       1.0  0.46616  0.02242  0.01221  1.0000
  C   C38       1.0  0.46091  0.17750  0.31789  1.0000
  C   C39       1.0  0.46634  0.11873  0.25816  1.0000
  S   S10       1.0  0.99393  0.37943  0.04662  1.0000
  H   H28       1.0  0.42938  0.40205  0.17652  1.0000
  H   H29       1.0  0.04335  0.22095  0.08941  1.0000
  P   P1        1.0  0.46962  0.26958  0.20551  1.0000
  H   H30       1.0  0.39866  0.24684  0.26068  1.0000
  H   H31       1.0  0.43184  0.27516  0.03425  1.0000
  S   S11       1.0  0.47056  0.36824  0.06837  1.0000
  H   H32       1.0  0.97871  0.32195  0.03442  1.0000
  H   H33       1.0  0.40920  0.16621  0.19592  1.0000
  H   H34       1.0  0.36811  0.08065  0.04097  1.0000
  H   H35       1.0  0.45486  0.40882  0.30310  1.0000
  C   C40       1.0  0.11633  0.32401  0.01644  1.0000
  H   H36       1.0  0.45581  0.42997  0.02837  1.0000
  C   C41       1.0  0.39355  0.14734  0.26260  1.0000
  H   H37       1.0  0.01151  0.32995  0.16057  1.0000
  C   C42       1.0  0.35532  0.44614  0.03862  1.0000
  H   H38       1.0  0.41834  0.17027  0.05200  1.0000
  P   P2        1.0  0.45561  0.18819  0.00492  1.0000
  H   H39       1.0  0.40223  0.43580  0.04033  1.0000
  H   H40       1.0  0.42159  0.06806  0.02453  1.0000
  P   P3        1.0  0.41105  0.16752  0.29262  1.0000
  C   C43       1.0  0.13853  0.34363  0.00039  1.0000
  H   H41       1.0  0.39329  0.25236  0.14118  1.0000
  H   H42       1.0  0.09548  0.37392  0.01337  1.0000
  H   H43       1.0  0.07727  0.28425  0.01726  1.0000
  C   C44       1.0  0.42440  0.48146  0.04417  1.0000
  C   C45       1.0  0.39296  0.14335  0.31990  1.0000
  H   H44       1.0  0.38150  0.12382  0.06820  1.0000
  C   C46       1.0  0.05964  0.34277  0.03582  1.0000
  C   C47       1.0  0.03148  0.32063  0.03447  1.0000
  H   H45       1.0  0.35823  0.15486  0.26533  1.0000
  C   C48       1.0  0.46340  0.23432  0.19905  1.0000
  C   C49       1.0  0.01898  0.31051  0.00903  1.0000
  C   C50       1.0  0.02028  0.32861  0.09233  1.0000
  C   C51       1.0  0.38864  0.98839  0.00648  1.0000
  C   C52       1.0  0.38415  0.10115  0.03364  1.0000
  C   C53       1.0  0.02714  0.36605  0.13448  1.0000
  C   C54       1.0  0.03324  0.37580  0.10791  1.0000
  C   C55       1.0  0.02980  0.35718  0.08692  1.0000
  C   C56       1.0  0.00855  0.25125  0.05992  1.0000
  C   C57       1.0  0.40524  0.03640  0.99260  1.0000
  C   C58       1.0  0.44634  0.42294  0.18202  1.0000
  C   C59       1.0  0.05130  0.26308  0.09766  1.0000
  C   C60       1.0  0.04366  0.28345  0.09182  1.0000
  S   S12       1.0  0.46535  0.11616  0.20245  1.0000
  C   C61       1.0  0.97876  0.35716  0.27476  1.0000
  S   S13       1.0  0.44949  0.34943  0.29076  1.0000
  S   S14       1.0  0.46695  0.35333  0.13359  1.0000
  C   C62       1.0  0.43584  0.21113  0.20094  1.0000
  C   C63       1.0  0.01738  0.33759  0.14006  1.0000
  H   H46       1.0  0.38883  0.28634  0.21807  1.0000
  H   H47       1.0  0.07004  0.35029  0.05517  1.0000
  H   H48       1.0  0.36979  0.27014  0.17207  1.0000
  H   H49       1.0  0.44067  0.46064  0.00085  1.0000
  C   C64       1.0  0.47460  0.99370  0.03539  1.0000
  H   H50       1.0  0.02896  0.38030  0.15064  1.0000
  H   H51       1.0  0.03953  0.39756  0.10336  1.0000
  H   H52       1.0  0.03347  0.36499  0.06641  1.0000
  C   C65       1.0  0.35347  0.12788  0.23170  1.0000
  H   H53       1.0  0.99216  0.24652  0.04504  1.0000
  H   H54       1.0  0.44869  0.15808  0.18441  1.0000
  H   H55       1.0  0.06787  0.26766  0.11228  1.0000
  H   H56       1.0  0.05477  0.30383  0.10178  1.0000
  C   C66       1.0  0.43628  0.25870  0.02805  1.0000
  H   H57       1.0  0.39829  0.10342  0.21630  1.0000
  C   C67       1.0  0.43061  0.18384  0.19546  1.0000
  H   H58       1.0  0.23272  0.34047  0.99676  1.0000
  S   S15       1.0  0.47194  0.29905  0.08910  1.0000
  H   H59       1.0  0.33359  0.12595  0.22521  1.0000
  C   C68       1.0  0.36997  0.45882  0.01468  1.0000
  H   H60       1.0  0.43236  0.28762  0.23265  1.0000
  C   C69       1.0  0.46816  0.42576  0.19889  1.0000
  H   H61       1.0  0.41458  0.27329  0.30390  1.0000
  C   C70       1.0  0.40179  0.25971  0.16124  1.0000
  H   H62       1.0  0.04301  0.46282  0.99212  1.0000
  C   C71       1.0  0.03752  0.23678  0.08474  1.0000
  H   H63       1.0  0.36579  0.45259  0.05807  1.0000
  C   C72       1.0  0.39166  0.12539  0.04894  1.0000
  C   C73       1.0  0.38840  0.26946  0.17868  1.0000
  C   C74       1.0  0.42003  0.21059  0.01360  1.0000
  H   H64       1.0  0.47282  0.05382  0.05054  1.0000
  C   C75       1.0  0.40405  0.13181  0.24909  1.0000
  H   H65       1.0  0.00561  0.21057  0.05571  1.0000
  H   H66       1.0  0.35359  0.10029  0.20048  1.0000
  H   H67       1.0  0.02359  0.37704  0.26821  1.0000
  C   C76       1.0  0.42423  0.27960  0.21271  1.0000
  C   C77       1.0  0.40475  0.23815  0.27732  1.0000
  C   C78       1.0  0.01377  0.31886  0.11906  1.0000
  C   C79       1.0  0.44793  0.21562  0.01438  1.0000
  C   C80       1.0  0.41118  0.20058  0.29614  1.0000
  H   H68       1.0  0.42557  0.42832  0.07925  1.0000
  H   H69       1.0  0.43572  0.37864  0.99142  1.0000
  C   C81       1.0  0.36767  0.14454  0.25422  1.0000
  H   H70       1.0  0.02052  0.37803  0.21859  1.0000
  C   C82       1.0  0.38981  0.11511  0.22668  1.0000
  P   P4        1.0  0.01242  0.30380  0.06502  1.0000
  C   C83       1.0  0.42628  0.25969  0.16956  1.0000
  C   C84       1.0  0.31278  0.41639  0.01290  1.0000
  C   C85       1.0  0.46392  0.18585  0.26959  1.0000
  C   C86       1.0  0.46841  0.47376  0.17914  1.0000
  C   C87       1.0  0.43809  0.27022  0.19517  1.0000
  C   C88       1.0  0.41354  0.25299  0.30173  1.0000
  S   S16       1.0  0.97578  0.36088  0.18115  1.0000
  C   C89       1.0  0.44771  0.17682  0.29330  1.0000
  S   S17       1.0  0.98363  0.35885  0.31064  1.0000
  C   C90       1.0  0.42696  0.15411  0.01546  1.0000
  C   C91       1.0  0.32694  0.42483  0.03768  1.0000
  C   C92       1.0  0.42055  0.21595  0.32045  1.0000
  C   C93       1.0  0.41277  0.15175  0.03979  1.0000
  C   C94       1.0  0.98128  0.47299  0.20083  1.0000
  C   C95       1.0  0.38300  0.39418  0.99770  1.0000
  C   C96       1.0  0.39525  0.99780  0.03366  1.0000
  H   H71       1.0  0.46725  0.41673  0.25502  1.0000
  C   C97       1.0  0.01624  0.23092  0.06579  1.0000
  H   H72       1.0  0.47000  0.23728  0.25318  1.0000
  H   H73       1.0  0.46774  0.12207  0.30190  1.0000
  H   H74       1.0  0.40272  0.19007  0.00783  1.0000
  H   H75       1.0  0.46769  0.40689  0.20617  1.0000
  C   C98       1.0  0.39755  0.10333  0.00900  1.0000
  H   H76       1.0  0.40497  0.11301  0.30624  1.0000
  H   H77       1.0  0.99176  0.42182  0.27497  1.0000
  C   C99       1.0  0.41423  0.23200  0.02072  1.0000
  H   H78       1.0  0.97859  0.41927  0.16350  1.0000
  H   H79       1.0  0.39263  0.22785  0.02089  1.0000
  C   C100      1.0  0.45288  0.17930  0.18878  1.0000
  C   C101      1.0  0.99212  0.36146  0.99273  1.0000
  C   C102      1.0  0.46414  0.26408  0.02803  1.0000
  C   C103      1.0  0.46999  0.24266  0.02128  1.0000
  C   C104      1.0  0.35538  0.45054  0.98992  1.0000
  H   H80       1.0  0.46623  0.17837  0.06103  1.0000
  H   H81       1.0  0.39110  0.98261  0.04950  1.0000
  C   C105      1.0  0.39343  0.11790  0.32109  1.0000
  C   C106      1.0  0.97517  0.35833  0.21724  1.0000
  S   S18       1.0  0.46030  0.07075  0.39369  1.0000
  H   H82       1.0  0.05921  0.46462  0.55073  1.0000
  Fe  Fe7       1.0  0.43722  0.12656  0.40519  1.0000
  S   S19       1.0  0.40667  0.08046  0.39577  1.0000
  H   H83       1.0  0.17456  0.43035  0.54728  1.0000
  Fe  Fe8       1.0  0.43057  0.06938  0.42635  1.0000
  S   S20       1.0  0.41546  0.03018  0.45447  1.0000
  Fe  Fe9       1.0  0.43883  0.08559  0.36424  1.0000
  H   H84       1.0  0.35328  0.13464  0.37607  1.0000
  C   C107      1.0  0.05317  0.43691  0.43547  1.0000
  H   H85       1.0  0.41770  0.00054  0.59684  1.0000
  H   H86       1.0  0.43471  0.04704  0.62290  1.0000
  S   S21       1.0  0.39726  0.45326  0.60061  1.0000
  Fe  Fe10      1.0  0.31839  0.43026  0.58701  1.0000
  S   S22       1.0  0.33393  0.39996  0.59714  1.0000
  S   S23       1.0  0.27041  0.41188  0.58416  1.0000
  H   H87       1.0  0.38675  0.38441  0.64806  1.0000
  Fe  Fe11      1.0  0.36954  0.42398  0.56725  1.0000
  S   S24       1.0  0.39339  0.40856  0.53891  1.0000
  C   C108      1.0  0.16905  0.48057  0.51150  1.0000
  S   S25       1.0  0.35193  0.45196  0.55492  1.0000
  Fe  Fe12      1.0  0.46050  0.32148  0.38307  1.0000
  S   S26       1.0  0.41842  0.31341  0.36706  1.0000
  H   H88       1.0  0.03330  0.43678  0.43377  1.0000
  H   H89       1.0  0.39761  0.19498  0.41063  1.0000
  S   S27       1.0  0.44495  0.38148  0.36451  1.0000
  Fe  Fe13      1.0  0.42390  0.34824  0.39670  1.0000
  S   S28       1.0  0.39069  0.35171  0.42329  1.0000
  Fe  Fe14      1.0  0.44367  0.34818  0.33688  1.0000
  C   C109      1.0  0.37908  0.09845  0.34160  1.0000
  H   H90       1.0  0.38496  0.02983  0.61053  1.0000
  Fe  Fe15      1.0  0.15116  0.45655  0.60547  1.0000
  S   S29       1.0  0.11748  0.41080  0.60746  1.0000
  C   C110      1.0  0.45933  0.25206  0.38994  1.0000
  H   H91       1.0  0.44905  0.17143  0.33664  1.0000
  S   S30       1.0  0.07128  0.43139  0.61551  1.0000
  H   H92       1.0  0.41671  0.40460  0.39552  1.0000
  Fe  Fe16      1.0  0.09138  0.42252  0.57987  1.0000
  S   S31       1.0  0.06917  0.39624  0.54127  1.0000
  C   C111      1.0  0.14035  0.42227  0.52013  1.0000
  S   S32       1.0  0.12650  0.46788  0.57603  1.0000
  H   H93       1.0  0.37322  0.02978  0.54382  1.0000
  C   C112      1.0  0.16610  0.43945  0.53318  1.0000
  C   C113      1.0  0.04302  0.39176  0.51652  1.0000
  C   C114      1.0  0.02437  0.40212  0.52026  1.0000
  C   C115      1.0  0.00426  0.39817  0.50008  1.0000
  C   C116      1.0  0.00242  0.38397  0.47562  1.0000
  C   C117      1.0  0.02086  0.37332  0.47201  1.0000
  C   C118      1.0  0.04090  0.37718  0.49226  1.0000
  H   H94       1.0  0.02525  0.41290  0.53888  1.0000
  H   H95       1.0  0.98977  0.40584  0.50376  1.0000
  C   C119      1.0  0.39995  0.99172  0.49655  1.0000
  H   H96       1.0  0.05500  0.36887  0.48904  1.0000
  C   C120      1.0  0.25113  0.42963  0.59099  1.0000
  C   C121      1.0  0.26453  0.45892  0.59465  1.0000
  H   H97       1.0  0.34045  0.99919  0.47144  1.0000
  C   C122      1.0  0.21855  0.45658  0.59913  1.0000
  C   C123      1.0  0.20517  0.42721  0.59618  1.0000
  C   C124      1.0  0.22138  0.41389  0.59196  1.0000
  H   H98       1.0  0.38460  0.42357  0.38812  1.0000
  H   H99       1.0  0.37649  0.16807  0.33893  1.0000
  H   H100      1.0  0.18233  0.41480  0.59673  1.0000
  H   H101      1.0  0.21077  0.39123  0.58917  1.0000
  C   C125      1.0  0.39312  0.39451  0.50579  1.0000
  C   C126      1.0  0.37348  0.39089  0.48562  1.0000
  C   C127      1.0  0.37359  0.37857  0.46038  1.0000
  C   C128      1.0  0.39382  0.37044  0.45434  1.0000
  C   C129      1.0  0.41419  0.37517  0.47410  1.0000
  C   C130      1.0  0.41349  0.38664  0.49964  1.0000
  H   H102      1.0  0.35790  0.39716  0.48953  1.0000
  H   H103      1.0  0.35767  0.37509  0.44544  1.0000
  H   H104      1.0  0.42977  0.36888  0.47012  1.0000
  H   H105      1.0  0.42861  0.38895  0.51498  1.0000
  C   C131      1.0  0.43515  0.19320  0.40059  1.0000
  S   S33       1.0  0.42409  0.06636  0.32178  1.0000
  C   C132      1.0  0.98629  0.44952  0.43246  1.0000
  C   C133      1.0  0.34549  0.35121  0.63598  1.0000
  C   C134      1.0  0.43117  0.23611  0.39836  1.0000
  C   C135      1.0  0.07424  0.45575  0.45310  1.0000
  H   H106      1.0  0.45835  0.42933  0.42503  1.0000
  H   H107      1.0  0.47235  0.04091  0.53007  1.0000
  Fe  Fe17      1.0  0.36034  0.43179  0.62930  1.0000
  C   C136      1.0  0.38623  0.37207  0.60653  1.0000
  C   C137      1.0  0.40223  0.01740  0.48788  1.0000
  C   C138      1.0  0.39295  0.03121  0.50551  1.0000
  C   C139      1.0  0.38091  0.01912  0.53085  1.0000
  H   H108      1.0  0.97916  0.44362  0.53357  1.0000
  C   C140      1.0  0.00661  0.45702  0.56831  1.0000
  H   H109      1.0  0.39433  0.05085  0.49930  1.0000
  Fe  Fe18      1.0  0.10760  0.47606  0.61300  1.0000
  C   C141      1.0  0.99217  0.45066  0.46003  1.0000
  H   H110      1.0  0.42721  0.20794  0.33731  1.0000
  C   C142      1.0  0.32882  0.33391  0.61478  1.0000
  C   C143      1.0  0.44530  0.02351  0.56400  1.0000
  H   H111      1.0  0.37963  0.07889  0.34235  1.0000
  H   H112      1.0  0.08555  0.40174  0.41178  1.0000
  H   H113      1.0  0.35439  0.08987  0.37790  1.0000
  H   H114      1.0  0.01747  0.47663  0.49307  1.0000
  H   H115      1.0  0.47054  0.99676  0.46338  1.0000
  S   S34       1.0  0.41932  0.15662  0.40897  1.0000
  C   C144      1.0  0.47102  0.00234  0.54374  1.0000
  C   C145      1.0  0.41923  0.20693  0.40366  1.0000
  C   C146      1.0  0.43211  0.47439  0.43038  1.0000
  C   C147      1.0  0.44122  0.47516  0.49780  1.0000
  P   P5        1.0  0.12700  0.47947  0.47870  1.0000
  H   H116      1.0  0.24068  0.20164  0.58974  1.0000
  C   C148      1.0  0.05723  0.41744  0.42064  1.0000
  C   C149      1.0  0.41853  0.03674  0.63810  1.0000
  C   C150      1.0  0.42125  0.42426  0.40505  1.0000
  H   H117      1.0  0.42875  0.25369  0.34204  1.0000
  C   C151      1.0  0.12893  0.43416  0.50269  1.0000
  C   C152      1.0  0.40306  0.43498  0.40091  1.0000
  H   H118      1.0  0.00439  0.43639  0.57176  1.0000
  H   H119      1.0  0.45650  0.46244  0.59832  1.0000
  C   C153      1.0  0.47450  0.98432  0.39924  1.0000
  S   S35       1.0  0.34340  0.46078  0.61990  1.0000
  C   C154      1.0  0.46306  0.20898  0.39147  1.0000
  C   C155      1.0  0.10364  0.43574  0.44089  1.0000
  C   C156      1.0  0.39036  0.02736  0.63108  1.0000
  C   C157      1.0  0.42151  0.24192  0.32324  1.0000
  H   H120      1.0  0.34715  0.00628  0.64472  1.0000
  H   H121      1.0  0.28520  0.22881  0.61586  1.0000
  C   C158      1.0  0.36966  0.35470  0.58534  1.0000
  C   C159      1.0  0.24831  0.47229  0.59845  1.0000
  H   H122      1.0  0.04053  0.40240  0.40750  1.0000
  C   C160      1.0  0.45013  0.46334  0.43514  1.0000
  H   H123      1.0  0.07766  0.44979  0.51254  1.0000
  H   H124      1.0  0.31915  0.27816  0.60375  1.0000
  H   H125      1.0  0.40819  0.38760  0.60298  1.0000
  H   H126      1.0  0.30639  0.32013  0.61799  1.0000
  S   S36       1.0  0.13520  0.46914  0.64203  1.0000
  C   C161      1.0  0.37416  0.37032  0.63185  1.0000
  H   H127      1.0  0.12311  0.43511  0.44269  1.0000
  C   C162      1.0  0.44478  0.43834  0.42202  1.0000
  C   C163      1.0  0.37841  0.99333  0.53942  1.0000
  C   C164      1.0  0.09936  0.45480  0.45647  1.0000
  S   S37       1.0  0.97703  0.38058  0.45041  1.0000
  C   C165      1.0  0.30721  0.98557  0.50106  1.0000
  S   S38       1.0  0.45862  0.11510  0.43810  1.0000
  H   H128      1.0  0.41874  0.24635  0.40125  1.0000
  H   H129      1.0  0.12857  0.39982  0.52439  1.0000
  H   H130      1.0  0.46588  0.44408  0.50562  1.0000
  H   H131      1.0  0.39442  0.46844  0.41029  1.0000
  H   H132      1.0  0.07061  0.47067  0.46432  1.0000
  C   C166      1.0  0.18044  0.46859  0.52888  1.0000
  H   H133      1.0  0.43932  0.03970  0.56400  1.0000
  H   H134      1.0  0.46290  0.46189  0.54905  1.0000
  S   S39       1.0  0.19924  0.47477  0.60321  1.0000
  S   S40       1.0  0.46445  0.35396  0.41433  1.0000
  C   C167      1.0  0.37773  0.14895  0.33945  1.0000
  C   C168      1.0  0.36464  0.10450  0.36143  1.0000
  Fe  Fe19      1.0  0.10029  0.42415  0.64279  1.0000
  H   H135      1.0  0.36640  0.30528  0.55881  1.0000
  C   C169      1.0  0.08252  0.41697  0.42322  1.0000
  H   H136      1.0  0.28736  0.47134  0.59384  1.0000
  C   C170      1.0  0.14336  0.46338  0.49799  1.0000
  C   C171      1.0  0.46418  0.02402  0.54466  1.0000
  C   C172      1.0  0.40857  0.46015  0.41345  1.0000
  H   H137      1.0  0.98167  0.43162  0.47196  1.0000
  H   H138      1.0  0.42872  0.45355  0.49073  1.0000
  H   H139      1.0  0.01979  0.36220  0.45354  1.0000
  Fe  Fe20      1.0  0.37824  0.48002  0.58920  1.0000
  H   H140      1.0  0.19987  0.48191  0.53988  1.0000
  C   C173      1.0  0.24957  0.23605  0.56281  1.0000
  C   C174      1.0  0.25541  0.22341  0.58453  1.0000
  C   C175      1.0  0.28046  0.23874  0.59928  1.0000
  C   C176      1.0  0.29956  0.26680  0.59249  1.0000
  C   C177      1.0  0.29341  0.27987  0.57120  1.0000
  C   C178      1.0  0.26862  0.26411  0.55599  1.0000
  P   P6        1.0  0.31853  0.31547  0.56132  1.0000
  C   C179      1.0  0.33815  0.31232  0.53342  1.0000
  C   C180      1.0  0.36051  0.30711  0.53833  1.0000
  C   C181      1.0  0.37568  0.30457  0.51676  1.0000
  C   C182      1.0  0.36823  0.30659  0.49016  1.0000
  C   C183      1.0  0.34538  0.31076  0.48511  1.0000
  C   C184      1.0  0.33025  0.31344  0.50661  1.0000
  C   C185      1.0  0.30092  0.33479  0.55209  1.0000
  C   C186      1.0  0.27458  0.32789  0.56323  1.0000
  C   C187      1.0  0.26188  0.34398  0.55680  1.0000
  C   C188      1.0  0.27549  0.36712  0.53948  1.0000
  C   C189      1.0  0.30203  0.37455  0.52897  1.0000
  C   C190      1.0  0.31479  0.35859  0.53547  1.0000
  H   H141      1.0  0.23037  0.22405  0.55110  1.0000
  C   C191      1.0  0.36396  0.12971  0.36034  1.0000
  C   C192      1.0  0.43299  0.00138  0.58247  1.0000
  H   H142      1.0  0.37918  0.35727  0.56563  1.0000
  H   H143      1.0  0.26409  0.27350  0.53879  1.0000
  H   H144      1.0  0.38030  0.30528  0.47337  1.0000
  H   H145      1.0  0.33986  0.31256  0.46442  1.0000
  H   H146      1.0  0.31259  0.31658  0.50214  1.0000
  H   H147      1.0  0.10823  0.42058  0.49403  1.0000
  H   H148      1.0  0.26412  0.31058  0.57731  1.0000
  H   H149      1.0  0.24185  0.33912  0.56579  1.0000
  H   H150      1.0  0.26588  0.37991  0.53498  1.0000
  H   H151      1.0  0.31305  0.39312  0.51637  1.0000
  H   H152      1.0  0.33573  0.36509  0.52799  1.0000
  C   C193      1.0  0.34087  0.33536  0.58934  1.0000
  C   C194      1.0  0.02363  0.47950  0.58549  1.0000
  C   C195      1.0  0.08793  0.47188  0.51810  1.0000
  H   H153      1.0  0.39336  0.30124  0.52058  1.0000
  H   H154      1.0  0.24941  0.38161  0.64346  1.0000
  C   C196      1.0  0.01208  0.47608  0.47193  1.0000
  C   C197      1.0  0.36901  0.01406  0.65031  1.0000
  C   C198      1.0  0.99252  0.46117  0.54675  1.0000
  H   H155      1.0  0.41109  0.46961  0.52870  1.0000
  S   S41       1.0  0.46815  0.13168  0.37268  1.0000
  C   C199      1.0  0.99969  0.47399  0.41682  1.0000
  H   H156      1.0  0.30693  0.00527  0.50065  1.0000
  C   C200      1.0  0.07740  0.48024  0.53971  1.0000
  H   H157      1.0  0.47377  0.03201  0.43074  1.0000
  H   H158      1.0  0.99514  0.47250  0.39536  1.0000
  H   H159      1.0  0.03462  0.47628  0.60222  1.0000
  H   H160      1.0  0.44175  0.43559  0.86538  1.0000
  Fe  Fe21      1.0  0.32119  0.42844  0.87149  1.0000
  S   S42       1.0  0.34763  0.41051  0.85442  1.0000
  S   S43       1.0  0.27295  0.40509  0.86718  1.0000
  H   H161      1.0  0.13923  0.40002  0.67779  1.0000
  S   S44       1.0  0.40327  0.47036  0.87047  1.0000
  Fe  Fe22      1.0  0.37345  0.45317  0.83466  1.0000
  C   C201      1.0  0.13924  0.33863  0.97261  1.0000
  Fe  Fe23      1.0  0.37528  0.42906  0.89192  1.0000
  S   S45       1.0  0.39874  0.41048  0.91610  1.0000
  C   C202      1.0  0.24486  0.41356  0.66482  1.0000
  S   S46       1.0  0.34672  0.44347  0.90998  1.0000
  S   S47       1.0  0.35742  0.41454  0.67244  1.0000
  S   S48       1.0  0.08617  0.40011  0.68304  1.0000
  Fe  Fe24      1.0  0.14863  0.44621  0.89161  1.0000
  S   S49       1.0  0.11028  0.41042  0.87157  1.0000
  S   S50       1.0  0.19394  0.45594  0.90017  1.0000
  C   C203      1.0  0.15693  0.41467  0.69021  1.0000
  S   S51       1.0  0.07877  0.44842  0.87796  1.0000
  Fe  Fe25      1.0  0.08452  0.41760  0.90402  1.0000
  S   S52       1.0  0.04721  0.38335  0.92877  1.0000
  Fe  Fe26      1.0  0.10751  0.44421  0.84744  1.0000
  S   S53       1.0  0.11079  0.45479  0.80202  1.0000
  S   S54       1.0  0.12321  0.45070  0.92522  1.0000
  C   C204      1.0  0.45714  0.00435  0.93910  1.0000
  C   C205      1.0  0.17754  0.44029  0.67929  1.0000
  C   C206      1.0  0.14479  0.36168  0.77216  1.0000
  C   C207      1.0  0.00435  0.36290  0.96709  1.0000
  C   C208      1.0  0.09394  0.41551  0.71609  1.0000
  C   C209      1.0  0.08235  0.39803  0.73888  1.0000
  C   C210      1.0  0.08740  0.40948  0.76532  1.0000
  C   C211      1.0  0.10443  0.43861  0.76937  1.0000
  C   C212      1.0  0.11636  0.45601  0.74660  1.0000
  C   C213      1.0  0.11119  0.44461  0.72020  1.0000
  H   H162      1.0  0.06894  0.37551  0.73602  1.0000
  H   H163      1.0  0.07757  0.39582  0.78243  1.0000
  C   C214      1.0  0.18192  0.46628  0.78279  1.0000
  H   H164      1.0  0.12039  0.45837  0.70299  1.0000
  C   C215      1.0  0.25161  0.42034  0.87496  1.0000
  C   C216      1.0  0.22286  0.40606  0.86746  1.0000
  C   C217      1.0  0.20498  0.41694  0.87428  1.0000
  C   C218      1.0  0.21551  0.44183  0.88942  1.0000
  C   C219      1.0  0.24424  0.45610  0.89688  1.0000
  C   C220      1.0  0.26227  0.44561  0.88949  1.0000
  H   H165      1.0  0.21429  0.38624  0.85669  1.0000
  H   H166      1.0  0.18302  0.40589  0.86823  1.0000
  H   H167      1.0  0.46209  0.45840  0.95796  1.0000
  H   H168      1.0  0.28427  0.45677  0.89558  1.0000
  C   C221      1.0  0.38000  0.45295  0.75879  1.0000
  C   C222      1.0  0.36023  0.42438  0.75466  1.0000
  C   C223      1.0  0.35326  0.41324  0.72814  1.0000
  C   C224      1.0  0.36543  0.43048  0.70530  1.0000
  C   C225      1.0  0.38448  0.45926  0.70941  1.0000
  C   C226      1.0  0.21123  0.45576  0.81185  1.0000
  H   H169      1.0  0.35093  0.41066  0.77189  1.0000
  H   H170      1.0  0.33858  0.39094  0.72531  1.0000
  C   C227      1.0  0.20192  0.45307  0.72240  1.0000
  H   H171      1.0  0.39418  0.47282  0.69216  1.0000
  C   C228      1.0  0.39979  0.40149  0.95093  1.0000
  H   H172      1.0  0.23928  0.38067  0.81456  1.0000
  H   H173      1.0  0.45666  0.48143  0.91708  1.0000
  H   H174      1.0  0.43340  0.39233  0.94397  1.0000
  C   C229      1.0  0.31808  0.46364  0.74860  1.0000
  H   H175      1.0  0.22270  0.40457  0.65962  1.0000
  H   H176      1.0  0.22029  0.44291  0.81761  1.0000
  H   H177      1.0  0.17597  0.44531  0.65836  1.0000
  C   C230      1.0  0.14298  0.39829  0.96699  1.0000
  C   C231      1.0  0.37581  0.01039  0.67666  1.0000
  C   C232      1.0  0.45127  0.47046  0.95922  1.0000
  H   H178      1.0  0.35919  0.99978  0.69152  1.0000
  H   H179      1.0  0.27204  0.36842  0.96491  1.0000
  H   H180      1.0  0.33140  0.45900  0.73582  1.0000
  C   C233      1.0  0.45124  0.20266  0.95162  1.0000
  C   C234      1.0  0.46162  0.09410  0.68962  1.0000
  S   S55       1.0  0.34574  0.46977  0.85016  1.0000
  C   C235      1.0  0.44669  0.99589  0.70265  1.0000
  C   C236      1.0  0.20052  0.36759  0.95743  1.0000
  C   C237      1.0  0.22306  0.38358  0.93978  1.0000
  C   C238      1.0  0.24877  0.38401  0.94258  1.0000
  H   H181      1.0  0.29523  0.45492  0.81375  1.0000
  P   P7        1.0  0.16669  0.36545  0.95178  1.0000
  H   H182      1.0  0.07184  0.35752  0.96867  1.0000
  C   C239      1.0  0.46058  0.18848  0.96878  1.0000
  H   H183      1.0  0.43292  0.98455  0.68577  1.0000
  C   C240      1.0  0.28849  0.41229  0.66214  1.0000
  C   C241      1.0  0.03218  0.38418  0.96096  1.0000
  H   H184      1.0  0.02347  0.31683  0.96590  1.0000
  C   C242      1.0  0.15716  0.35698  0.91655  1.0000
  C   C243      1.0  0.13779  0.36332  0.90418  1.0000
  C   C244      1.0  0.12955  0.35543  0.87729  1.0000
  C   C245      1.0  0.14088  0.34167  0.86243  1.0000
  C   C246      1.0  0.15999  0.33512  0.87461  1.0000
  C   C247      1.0  0.16787  0.34243  0.90161  1.0000
  H   H185      1.0  0.31605  0.42295  0.96979  1.0000
  H   H186      1.0  0.26952  0.38642  0.77503  1.0000
  H   H187      1.0  0.47094  0.18845  0.89096  1.0000
  C   C248      1.0  0.47258  0.47980  0.86104  1.0000
  H   H188      1.0  0.44191  0.00968  0.93093  1.0000
  H   H189      1.0  0.22054  0.39533  0.92349  1.0000
  H   H190      1.0  0.26580  0.39601  0.92842  1.0000
  H   H191      1.0  0.16986  0.46795  0.98151  1.0000
  H   H192      1.0  0.42924  0.13052  0.98110  1.0000
  C   C249      1.0  0.28468  0.48018  0.75456  1.0000
  C   C250      1.0  0.46422  0.99467  0.74735  1.0000
  C   C251      1.0  0.38172  0.40213  0.97068  1.0000
  H   H193      1.0  0.44100  0.21372  0.95969  1.0000
  H   H194      1.0  0.99209  0.34731  0.95185  1.0000
  H   H195      1.0  0.43879  0.08138  0.69041  1.0000
  H   H196      1.0  0.40907  0.05158  0.97683  1.0000
  H   H197      1.0  0.11449  0.36017  0.86785  1.0000
  H   H198      1.0  0.13485  0.33608  0.84148  1.0000
  H   H199      1.0  0.16881  0.32443  0.86312  1.0000
  C   C252      1.0  0.45293  0.99246  0.96485  1.0000
  H   H200      1.0  0.04968  0.45067  0.94542  1.0000
  H   H201      1.0  0.12420  0.42296  0.97990  1.0000
  C   C253      1.0  0.40394  0.01969  0.68374  1.0000
  C   C254      1.0  0.25870  0.43869  0.67967  1.0000
  C   C255      1.0  0.41939  0.39314  0.95892  1.0000
  H   H202      1.0  0.20181  0.39350  0.81114  1.0000
  H   H203      1.0  0.18236  0.33669  0.91068  1.0000
  C   C256      1.0  0.21523  0.39662  0.79388  1.0000
  H   H204      1.0  0.11336  0.31753  0.77439  1.0000
  C   C257      1.0  0.47366  0.17426  0.95751  1.0000
  H   H205      1.0  0.13900  0.41462  0.80293  1.0000
  H   H206      1.0  0.11766  0.30897  0.93992  1.0000
  S   S56       1.0  0.39133  0.46789  0.79179  1.0000
  C   C258      1.0  0.28787  0.45145  0.68483  1.0000
  C   C259      1.0  0.10869  0.37058  0.80563  1.0000
  H   H207      1.0  0.21555  0.47957  0.68694  1.0000
  C   C260      1.0  0.25322  0.39221  0.77350  1.0000
  H   H208      1.0  0.25265  0.47540  0.90857  1.0000
  C   C261      1.0  0.39193  0.47029  0.73596  1.0000
  C   C262      1.0  0.46809  0.18848  0.91263  1.0000
  H   H209      1.0  0.26261  0.40550  0.73203  1.0000
  H   H210      1.0  0.24675  0.44848  0.68637  1.0000
  C   C263      1.0  0.42547  0.03233  0.66429  1.0000
  C   C264      1.0  0.45503  0.20266  0.92366  1.0000
  C   C265      1.0  0.29764  0.46111  0.79266  1.0000
  P   P8        1.0  0.18506  0.41876  0.76810  1.0000
  H   H211      1.0  0.14203  0.38843  0.72522  1.0000
  C   C266      1.0  0.04774  0.46923  0.94912  1.0000
  H   H212      1.0  0.32732  0.44697  0.78425  1.0000
  H   H213      1.0  0.33603  0.35077  0.65537  1.0000
  C   C267      1.0  0.18140  0.42720  0.73348  1.0000
  S   S57       1.0  0.38284  0.99684  0.95103  1.0000
  C   C268      1.0  0.28215  0.47289  0.78192  1.0000
  H   H214      1.0  0.46150  0.13192  0.70193  1.0000
  H   H215      1.0  0.21946  0.46817  0.73461  1.0000
  H   H216      1.0  0.09453  0.37414  0.81826  1.0000
  C   C269      1.0  0.10119  0.34320  0.79754  1.0000
  C   C270      1.0  0.13406  0.39360  0.79681  1.0000
  C   C271      1.0  0.16806  0.39836  0.96032  1.0000
  C   C272      1.0  0.21180  0.40839  0.76996  1.0000
  C   C273      1.0  0.24941  0.40311  0.74934  1.0000
  H   H217      1.0  0.22632  0.41953  0.72864  1.0000
  H   H218      1.0  0.08122  0.32549  0.80397  1.0000
  C   C274      1.0  0.15867  0.40817  0.71724  1.0000
  C   C275      1.0  0.11928  0.33874  0.78088  1.0000
  C   C276      1.0  0.23614  0.38897  0.79576  1.0000
  C   C277      1.0  0.25225  0.36848  0.96311  1.0000
  C   C278      1.0  0.15228  0.38931  0.77991  1.0000
  C   C279      1.0  0.30249  0.43764  0.67666  1.0000
  C   C280      1.0  0.19399  0.44944  0.78880  1.0000
  C   C281      1.0  0.22886  0.41125  0.74757  1.0000
  H   H219      1.0  0.15844  0.35793  0.75899  1.0000
  H   H220      1.0  0.16768  0.46121  0.76576  1.0000
  H   H221      1.0  0.36641  0.40827  0.96502  1.0000
  H   H222      1.0  0.32485  0.44666  0.68091  1.0000
  C   C282      1.0  0.30346  0.47654  0.73784  1.0000
  H   H223      1.0  0.44777  0.21363  0.91054  1.0000
  H   H224      1.0  0.12900  0.37431  0.91514  1.0000
  H   H225      1.0  0.40864  0.01669  0.70433  1.0000
  C   C283      1.0  0.31558  0.45647  0.77599  1.0000
  C   C284      1.0  0.04407  0.47616  0.97543  1.0000
  C   C285      1.0  0.39295  0.00755  0.98568  1.0000
  C   C286      1.0  0.19384  0.42393  0.96147  1.0000
  H   H226      1.0  0.36579  0.46016  0.97113  1.0000
  C   C287      1.0  0.25983  0.40052  0.65582  1.0000
  C   C288      1.0  0.46201  0.45287  0.87208  1.0000
  C   C289      1.0  0.11770  0.31343  0.96125  1.0000
  H   H227      1.0  0.46845  0.42747  0.90123  1.0000
  H   H228      1.0  0.47376  0.99967  0.65665  1.0000
  C   C290      1.0  0.19991  0.45957  0.69544  1.0000
  H   H229      1.0  0.21350  0.42501  0.95594  1.0000
  P   P9        1.0  0.46195  0.04512  0.67349  1.0000
  H   H230      1.0  0.07867  0.27470  0.96840  1.0000
  S   S58       1.0  0.14675  0.47935  0.86668  1.0000
  H   H231      1.0  0.06901  0.42059  0.97702  1.0000
  C   C291      1.0  0.42082  0.38538  0.98597  1.0000
  C   C292      1.0  0.21649  0.47873  0.82833  1.0000
  C   C293      1.0  0.20422  0.35215  0.97815  1.0000
  C   C294      1.0  0.06114  0.34666  0.98702  1.0000
  H   H232      1.0  0.05942  0.46596  0.80751  1.0000
  H   H233      1.0  0.43438  0.98868  0.97616  1.0000
  C   C295      1.0  0.46357  0.02544  0.70216  1.0000
  C   C296      1.0  0.23005  0.35269  0.98098  1.0000
  C   C297      1.0  0.19446  0.44888  0.96923  1.0000
  H   H234      1.0  0.26788  0.47595  0.79479  1.0000
  C   C298      1.0  0.16943  0.44851  0.97606  1.0000
  H   H235      1.0  0.12279  0.37901  0.96580  1.0000
  C   C299      1.0  0.14370  0.42316  0.97509  1.0000
  C   C300      1.0  0.03369  0.32370  0.98545  1.0000
  C   C301      1.0  0.04758  0.40414  0.98111  1.0000
  C   C302      1.0  0.43891  0.47170  0.98354  1.0000
  C   C303      1.0  0.47222  0.98510  0.97561  1.0000
  H   H236      1.0  0.12964  0.47856  0.74933  1.0000
  Fe  Fe27      1.0  0.11845  0.48095  0.89832  1.0000
  H   H237      1.0  0.21430  0.46867  0.96915  1.0000
  C   C304      1.0  0.09548  0.29389  0.97736  1.0000
  H   H238      1.0  0.05291  0.48148  0.90731  1.0000
  H   H239      1.0  0.46404  0.98274  0.76492  1.0000
  C   C305      1.0  0.47443  0.12279  0.69626  1.0000
  H   H240      1.0  0.30012  0.40220  0.65509  1.0000
  C   C306      1.0  0.38694  0.52194  0.03564  1.0000
  H   H241      1.0  0.42358  0.95460  0.05207  1.0000
  P   P10       1.0  0.46573  0.96828  0.00828  1.0000
  C   C307      1.0  0.45878  0.50018  0.08082  1.0000
  C   C308      1.0  0.01266  0.64734  0.02635  1.0000
  C   C309      1.0  0.00428  0.56239  0.03200  1.0000
  H   H242      1.0  0.37973  0.96623  0.00171  1.0000
  H   H243      1.0  0.99750  0.59011  0.23580  1.0000
  C   C310      1.0  0.00160  0.58050  0.19442  1.0000
  C   C311      1.0  0.99404  0.55919  0.17516  1.0000
  H   H244      1.0  0.26181  0.89969  0.03082  1.0000
  S   S59       1.0  0.98099  0.60117  0.12388  1.0000
  P   P11       1.0  0.40651  0.48684  0.01591  1.0000
  C   C312      1.0  0.23062  0.85216  0.08129  1.0000
  C   C313      1.0  0.24366  0.87804  0.06776  1.0000
  H   H245      1.0  0.37071  0.50350  0.04591  1.0000
  H   H246      1.0  0.45138  0.52600  0.05305  1.0000
  C   C314      1.0  0.42825  0.54470  0.00692  1.0000
  H   H247      1.0  0.37129  0.54875  0.05041  1.0000
  H   H248      1.0  0.46848  0.49235  0.17144  1.0000
  C   C315      1.0  0.99191  0.57350  0.22096  1.0000
  H   H249      1.0  0.03977  0.50566  0.00081  1.0000
  H   H250      1.0  0.98347  0.60421  0.01544  1.0000
  C   C316      1.0  0.02226  0.56649  0.01023  1.0000
  H   H251      1.0  0.03948  0.58759  0.00644  1.0000
  C   C317      1.0  0.41359  0.92596  0.98889  1.0000
  C   C318      1.0  0.29525  0.83647  0.01104  1.0000
  C   C319      1.0  0.22629  0.82771  0.06801  1.0000
  H   H252      1.0  0.40787  0.59152  0.02690  1.0000
  C   C320      1.0  0.36997  0.90476  0.01441  1.0000
  H   H253      1.0  0.32383  0.82237  0.02441  1.0000
  C   C321      1.0  0.38723  0.54760  0.03830  1.0000
  C   C322      1.0  0.40730  0.52020  0.01969  1.0000
  H   H254      1.0  0.04508  0.69100  0.03020  1.0000
  H   H255      1.0  0.23130  0.80993  0.03111  1.0000
  H   H256      1.0  0.01456  0.60247  0.18869  1.0000
  C   C323      1.0  0.00172  0.62374  0.00912  1.0000
  P   P12       1.0  0.25922  0.85608  0.99287  1.0000
  H   H257      1.0  0.22354  0.85101  0.10196  1.0000
  C   C324      1.0  0.98160  0.53552  0.03743  1.0000
  C   C325      1.0  0.04890  0.67421  0.99177  1.0000
  H   H258      1.0  0.24660  0.89692  0.07793  1.0000
  C   C326      1.0  0.03634  0.67252  0.01730  1.0000
  H   H259      1.0  0.00794  0.58011  0.04476  1.0000
  H   H260      1.0  0.28707  0.83542  0.03114  1.0000
  H   H261      1.0  0.44422  0.58890  0.99898  1.0000
  C   C327      1.0  0.24892  0.85517  0.02772  1.0000
  H   H262      1.0  0.21572  0.80756  0.07835  1.0000
  C   C328      1.0  0.41327  0.94124  0.03479  1.0000
  H   H263      1.0  0.00139  0.56452  0.15449  1.0000
  C   C329      1.0  0.38422  0.92220  0.03637  1.0000
  C   C330      1.0  0.31628  0.82918  0.00734  1.0000
  S   S60       1.0  0.99734  0.64720  0.05874  1.0000
  H   H264      1.0  0.34747  0.89020  0.01551  1.0000
  H   H265      1.0  0.97584  0.48462  0.10287  1.0000
  H   H266      1.0  0.98091  0.64764  0.24767  1.0000
  H   H267      1.0  0.99637  0.49155  0.21197  1.0000
  C   C331      1.0  0.42838  0.57026  0.00946  1.0000
  C   C332      1.0  0.25258  0.87955  0.04100  1.0000
  C   C333      1.0  0.23524  0.82916  0.04129  1.0000
  C   C334      1.0  0.28553  0.84546  0.98897  1.0000
  H   H268      1.0  0.30855  0.90938  0.00909  1.0000
  H   H269      1.0  0.44426  0.54410  0.99461  1.0000
  C   C335      1.0  0.44534  0.50459  0.05873  1.0000
  H   H270      1.0  0.02577  0.55411  0.31434  1.0000
  C   C336      1.0  0.40785  0.57172  0.02511  1.0000
  C   C337      1.0  0.42827  0.94326  0.01099  1.0000
  H   H271      1.0  0.37275  0.92123  0.05457  1.0000
  C   C338      1.0  0.38475  0.90639  0.99086  1.0000
  C   C339      1.0  0.01776  0.54360  0.99374  1.0000
  C   C340      1.0  0.97627  0.53095  0.18222  1.0000
  C   C341      1.0  0.99429  0.51680  0.99885  1.0000
  C   C342      1.0  0.97660  0.51273  0.02088  1.0000
  C   C343      1.0  0.29974  0.91322  0.99105  1.0000
  H   H272      1.0  0.33194  0.95721  0.98917  1.0000
  H   H273      1.0  0.17982  0.50332  0.50939  1.0000
  S   S61       1.0  0.36973  0.91024  0.59375  1.0000
  H   H274      1.0  0.12759  0.54968  0.54254  1.0000
  C   C344      1.0  0.26808  0.93606  0.63010  1.0000
  Fe  Fe28      1.0  0.39386  0.92451  0.63293  1.0000
  S   S62       1.0  0.43962  0.93830  0.64200  1.0000
  Fe  Fe29      1.0  0.33198  0.88276  0.62048  1.0000
  S   S63       1.0  0.30230  0.83536  0.61450  1.0000
  H   H275      1.0  0.05519  0.48713  0.40293  1.0000
  S   S64       1.0  0.31950  0.91597  0.62531  1.0000
  S   S65       1.0  0.40331  0.52724  0.58248  1.0000
  S   S66       1.0  0.09318  0.50790  0.62075  1.0000
  Fe  Fe30      1.0  0.13796  0.72101  0.60483  1.0000
  S   S67       1.0  0.09278  0.70352  0.61928  1.0000
  S   S68       1.0  0.16736  0.76901  0.60413  1.0000
  Fe  Fe31      1.0  0.13078  0.66208  0.59958  1.0000
  S   S69       1.0  0.08597  0.64143  0.61372  1.0000
  S   S70       1.0  0.15388  0.63798  0.59024  1.0000
  Fe  Fe32      1.0  0.08096  0.67116  0.58546  1.0000
  S   S71       1.0  0.03934  0.64993  0.56018  1.0000
  H   H276      1.0  0.09450  0.60549  0.47565  1.0000
  S   S72       1.0  0.12562  0.69042  0.56970  1.0000
  H   H277      1.0  0.03541  0.60017  0.53188  1.0000
  C   C345      1.0  0.98668  0.53487  0.33643  1.0000
  H   H278      1.0  0.34120  0.95433  0.47219  1.0000
  C   C346      1.0  0.00683  0.64118  0.47137  1.0000
  H   H279      1.0  0.16078  0.56760  0.42677  1.0000
  C   C347      1.0  0.00051  0.62526  0.51836  1.0000
  C   C348      1.0  0.02790  0.64693  0.52554  1.0000
  C   C349      1.0  0.04486  0.66543  0.50520  1.0000
  C   C350      1.0  0.03428  0.66275  0.47850  1.0000
  H   H280      1.0  0.41067  0.91475  0.48593  1.0000
  C   C351      1.0  0.16535  0.55131  0.43311  1.0000
  H   H281      1.0  0.06590  0.68230  0.51017  1.0000
  H   H282      1.0  0.04746  0.67768  0.46325  1.0000
  C   C352      1.0  0.11194  0.54430  0.61335  1.0000
  C   C353      1.0  0.09901  0.56019  0.61963  1.0000
  C   C354      1.0  0.11207  0.58899  0.61336  1.0000
  C   C355      1.0  0.13820  0.60224  0.60031  1.0000
  C   C356      1.0  0.15145  0.58645  0.59415  1.0000
  C   C357      1.0  0.13837  0.55749  0.60071  1.0000
  H   H283      1.0  0.07861  0.55002  0.62923  1.0000
  H   H284      1.0  0.10169  0.60075  0.61839  1.0000
  H   H285      1.0  0.17171  0.59655  0.58404  1.0000
  H   H286      1.0  0.14850  0.54534  0.59571  1.0000
  C   C358      1.0  0.43723  0.54569  0.59712  1.0000
  C   C359      1.0  0.44695  0.53199  0.61419  1.0000
  C   C360      1.0  0.45479  0.57454  0.59160  1.0000
  H   H287      1.0  0.43343  0.50998  0.61904  1.0000
  C   C361      1.0  0.37540  0.52619  0.65329  1.0000
  C   C362      1.0  0.26471  0.81743  0.61227  1.0000
  C   C363      1.0  0.24947  0.83182  0.61267  1.0000
  C   C364      1.0  0.21970  0.81668  0.61035  1.0000
  C   C365      1.0  0.20480  0.78703  0.60783  1.0000
  C   C366      1.0  0.22004  0.77267  0.60768  1.0000
  C   C367      1.0  0.24980  0.78782  0.60963  1.0000
  H   H288      1.0  0.26065  0.85460  0.61437  1.0000
  H   H289      1.0  0.20811  0.82799  0.61037  1.0000
  H   H290      1.0  0.20891  0.74991  0.60553  1.0000
  H   H291      1.0  0.26134  0.77647  0.60887  1.0000
  C   C368      1.0  0.45790  0.92272  0.62705  1.0000
  C   C369      1.0  0.99120  0.56749  0.63775  1.0000
  Fe  Fe33      1.0  0.10160  0.67524  0.64597  1.0000
  C   C370      1.0  0.44475  0.89962  0.60945  1.0000
  C   C371      1.0  0.07389  0.56916  0.54964  1.0000
  C   C372      1.0  0.10425  0.61724  0.53446  1.0000
  H   H292      1.0  0.42271  0.89105  0.60417  1.0000
  H   H293      1.0  0.08432  0.56440  0.44699  1.0000
  H   H294      1.0  0.08365  0.51456  0.56544  1.0000
  C   C373      1.0  0.98892  0.52022  0.38212  1.0000
  S   S73       1.0  0.38509  0.96011  0.63929  1.0000
  C   C374      1.0  0.14581  0.52879  0.44888  1.0000
  C   C375      1.0  0.01080  0.58884  0.62103  1.0000
  C   C376      1.0  0.11612  0.52815  0.53515  1.0000
  C   C377      1.0  0.99022  0.62212  0.49151  1.0000
  H   H295      1.0  0.97837  0.51150  0.40113  1.0000
  H   H296      1.0  0.38676  0.96012  0.52821  1.0000
  C   C378      1.0  0.01806  0.53044  0.37935  1.0000
  C   C379      1.0  0.08055  0.62013  0.53009  1.0000
  H   H297      1.0  0.13682  0.57822  0.37370  1.0000
  C   C380      1.0  0.02662  0.50615  0.58115  1.0000
  H   H298      1.0  0.04119  0.51994  0.46599  1.0000
  H   H299      1.0  0.08307  0.64022  0.52359  1.0000
  H   H300      1.0  0.09903  0.48901  0.38811  1.0000
  H   H301      1.0  0.05358  0.55051  0.35180  1.0000
  C   C381      1.0  0.32648  0.95681  0.48501  1.0000
  S   S74       1.0  0.99431  0.63953  0.43733  1.0000
  P   P13       1.0  0.03875  0.53091  0.40821  1.0000
  H   H302      1.0  0.42925  0.96218  0.59552  1.0000
  Fe  Fe34      1.0  0.35900  0.94461  0.60117  1.0000
  C   C382      1.0  0.09423  0.55762  0.38912  1.0000
  C   C383      1.0  0.30836  0.93495  0.50222  1.0000
  H   H303      1.0  0.03947  0.55553  0.64570  1.0000
  H   H304      1.0  0.12532  0.63509  0.53145  1.0000
  C   C384      1.0  0.44653  0.51199  0.52857  1.0000
  C   C385      1.0  0.01821  0.58202  0.59626  1.0000
  C   C386      1.0  0.10085  0.59157  0.54362  1.0000
  H   H305      1.0  0.23942  0.88166  0.49032  1.0000
  C   C387      1.0  0.01907  0.49989  0.42880  1.0000
  H   H306      1.0  0.17142  0.63003  0.64870  1.0000
  C   C388      1.0  0.12074  0.53373  0.37996  1.0000
  C   C389      1.0  0.07058  0.57339  0.44585  1.0000
  C   C390      1.0  0.04701  0.56172  0.42847  1.0000
  C   C391      1.0  0.02947  0.57375  0.42775  1.0000
  C   C392      1.0  0.03536  0.59692  0.44409  1.0000
  C   C393      1.0  0.05874  0.60835  0.46135  1.0000
  C   C394      1.0  0.07637  0.59660  0.46222  1.0000
  H   H307      1.0  0.03334  0.59899  0.58374  1.0000
  C   C395      1.0  0.07285  0.50727  0.39693  1.0000
  C   C396      1.0  0.00602  0.55375  0.58791  1.0000
  C   C397      1.0  0.04996  0.57198  0.54555  1.0000
  H   H308      1.0  0.01104  0.56535  0.41484  1.0000
  H   H309      1.0  0.11936  0.58963  0.54730  1.0000
  H   H310      1.0  0.06308  0.62634  0.47397  1.0000
  S   S75       1.0  0.14688  0.69430  0.63285  1.0000
  H   H311      1.0  0.01416  0.53755  0.49709  1.0000
  H   H312      1.0  0.07207  0.55015  0.55803  1.0000
  H   H313      1.0  0.02169  0.60601  0.44333  1.0000
  C   C398      1.0  0.45811  0.97996  0.56225  1.0000
  C   C399      1.0  0.09773  0.50821  0.38840  1.0000
  H   H314      1.0  0.43865  0.51892  0.54527  1.0000
  C   C400      1.0  0.07091  0.53200  0.39738  1.0000
  H   H315      1.0  0.13989  0.53432  0.37308  1.0000
  C   C401      1.0  0.24766  0.90113  0.59439  1.0000
  C   C402      1.0  0.24849  0.90876  0.62152  1.0000
  C   C403      1.0  0.99635  0.54013  0.50247  1.0000
  C   C404      1.0  0.05352  0.59742  0.53506  1.0000
  H   H316      1.0  0.09311  0.57690  0.38914  1.0000
  H   H317      1.0  0.44721  0.58529  0.57862  1.0000
  H   H318      1.0  0.44995  0.86947  0.58533  1.0000
  P   P14       1.0  0.01502  0.54472  0.55562  1.0000
  C   C405      1.0  0.28635  0.94803  0.58448  1.0000
  C   C406      1.0  0.03118  0.54231  0.35459  1.0000
  H   H319      1.0  0.25893  0.49502  0.60040  1.0000
  C   C407      1.0  0.44792  0.91052  0.48556  1.0000
  H   H320      1.0  0.43579  0.96379  0.50282  1.0000
  H   H321      1.0  0.21621  0.53280  0.42768  1.0000
  C   C408      1.0  0.02552  0.50062  0.45641  1.0000
  C   C409      1.0  0.17724  0.50936  0.44971  1.0000
  H   H322      1.0  0.16890  0.89797  0.53825  1.0000
  C   C410      1.0  0.19755  0.87611  0.48937  1.0000
  C   C411      1.0  0.17761  0.88059  0.50286  1.0000
  C   C412      1.0  0.18431  0.89434  0.52790  1.0000
  C   C413      1.0  0.21085  0.90343  0.53960  1.0000
  C   C414      1.0  0.23074  0.89840  0.52644  1.0000
  C   C415      1.0  0.22409  0.88515  0.50103  1.0000
  P   P15       1.0  0.26522  0.91005  0.54088  1.0000
  C   C416      1.0  0.27211  0.88102  0.54268  1.0000
  H   H323      1.0  0.45700  0.94941  0.42702  1.0000
  H   H324      1.0  0.02033  0.61081  0.62716  1.0000
  H   H325      1.0  0.12602  0.52764  0.45429  1.0000
  C   C417      1.0  0.28894  0.96371  0.51821  1.0000
  H   H326      1.0  0.33032  0.50427  0.64892  1.0000
  H   H327      1.0  0.30198  0.96323  0.57085  1.0000
  C   C418      1.0  0.29954  0.88631  0.54844  1.0000
  C   C419      1.0  0.30489  0.86387  0.55069  1.0000
  C   C420      1.0  0.28281  0.83604  0.54801  1.0000
  C   C421      1.0  0.25529  0.83056  0.54323  1.0000
  C   C422      1.0  0.24988  0.85293  0.54067  1.0000
  C   C423      1.0  0.46019  0.88739  0.59887  1.0000
  C   C424      1.0  0.11242  0.49161  0.50460  1.0000
  H   H328      1.0  0.23425  0.89333  0.63595  1.0000
  C   C425      1.0  0.43325  0.92511  0.48967  1.0000
  H   H329      1.0  0.30270  0.97657  0.61829  1.0000
  H   H330      1.0  0.23263  0.87976  0.58810  1.0000
  H   H331      1.0  0.19243  0.86561  0.46988  1.0000
  H   H332      1.0  0.15700  0.87347  0.49387  1.0000
  C   C426      1.0  0.19076  0.55283  0.42555  1.0000
  H   H333      1.0  0.21569  0.91436  0.55882  1.0000
  C   C427      1.0  0.99122  0.54365  0.52963  1.0000
  H   H334      1.0  0.20591  0.57029  0.41335  1.0000
  C   C428      1.0  0.28981  0.93845  0.51939  1.0000
  C   C429      1.0  0.98604  0.53240  0.60469  1.0000
  H   H335      1.0  0.98709  0.61077  0.53376  1.0000
  H   H336      1.0  0.30885  0.91542  0.50184  1.0000
  H   H337      1.0  0.31670  0.90776  0.55154  1.0000
  H   H338      1.0  0.32594  0.86788  0.55551  1.0000
  H   H339      1.0  0.28683  0.81868  0.55094  1.0000
  H   H340      1.0  0.23799  0.80893  0.54250  1.0000
  H   H341      1.0  0.22823  0.84807  0.53793  1.0000
  C   C430      1.0  0.97880  0.53927  0.62958  1.0000
  H   H342      1.0  0.98217  0.53689  0.46116  1.0000
  H   H343      1.0  0.25528  0.51777  0.64267  1.0000
  C   C431      1.0  0.44755  0.95294  0.49919  1.0000
  C   C432      1.0  0.28698  0.95566  0.61158  1.0000
  H   H344      1.0  0.43600  0.49381  0.44009  1.0000
  H   H345      1.0  0.43671  0.88878  0.47863  1.0000
  H   H346      1.0  0.26911  0.94181  0.65123  1.0000
  C   C433      1.0  0.26636  0.92082  0.57560  1.0000
  H   H347      1.0  0.46172  0.96220  0.56141  1.0000
  H   H348      1.0  0.27424  0.96657  0.53068  1.0000
  C   C434      1.0  0.11901  0.55844  0.38036  1.0000
  C   C435      1.0  0.12684  0.51977  0.51359  1.0000
  C   C436      1.0  0.09138  0.50839  0.54813  1.0000
  C   C437      1.0  0.01275  0.51065  0.55939  1.0000
  S   S76       1.0  0.36181  0.97868  0.57137  1.0000
  C   C438      1.0  0.97856  0.54009  0.48207  1.0000
  C   C439      1.0  0.46728  0.49378  0.48570  1.0000
  H   H349      1.0  0.37908  0.53093  0.63193  1.0000
  H   H350      1.0  0.03965  0.52321  0.59494  1.0000
  H   H351      1.0  0.14679  0.53505  0.50475  1.0000
  C   C440      1.0  0.01550  0.54445  0.33323  1.0000
  C   C441      1.0  0.19660  0.53176  0.43369  1.0000
  H   H352      1.0  0.27564  0.48785  0.65399  1.0000
  C   C442      1.0  0.47205  0.53087  0.51620  1.0000
  C   C443      1.0  0.99541  0.48782  0.54235  1.0000
  C   C444      1.0  0.15199  0.50808  0.45788  1.0000
  C   C445      1.0  0.38845  0.97991  0.52213  1.0000
  H   H353      1.0  0.97598  0.51044  0.59857  1.0000
  H   H354      1.0  0.40673  0.98067  0.48308  1.0000
  H   H355      1.0  0.18203  0.49311  0.45567  1.0000
  C   C446      1.0  0.43102  0.48421  0.51924  1.0000
  H   H356      1.0  0.98370  0.49021  0.52593  1.0000
  C   C447      1.0  0.47424  0.54687  0.62523  1.0000
  H   H357      1.0  0.45404  0.98100  0.39277  1.0000
  C   C448      1.0  0.43931  0.97962  0.58155  1.0000
  C   C449      1.0  0.32601  0.98214  0.48452  1.0000
  S   S77       1.0  0.33101  0.93711  0.70259  1.0000
  Fe  Fe35      1.0  0.36836  0.93900  0.86310  1.0000
  S   S78       1.0  0.34967  0.89331  0.87430  1.0000
  C   C450      1.0  0.27516  0.86354  0.73369  1.0000
  Fe  Fe36      1.0  0.36684  0.95710  0.92350  1.0000
  S   S79       1.0  0.34636  0.91188  0.93730  1.0000
  Fe  Fe37      1.0  0.37828  0.90899  0.91058  1.0000
  S   S80       1.0  0.40188  0.88694  0.92516  1.0000
  Fe  Fe38      1.0  0.31949  0.90015  0.89952  1.0000
  S   S81       1.0  0.27175  0.87091  0.89479  1.0000
  S   S82       1.0  0.39945  0.95433  0.89787  1.0000
  S   S83       1.0  0.33726  0.94587  0.88722  1.0000
  C   C451      1.0  0.19125  0.57008  0.83939  1.0000
  S   S84       1.0  0.09201  0.65943  0.69000  1.0000
  C   C452      1.0  0.44978  0.91234  0.70558  1.0000
  Fe  Fe39      1.0  0.14952  0.70761  0.88867  1.0000
  S   S85       1.0  0.11342  0.71679  0.88875  1.0000
  S   S86       1.0  0.19685  0.73624  0.89738  1.0000
  Fe  Fe40      1.0  0.11087  0.64683  0.86874  1.0000
  S   S87       1.0  0.07308  0.65256  0.86729  1.0000
  S   S88       1.0  0.10470  0.60634  0.85015  1.0000
  Fe  Fe41      1.0  0.10237  0.69429  0.84798  1.0000
  S   S89       1.0  0.09409  0.71010  0.80788  1.0000
  Fe  Fe42      1.0  0.08726  0.67335  0.90835  1.0000
  S   S90       1.0  0.05236  0.65195  0.94134  1.0000
  S   S91       1.0  0.13940  0.68744  0.84761  1.0000
  S   S92       1.0  0.12433  0.66562  0.91013  1.0000
  C   C453      1.0  0.25930  0.87611  0.79655  1.0000
  H   H358      1.0  0.98568  0.57290  0.65702  1.0000
  C   C454      1.0  0.46962  0.90229  0.82647  1.0000
  C   C455      1.0  0.11683  0.54330  0.90063  1.0000
  C   C456      1.0  0.12455  0.56997  0.91132  1.0000
  C   C457      1.0  0.11998  0.58920  0.89643  1.0000
  C   C458      1.0  0.10805  0.58189  0.87060  1.0000
  C   C459      1.0  0.09983  0.55499  0.86015  1.0000
  C   C460      1.0  0.10393  0.53560  0.87524  1.0000
  H   H359      1.0  0.13454  0.57593  0.93096  1.0000
  H   H360      1.0  0.12625  0.60984  0.90473  1.0000
  H   H361      1.0  0.09044  0.54916  0.84027  1.0000
  H   H362      1.0  0.09762  0.51491  0.86706  1.0000
  C   C461      1.0  0.09486  0.67570  0.72215  1.0000
  C   C462      1.0  0.08951  0.69805  0.72573  1.0000
  C   C463      1.0  0.08938  0.70836  0.75198  1.0000
  C   C464      1.0  0.09517  0.69692  0.77500  1.0000
  C   C465      1.0  0.10137  0.67517  0.77131  1.0000
  C   C466      1.0  0.10064  0.66428  0.74519  1.0000
  H   H363      1.0  0.08462  0.70685  0.70835  1.0000
  H   H364      1.0  0.08454  0.72518  0.75448  1.0000
  H   H365      1.0  0.10626  0.66643  0.78868  1.0000
  H   H366      1.0  0.10469  0.64693  0.74286  1.0000
  C   C467      1.0  0.41855  0.55454  0.91128  1.0000
  C   C468      1.0  0.42176  0.57424  0.93102  1.0000
  C   C469      1.0  0.44170  0.55983  0.89485  1.0000
  C   C470      1.0  0.29645  0.53001  0.71006  1.0000
  H   H367      1.0  0.43936  0.54461  0.87960  1.0000
  C   C471      1.0  0.25185  0.83338  0.89341  1.0000
  C   C472      1.0  0.22282  0.82009  0.88719  1.0000
  C   C473      1.0  0.20585  0.79037  0.88729  1.0000
  C   C474      1.0  0.21770  0.77359  0.89398  1.0000
  C   C475      1.0  0.24689  0.78687  0.89954  1.0000
  C   C476      1.0  0.26392  0.81657  0.89908  1.0000
  H   H368      1.0  0.21326  0.83286  0.88268  1.0000
  H   H369      1.0  0.18345  0.78052  0.88301  1.0000
  H   H370      1.0  0.25626  0.77411  0.90478  1.0000
  H   H371      1.0  0.28623  0.82645  0.90366  1.0000
  C   C477      1.0  0.43813  0.90342  0.91662  1.0000
  C   C478      1.0  0.45085  0.92874  0.90232  1.0000
  H   H372      1.0  0.03595  0.49124  0.82639  1.0000
  C   C479      1.0  0.03433  0.57878  0.89087  1.0000
  H   H373      1.0  0.43909  0.93904  0.89737  1.0000
  H   H374      1.0  0.26258  0.81818  0.83567  1.0000
  H   H375      1.0  0.44471  0.87113  0.93451  1.0000
  C   C480      1.0  0.34529  0.93838  0.73530  1.0000
  C   C481      1.0  0.37183  0.94075  0.73875  1.0000
  C   C482      1.0  0.38342  0.94385  0.76491  1.0000
  C   C483      1.0  0.36838  0.94388  0.78799  1.0000
  H   H376      1.0  0.06838  0.60381  0.71882  1.0000
  C   C484      1.0  0.19964  0.57807  0.81248  1.0000
  C   C485      1.0  0.46262  0.60791  0.70190  1.0000
  C   C486      1.0  0.29722  0.84717  0.96334  1.0000
  H   H377      1.0  0.32885  0.62969  0.83863  1.0000
  C   C487      1.0  0.04929  0.48645  0.92760  1.0000
  C   C488      1.0  0.46786  0.58511  0.74196  1.0000
  H   H378      1.0  0.00519  0.60715  0.97035  1.0000
  C   C489      1.0  0.44091  0.88260  0.83028  1.0000
  H   H379      1.0  0.31474  0.86609  0.76831  1.0000
  H   H380      1.0  0.35310  0.52153  0.81735  1.0000
  H   H381      1.0  0.27157  0.48812  0.74655  1.0000
  C   C490      1.0  0.43126  0.92127  0.83492  1.0000
  C   C491      1.0  0.42174  0.89235  0.83436  1.0000
  H   H382      1.0  0.32777  0.84218  0.93997  1.0000
  S   S93       1.0  0.38478  0.52427  0.90830  1.0000
  C   C492      1.0  0.42531  0.83928  0.79116  1.0000
  H   H383      1.0  0.24364  0.68647  0.90218  1.0000
  H   H384      1.0  0.46473  0.84151  0.73665  1.0000
  C   C493      1.0  0.42234  0.83469  0.73454  1.0000
  C   C494      1.0  0.39941  0.83247  0.74918  1.0000
  C   C495      1.0  0.40097  0.83506  0.77737  1.0000
  P   P16       1.0  0.42848  0.84528  0.82721  1.0000
  H   H385      1.0  0.41965  0.54565  0.66298  1.0000
  C   C496      1.0  0.31143  0.85443  0.78678  1.0000
  C   C497      1.0  0.28481  0.84059  0.79938  1.0000
  H   H386      1.0  0.41659  0.92863  0.83922  1.0000
  H   H387      1.0  0.39945  0.87786  0.83719  1.0000
  H   H388      1.0  0.40930  0.85365  0.87967  1.0000
  H   H389      1.0  0.22003  0.59604  0.80788  1.0000
  S   S94       1.0  0.12460  0.52050  0.91893  1.0000
  C   C498      1.0  0.04822  0.49874  0.80799  1.0000
  C   C499      1.0  0.46678  0.91410  0.72762  1.0000
  H   H390      1.0  0.38069  0.82943  0.73857  1.0000
  H   H391      1.0  0.38348  0.83443  0.78830  1.0000
  C   C500      1.0  0.15794  0.65290  0.67446  1.0000
  C   C501      1.0  0.43297  0.49760  0.93727  1.0000
  H   H392      1.0  0.28865  0.56464  0.71636  1.0000
  C   C502      1.0  0.21549  0.68925  0.68471  1.0000
  C   C503      1.0  0.19538  0.69518  0.69594  1.0000
  C   C504      1.0  0.16653  0.67640  0.69131  1.0000
  P   P17       1.0  0.20592  0.72482  0.71846  1.0000
  C   C505      1.0  0.18198  0.73831  0.71389  1.0000
  C   C506      1.0  0.20338  0.71080  0.75201  1.0000
  C   C507      1.0  0.17659  0.69341  0.76326  1.0000
  C   C508      1.0  0.17396  0.68201  0.78903  1.0000
  C   C509      1.0  0.19809  0.68776  0.80380  1.0000
  C   C510      1.0  0.22486  0.70420  0.79239  1.0000
  C   C511      1.0  0.22752  0.71531  0.76638  1.0000
  C   C512      1.0  0.17107  0.74580  0.73612  1.0000
  C   C513      1.0  0.15338  0.75718  0.73208  1.0000
  C   C514      1.0  0.14633  0.76103  0.70586  1.0000
  C   C515      1.0  0.43025  0.56283  0.79032  1.0000
  C   C516      1.0  0.17529  0.74284  0.68765  1.0000
  C   C517      1.0  0.24018  0.75447  0.71015  1.0000
  H   H393      1.0  0.17666  0.50114  0.79517  1.0000
  C   C518      1.0  0.27787  0.50382  0.66838  1.0000
  C   C519      1.0  0.18706  0.48907  0.79941  1.0000
  C   C520      1.0  0.28221  0.79827  0.72338  1.0000
  C   C521      1.0  0.25662  0.77424  0.73013  1.0000
  C   C522      1.0  0.31318  0.94028  0.97977  1.0000
  H   H394      1.0  0.20360  0.53344  0.87782  1.0000
  C   C523      1.0  0.15733  0.75390  0.68365  1.0000
  C   C524      1.0  0.20471  0.83782  0.97404  1.0000
  H   H395      1.0  0.15059  0.68012  0.70030  1.0000
  H   H396      1.0  0.15769  0.68864  0.75203  1.0000
  H   H397      1.0  0.15311  0.66844  0.79740  1.0000
  H   H398      1.0  0.19593  0.67918  0.82393  1.0000
  H   H399      1.0  0.24352  0.70820  0.80370  1.0000
  H   H400      1.0  0.24833  0.72714  0.75751  1.0000
  H   H401      1.0  0.17614  0.74302  0.75658  1.0000
  H   H402      1.0  0.14457  0.76239  0.74933  1.0000
  C   C525      1.0  0.19013  0.53602  0.94435  1.0000
  H   H403      1.0  0.45700  0.60930  0.82573  1.0000
  C   C526      1.0  0.36578  0.51364  0.70832  1.0000
  H   H404      1.0  0.26155  0.55619  0.67364  1.0000
  H   H405      1.0  0.28165  0.78805  0.65560  1.0000
  C   C527      1.0  0.46021  0.60362  0.72987  1.0000
  H   H406      1.0  0.29453  0.81369  0.73876  1.0000
  H   H407      1.0  0.24922  0.77168  0.75074  1.0000
  C   C528      1.0  0.37964  0.54219  0.78296  1.0000
  C   C529      1.0  0.37457  0.53322  0.80983  1.0000
  C   C530      1.0  0.39720  0.53899  0.82697  1.0000
  C   C531      1.0  0.01408  0.62552  0.98340  1.0000
  H   H408      1.0  0.46890  0.88228  0.67955  1.0000
  C   C532      1.0  0.40738  0.55701  0.77320  1.0000
  C   C533      1.0  0.19416  0.52563  0.91997  1.0000
  C   C534      1.0  0.47090  0.60451  0.91853  1.0000
  C   C535      1.0  0.04571  0.55709  0.66671  1.0000
  H   H409      1.0  0.24182  0.88357  0.76013  1.0000
  C   C536      1.0  0.17518  0.79651  0.81729  1.0000
  C   C537      1.0  0.07537  0.57811  0.97124  1.0000
  H   H410      1.0  0.29154  0.88232  0.74347  1.0000
  C   C538      1.0  0.18155  0.56283  0.79110  1.0000
  C   C539      1.0  0.29129  0.80307  0.69653  1.0000
  C   C540      1.0  0.45974  0.94073  0.83060  1.0000
  C   C541      1.0  0.44771  0.59888  0.93471  1.0000
  H   H411      1.0  0.18911  0.57060  0.96415  1.0000
  C   C542      1.0  0.47302  0.59406  0.68586  1.0000
  H   H412      1.0  0.15195  0.75216  0.82692  1.0000
  C   C543      1.0  0.42488  0.55345  0.81721  1.0000
  C   C544      1.0  0.42722  0.90280  0.75759  1.0000
  C   C545      1.0  0.36686  0.81953  0.88477  1.0000
  H   H413      1.0  0.36200  0.53737  0.76969  1.0000
  H   H414      1.0  0.39328  0.53197  0.84781  1.0000
  C   C546      1.0  0.46704  0.53123  0.78553  1.0000
  C   C547      1.0  0.44839  0.84185  0.77626  1.0000
  H   H415      1.0  0.30453  0.65507  0.82235  1.0000
  C   C548      1.0  0.00695  0.57472  0.89085  1.0000
  H   H416      1.0  0.36280  0.50933  0.72969  1.0000
  C   C549      1.0  0.04687  0.51044  0.93224  1.0000
  C   C550      1.0  0.20439  0.49535  0.82213  1.0000
  C   C551      1.0  0.39570  0.82512  0.84532  1.0000
  C   C552      1.0  0.39347  0.52848  0.69838  1.0000
  C   C553      1.0  0.19319  0.56297  0.94543  1.0000
  H   H417      1.0  0.37640  0.79127  0.81588  1.0000
  C   C554      1.0  0.27481  0.78386  0.67647  1.0000
  H   H418      1.0  0.46702  0.96316  0.83143  1.0000
  C   C555      1.0  0.33474  0.85448  0.79869  1.0000
  H   H419      1.0  0.16192  0.82324  0.96077  1.0000
  P   P18       1.0  0.21383  0.59065  0.86717  1.0000
  C   C556      1.0  0.20455  0.56936  0.89751  1.0000
  C   C557      1.0  0.25033  0.60279  0.85827  1.0000
  C   C558      1.0  0.26511  0.62686  0.84198  1.0000
  C   C559      1.0  0.29328  0.63650  0.83490  1.0000
  C   C560      1.0  0.30699  0.62221  0.84404  1.0000
  C   C561      1.0  0.29253  0.59830  0.86026  1.0000
  C   C562      1.0  0.26435  0.58861  0.86738  1.0000
  C   C563      1.0  0.20033  0.57960  0.92213  1.0000
  C   C564      1.0  0.26671  0.52116  0.66158  1.0000
  H   H420      1.0  0.45852  0.91724  0.68543  1.0000
  H   H421      1.0  0.41127  0.53482  0.71191  1.0000
  C   C565      1.0  0.20113  0.54211  0.89662  1.0000
  C   C566      1.0  0.20954  0.62096  0.87305  1.0000
  C   C567      1.0  0.18449  0.62047  0.86548  1.0000
  C   C568      1.0  0.18111  0.64379  0.87072  1.0000
  C   C569      1.0  0.20245  0.66758  0.88379  1.0000
  C   C570      1.0  0.22735  0.66815  0.89161  1.0000
  C   C571      1.0  0.23089  0.64492  0.88634  1.0000
  H   H422      1.0  0.25483  0.63821  0.83474  1.0000
  H   H423      1.0  0.12560  0.51374  0.82708  1.0000
  C   C572      1.0  0.27283  0.91206  0.83138  1.0000
  C   C573      1.0  0.17155  0.76936  0.81904  1.0000
  C   C574      1.0  0.26991  0.88644  0.82249  1.0000
  H   H424      1.0  0.20185  0.60007  0.92345  1.0000
  H   H425      1.0  0.05382  0.59978  0.67122  1.0000
  C   C575      1.0  0.45314  0.83601  0.84175  1.0000
  C   C576      1.0  0.08050  0.60588  0.96864  1.0000
  H   H426      1.0  0.23621  0.74590  0.66701  1.0000
  H   H427      1.0  0.16725  0.60189  0.85614  1.0000
  H   H428      1.0  0.16164  0.64325  0.86514  1.0000
  H   H429      1.0  0.19944  0.68537  0.88823  1.0000
  C   C577      1.0  0.37381  0.79962  0.83485  1.0000
  H   H430      1.0  0.25004  0.64541  0.89309  1.0000
  C   C578      1.0  0.00840  0.57577  0.78191  1.0000
  C   C579      1.0  0.02188  0.60042  0.79744  1.0000
  C   C580      1.0  0.05117  0.61426  0.80090  1.0000
  C   C581      1.0  0.06711  0.60358  0.78891  1.0000
  C   C582      1.0  0.05380  0.57908  0.77296  1.0000
  C   C583      1.0  0.02429  0.56515  0.76965  1.0000
  P   P19       1.0  0.07380  0.56551  0.75592  1.0000
  C   C584      1.0  0.11143  0.58932  0.75926  1.0000
  C   C585      1.0  0.06748  0.53294  0.77144  1.0000
  C   C586      1.0  0.08125  0.51891  0.76139  1.0000
  H   H431      1.0  0.18375  0.52282  0.96219  1.0000
  H   H432      1.0  0.09474  0.52683  0.74377  1.0000
  Fe  Fe43      1.0  0.34709  0.92901  0.66268  1.0000
  C   C587      1.0  0.05115  0.52284  0.79505  1.0000
  C   C588      1.0  0.12455  0.59151  0.78428  1.0000
  C   C589      1.0  0.15375  0.60884  0.78724  1.0000
  C   C590      1.0  0.17022  0.62385  0.76512  1.0000
  C   C591      1.0  0.15741  0.62177  0.74010  1.0000
  C   C592      1.0  0.12810  0.60464  0.73711  1.0000
  C   C593      1.0  0.06307  0.56177  0.72085  1.0000
  C   C594      1.0  0.05469  0.53666  0.70635  1.0000
  H   H433      1.0  0.19115  0.50447  0.91903  1.0000
  H   H434      1.0  0.05454  0.51870  0.71563  1.0000
  C   C595      1.0  0.05379  0.58201  0.68104  1.0000
  C   C596      1.0  0.06227  0.58430  0.70802  1.0000
  P   P20       1.0  0.30637  0.48498  0.70220  1.0000
  C   C597      1.0  0.28536  0.54742  0.70315  1.0000
  H   H435      1.0  0.06164  0.63361  0.81255  1.0000
  H   H436      1.0  0.08976  0.61476  0.79193  1.0000
  H   H437      1.0  0.01366  0.54621  0.75738  1.0000
  C   C598      1.0  0.17810  0.64780  0.66239  1.0000
  C   C599      1.0  0.25297  0.83905  0.69207  1.0000
  H   H438      1.0  0.15834  0.80022  0.82382  1.0000
  H   H439      1.0  0.40777  0.50899  0.96147  1.0000
  H   H440      1.0  0.04128  0.53385  0.80403  1.0000
  H   H441      1.0  0.11211  0.57985  0.80159  1.0000
  H   H442      1.0  0.16345  0.61052  0.80677  1.0000
  H   H443      1.0  0.19285  0.63732  0.76739  1.0000
  H   H444      1.0  0.17021  0.63337  0.72297  1.0000
  H   H445      1.0  0.11876  0.60329  0.71747  1.0000
  H   H446      1.0  0.25266  0.83806  0.67017  1.0000
  C   C600      1.0  0.25080  0.89140  0.77994  1.0000
  H   H447      1.0  0.30335  0.81752  0.85572  1.0000
  C   C601      1.0  0.42043  0.49872  0.96142  1.0000
  H   H448      1.0  0.43929  0.79844  0.81726  1.0000
  C   C602      1.0  0.03778  0.65078  0.97439  1.0000
  S   S95       1.0  0.38568  0.95140  0.81998  1.0000
  C   C603      1.0  0.23209  0.81825  0.73522  1.0000
  H   H449      1.0  0.35535  0.86608  0.78930  1.0000
  C   C604      1.0  0.10750  0.62882  0.97323  1.0000
  H   H450      1.0  0.21510  0.80113  0.74615  1.0000
  H   H451      1.0  0.44214  0.55730  0.83066  1.0000
  C   C605      1.0  0.33171  0.84071  0.82326  1.0000
  H   H452      1.0  0.34984  0.84132  0.83287  1.0000
  C   C606      1.0  0.39232  0.83453  0.87073  1.0000
  H   H453      1.0  0.41866  0.89985  0.77780  1.0000
  C   C607      1.0  0.30549  0.82723  0.83615  1.0000
  C   C608      1.0  0.99904  0.55370  0.93540  1.0000
  C   C609      1.0  0.34480  0.79464  0.87386  1.0000
  H   H454      1.0  0.36440  0.82734  0.90418  1.0000
  H   H455      1.0  0.23488  0.78237  0.79416  1.0000
  H   H456      1.0  0.31404  0.96629  0.94676  1.0000
  C   C610      1.0  0.28224  0.82742  0.82447  1.0000
  C   C611      1.0  0.25429  0.84116  0.74893  1.0000
  H   H457      1.0  0.30318  0.58725  0.86744  1.0000
  C   C612      1.0  0.23149  0.81727  0.70694  1.0000
  H   H458      1.0  0.06356  0.60983  0.96309  1.0000
  H   H459      1.0  0.19030  0.74335  0.81244  1.0000
  P   P21       1.0  0.25502  0.84263  0.78562  1.0000
  C   C613      1.0  0.15489  0.53968  0.79640  1.0000
  H   H460      1.0  0.45671  0.91468  0.98484  1.0000
  H   H461      1.0  0.15695  0.54082  0.86495  1.0000
  H   H462      1.0  0.40869  0.90356  0.69205  1.0000
  H   H463      1.0  0.27594  0.87477  0.83601  1.0000
  C   C614      1.0  0.45423  0.89059  0.92311  1.0000
  H   H464      1.0  0.18809  0.56895  0.77038  1.0000
  C   C615      1.0  0.19317  0.76441  0.81077  1.0000
  C   C616      1.0  0.21838  0.78658  0.80052  1.0000
  H   H465      1.0  0.22924  0.48310  0.84645  1.0000
  H   H466      1.0  0.21441  0.79963  0.69641  1.0000
  C   C617      1.0  0.33002  0.93795  0.75841  1.0000
  H   H467      1.0  0.31067  0.82207  0.69101  1.0000
  H   H468      1.0  0.14092  0.52763  0.77992  1.0000
  C   C618      1.0  0.42150  0.90482  0.70935  1.0000
  H   H469      1.0  0.38845  0.89499  0.73832  1.0000
  H   H470      1.0  0.20286  0.83970  0.80625  1.0000
  C   C619      1.0  0.04284  0.51743  0.95857  1.0000
  H   H471      1.0  0.28109  0.91979  0.85146  1.0000
  C   C620      1.0  0.22234  0.81404  0.79893  1.0000
  C   C621      1.0  0.26518  0.89669  0.95485  1.0000
  C   C622      1.0  0.20048  0.81882  0.80731  1.0000
  H   H472      1.0  0.25390  0.57017  0.88008  1.0000
  C   C623      1.0  0.16423  0.54708  0.84445  1.0000
  C   C624      1.0  0.27470  0.86224  0.70544  1.0000
  C   C625      1.0  0.41019  0.90008  0.73537  1.0000
  C   C626      1.0  0.34128  0.94025  0.78463  1.0000
  Fe  Fe44      1.0  0.37354  0.48358  0.88688  1.0000
  H   H473      1.0  0.32508  0.78306  0.88483  1.0000
  H   H474      1.0  0.98569  0.56509  0.77913  1.0000
  C   C627      1.0  0.26508  0.92755  0.81448  1.0000
  C   C628      1.0  0.17494  0.79276  0.95213  1.0000
  C   C629      1.0  0.12493  0.59670  0.98257  1.0000
  C   C630      1.0  0.45528  0.90938  0.75374  1.0000
  H   H475      1.0  0.13562  0.63907  0.67022  1.0000
  H   H476      1.0  0.24782  0.92912  0.77577  1.0000
  C   C631      1.0  0.04424  0.57071  0.91326  1.0000
  H   H477      1.0  0.30869  0.53428  0.72847  1.0000
  C   C632      1.0  0.07786  0.49459  0.77413  1.0000
  S   S96       1.0  0.35758  0.89443  0.65895  1.0000
  H   H478      1.0  0.15497  0.77767  0.94290  1.0000
  C   C633      1.0  0.25397  0.91717  0.78881  1.0000
  C   C634      1.0  0.14626  0.53183  0.82304  1.0000
  C   C635      1.0  0.39827  0.53460  0.67085  1.0000
  C   C636      1.0  0.20685  0.66583  0.66768  1.0000
  H   H479      1.0  0.20777  0.51259  0.83533  1.0000
  C   C637      1.0  0.22696  0.83190  0.97544  1.0000
  H   H480      1.0  0.20732  0.85741  0.98218  1.0000
  C   C638      1.0  0.24920  0.75982  0.68313  1.0000
  H   H481      1.0  0.29104  0.87938  0.69380  1.0000
  C   C639      1.0  0.29188  0.50738  0.69322  1.0000
  H   H482      1.0  0.44981  0.61377  0.95027  1.0000
  H   H483      1.0  0.27160  0.92737  0.92432  1.0000
  H   H484      1.0  0.04814  0.58865  0.87374  1.0000
  H   H485      1.0  0.33139  0.76503  0.84078  1.0000
  H   H486      1.0  0.23780  0.70285  0.68875  1.0000
  H   H487      1.0  0.46782  0.84628  0.78633  1.0000
  H   H488      1.0  0.00975  0.60902  0.80665  1.0000
  H   H489      1.0  0.42131  0.83321  0.71266  1.0000
  C   C640      1.0  0.44818  0.48333  0.93613  1.0000
  C   C641      1.0  0.04622  0.53445  0.67931  1.0000
  H   H490      1.0  0.40403  0.57037  0.94370  1.0000
  H   H491      1.0  0.40441  0.94678  0.76735  1.0000
  H   H492      1.0  0.24731  0.87999  0.94420  1.0000
  H   H493      1.0  0.06578  0.57476  0.91324  1.0000
  C   C642      1.0  0.17892  0.81845  0.96212  1.0000
  H   H494      1.0  0.04861  0.52355  0.91521  1.0000
  C   C643      1.0  0.02665  0.55794  0.93564  1.0000
  H   H495      1.0  0.19350  0.76640  0.94648  1.0000
  H   H496      1.0  0.43007  0.50703  0.91921  1.0000
  H   H497      1.0  0.42434  0.92766  0.97000  1.0000
  H   H498      1.0  0.41071  0.56346  0.75230  1.0000
  H   H499      1.0  0.38374  0.94115  0.72115  1.0000
  H   H500      1.0  0.44567  0.52071  0.77752  1.0000
  C   C644      1.0  0.34834  0.78457  0.84900  1.0000
  C   C645      1.0  0.47057  0.85178  0.86332  1.0000
  H   H501      1.0  0.13210  0.76925  0.70274  1.0000
  H   H502      1.0  0.47010  0.87014  0.87070  1.0000
  C   C646      1.0  0.34262  0.50435  0.69058  1.0000
  C   C647      1.0  0.06151  0.48458  0.79748  1.0000
  C   C648      1.0  0.19673  0.78644  0.95407  1.0000
  H   H503      1.0  0.29017  0.85439  0.94616  1.0000
  C   C649      1.0  0.27903  0.92366  0.94336  1.0000
  H   H504      1.0  0.18412  0.73804  0.67020  1.0000
  C   C650      1.0  0.22276  0.80599  0.96542  1.0000
  H   H505      1.0  0.26759  0.94753  0.82136  1.0000
  C   C651      1.0  0.04196  0.50032  0.98021  1.0000
  C   C652      1.0  0.42351  0.48601  0.98488  1.0000
  H   H506      1.0  0.23930  0.80058  0.96648  1.0000
  H   H507      1.0  0.43407  0.95800  0.72528  1.0000
  C   C653      1.0  0.98931  0.56218  0.91309  1.0000
  C   C654      1.0  0.46790  0.58511  0.89825  1.0000
  H   H508      1.0  0.09467  0.55252  0.97992  1.0000
  P   P22       1.0  0.04029  0.54881  0.96490  1.0000
  H   H509      1.0  0.45263  0.61491  0.74216  1.0000
  H   H510      1.0  0.15074  0.64212  0.98340  1.0000
  H   H511      1.0  0.46725  0.49221  0.79035  1.0000
  C   C655      1.0  0.44682  0.83939  0.74808  1.0000
  C   C656      1.0  0.27528  0.89130  0.97893  1.0000
  H   H512      1.0  0.04044  0.51528  0.66800  1.0000
  C   C657      1.0  0.47183  0.80392  0.84522  1.0000
  C   C658      1.0  0.12977  0.62427  0.98009  1.0000
  C   C659      1.0  0.32794  0.83115  0.98174  1.0000
  C   C660      1.0  0.30297  0.94547  0.95586  1.0000
  C   C661      1.0  0.27023  0.54279  0.67905  1.0000
  C   C662      1.0  0.44718  0.98068  0.72508  1.0000
  C   C663      1.0  0.09783  0.57366  0.97818  1.0000
  H   H513      1.0  0.40732  0.49237  0.73882  1.0000
  H   H514      1.0  0.32953  0.94050  0.80212  1.0000
  H   H515      1.0  0.30951  0.93626  0.75601  1.0000
  H   H516      1.0  0.34461  0.82605  0.97895  1.0000
  C   C664      1.0  0.31841  0.84016  0.95975  1.0000
  P   P23       1.0  0.46636  0.58138  0.77834  1.0000
  C   C665      1.0  0.34773  0.51107  0.66305  1.0000
  H   H517      1.0  0.37387  0.89269  0.97390  1.0000
  H   H518      1.0  0.99961  0.58169  0.87375  1.0000
  H   H519      1.0  0.46059  0.48332  0.84554  1.0000
  H   H520      1.0  0.98517  0.54438  0.95252  1.0000
  C   C666      1.0  0.45334  0.81156  0.83320  1.0000
  H   H521      1.0  0.15194  0.75692  0.66327  1.0000
  H   H522      1.0  0.06699  0.69382  0.98541  1.0000
  H   H523      1.0  0.45680  0.62225  0.69260  1.0000
  H   H524      1.0  0.08812  0.48355  0.76609  1.0000
  H   H525      1.0  0.11103  0.65012  0.97127  1.0000
  H   H526      1.0  0.46794  0.91108  0.77117  1.0000
  H   H527      1.0  0.47230  0.78530  0.83837  1.0000
  H   H528      1.0  0.22238  0.66178  0.65821  1.0000
  H   H529      1.0  0.98973  0.49897  0.98594  1.0000
  H   H530      1.0  0.14219  0.59311  0.98770  1.0000
  S   S97       1.0  0.68050  0.05537  0.30195  1.0000
  S   S98       1.0  0.54022  0.15054  0.09251  1.0000
  Fe  Fe45      1.0  0.68450  0.07112  0.08217  1.0000
  S   S99       1.0  0.67409  0.10360  0.06701  1.0000
  S   S100      1.0  0.67363  0.03040  0.05820  1.0000
  Fe  Fe46      1.0  0.69962  0.09884  0.14016  1.0000
  S   S101      1.0  0.68942  0.13218  0.12741  1.0000
  S   S102      1.0  0.71673  0.10803  0.18369  1.0000
  Fe  Fe47      1.0  0.65152  0.09757  0.10654  1.0000
  S   S103      1.0  0.60528  0.08328  0.11374  1.0000
  Fe  Fe48      1.0  0.71360  0.13552  0.08961  1.0000
  S   S104      1.0  0.74401  0.17991  0.07358  1.0000
  S   S105      1.0  0.66036  0.06389  0.12115  1.0000
  S   S106      1.0  0.72554  0.10337  0.10269  1.0000
  S   S107      1.0  0.51454  0.43417  0.12137  1.0000
  C   C667      1.0  0.93522  0.29133  0.04118  1.0000
  Fe  Fe49      1.0  0.95750  0.35770  0.07827  1.0000
  S   S108      1.0  0.91034  0.33989  0.07230  1.0000
  Fe  Fe50      1.0  0.95032  0.35205  0.14169  1.0000
  S   S109      1.0  0.90365  0.33480  0.13915  1.0000
  C   C668      1.0  0.51632  0.08077  0.20390  1.0000
  Fe  Fe51      1.0  0.90384  0.30797  0.10473  1.0000
  S   S110      1.0  0.87351  0.26016  0.10856  1.0000
  Fe  Fe52      1.0  0.91364  0.36790  0.10742  1.0000
  S   S111      1.0  0.88975  0.39202  0.11034  1.0000
  S   S112      1.0  0.95084  0.32379  0.10864  1.0000
  C   C669      1.0  0.90915  0.42932  0.11100  1.0000
  C   C670      1.0  0.89524  0.44465  0.11636  1.0000
  C   C671      1.0  0.51732  0.08655  0.00766  1.0000
  C   C672      1.0  0.93823  0.44391  0.10621  1.0000
  H   H531      1.0  0.87271  0.43347  0.12007  1.0000
  S   S113      1.0  0.96055  0.38714  0.11205  1.0000
  H   H532      1.0  0.94913  0.43244  0.10183  1.0000
  C   C673      1.0  0.57053  0.47273  0.12520  1.0000
  C   C674      1.0  0.60906  0.42604  0.31096  1.0000
  C   C675      1.0  0.62498  0.47236  0.24621  1.0000
  C   C676      1.0  0.95048  0.34661  0.23312  1.0000
  C   C677      1.0  0.95230  0.34586  0.26183  1.0000
  H   H533      1.0  0.93016  0.33857  0.22334  1.0000
  H   H534      1.0  0.93351  0.33721  0.27412  1.0000
  H   H535      1.0  0.72956  0.04174  0.00994  1.0000
  H   H536      1.0  0.51770  0.08335  0.24731  1.0000
  C   C678      1.0  0.54998  0.44910  0.11109  1.0000
  C   C679      1.0  0.55794  0.43893  0.08879  1.0000
  C   C680      1.0  0.95332  0.46936  0.26548  1.0000
  C   C681      1.0  0.66951  0.03746  0.00260  1.0000
  H   H537      1.0  0.54221  0.42050  0.07801  1.0000
  C   C682      1.0  0.77985  0.20210  0.08400  1.0000
  C   C683      1.0  0.79409  0.23087  0.07679  1.0000
  C   C684      1.0  0.82261  0.24904  0.08428  1.0000
  C   C685      1.0  0.83744  0.23851  0.09873  1.0000
  C   C686      1.0  0.82328  0.20969  0.10571  1.0000
  C   C687      1.0  0.79464  0.19167  0.09866  1.0000
  H   H538      1.0  0.78296  0.23918  0.06532  1.0000
  H   H539      1.0  0.83316  0.27110  0.07864  1.0000
  H   H540      1.0  0.83448  0.20124  0.11685  1.0000
  H   H541      1.0  0.78412  0.16959  0.10415  1.0000
  C   C688      1.0  0.66111  0.01877  0.02445  1.0000
  Fe  Fe53      1.0  0.47959  0.39147  0.10786  1.0000
  H   H542      1.0  0.52641  0.38959  0.16343  1.0000
  C   C689      1.0  0.60574  0.03779  0.04930  1.0000
  C   C690      1.0  0.65540  0.11983  0.20883  1.0000
  H   H543      1.0  0.95854  0.40225  0.31343  1.0000
  C   C691      1.0  0.55858  0.13190  0.09765  1.0000
  C   C692      1.0  0.58808  0.14560  0.09433  1.0000
  C   C693      1.0  0.60291  0.13094  0.09871  1.0000
  C   C694      1.0  0.58817  0.10251  0.10630  1.0000
  C   C695      1.0  0.55869  0.08872  0.10887  1.0000
  C   C696      1.0  0.54400  0.10334  0.10457  1.0000
  H   H544      1.0  0.59949  0.16765  0.08868  1.0000
  H   H545      1.0  0.62567  0.14165  0.09656  1.0000
  H   H546      1.0  0.54716  0.06661  0.11431  1.0000
  H   H547      1.0  0.52136  0.09240  0.10632  1.0000
  C   C697      1.0  0.68787  0.07064  0.26907  1.0000
  C   C698      1.0  0.70438  0.09981  0.26519  1.0000
  C   C699      1.0  0.71234  0.11086  0.23886  1.0000
  C   C700      1.0  0.70320  0.09307  0.21600  1.0000
  C   C701      1.0  0.68560  0.06400  0.21981  1.0000
  C   C702      1.0  0.67819  0.05288  0.24620  1.0000
  H   H548      1.0  0.71188  0.11374  0.28254  1.0000
  H   H549      1.0  0.72598  0.13333  0.23619  1.0000
  H   H550      1.0  0.67885  0.04998  0.20254  1.0000
  H   H551      1.0  0.66549  0.03028  0.24895  1.0000
  H   H552      1.0  0.53413  0.16229  0.26863  1.0000
  C   C703      1.0  0.84640  0.32130  0.18319  1.0000
  C   C704      1.0  0.85047  0.34334  0.16606  1.0000
  C   C705      1.0  0.86130  0.37063  0.17637  1.0000
  C   C706      1.0  0.86820  0.37597  0.20375  1.0000
  C   C707      1.0  0.86431  0.35404  0.22114  1.0000
  C   C708      1.0  0.85314  0.32653  0.21067  1.0000
  P   P24       1.0  0.87287  0.36186  0.25658  1.0000
  C   C709      1.0  0.91059  0.38256  0.26203  1.0000
  C   C710      1.0  0.85554  0.38095  0.26775  1.0000
  C   C711      1.0  0.53602  0.09428  0.02947  1.0000
  C   C712      1.0  0.53725  0.06512  0.30822  1.0000
  H   H553      1.0  0.90713  0.37712  0.30550  1.0000
  C   C713      1.0  0.60991  0.04281  0.28022  1.0000
  C   C714      1.0  0.95166  0.46543  0.29350  1.0000
  C   C715      1.0  0.95332  0.47354  0.10671  1.0000
  H   H554      1.0  0.52957  0.40435  0.31268  1.0000
  H   H555      1.0  0.55844  0.22286  0.01353  1.0000
  C   C716      1.0  0.92954  0.39384  0.24032  1.0000
  C   C717      1.0  0.55878  0.07020  0.00884  1.0000
  C   C718      1.0  0.49050  0.45263  0.20593  1.0000
  H   H556      1.0  0.96311  0.25359  0.08794  1.0000
  C   C719      1.0  0.54804  0.33358  0.15727  1.0000
  C   C720      1.0  0.48972  0.18613  0.31851  1.0000
  H   H557      1.0  0.62042  0.11518  0.25704  1.0000
  H   H558      1.0  0.83840  0.30023  0.17500  1.0000
  H   H559      1.0  0.84582  0.33945  0.14463  1.0000
  H   H560      1.0  0.86475  0.38772  0.16292  1.0000
  H   H561      1.0  0.87676  0.39727  0.21137  1.0000
  H   H562      1.0  0.84950  0.30900  0.22339  1.0000
  C   C721      1.0  0.48201  0.02981  0.07902  1.0000
  H   H563      1.0  0.85382  0.16164  0.16006  1.0000
  C   C722      1.0  0.50556  0.19444  0.29471  1.0000
  C   C723      1.0  0.64456  0.98958  0.01905  1.0000
  C   C724      1.0  0.48572  0.22960  0.19226  1.0000
  H   H564      1.0  0.57021  0.47168  0.19333  1.0000
  C   C725      1.0  0.77753  0.16271  0.27224  1.0000
  H   H565      1.0  0.92212  0.39042  0.21966  1.0000
  C   C726      1.0  0.52099  0.32499  0.14727  1.0000
  P   P25       1.0  0.58560  0.05970  0.00980  1.0000
  H   H566      1.0  0.56644  0.34818  0.14571  1.0000
  C   C727      1.0  0.60630  0.07198  0.24510  1.0000
  H   H567      1.0  0.57227  0.32976  0.18970  1.0000
  C   C728      1.0  0.52688  0.39529  0.18452  1.0000
  C   C729      1.0  0.52937  0.37896  0.20488  1.0000
  C   C730      1.0  0.52965  0.38633  0.23199  1.0000
  C   C731      1.0  0.52679  0.40967  0.23877  1.0000
  C   C732      1.0  0.52429  0.42621  0.21842  1.0000
  C   C733      1.0  0.52458  0.41891  0.19130  1.0000
  P   P26       1.0  0.51942  0.45582  0.22662  1.0000
  H   H568      1.0  0.57974  0.00437  0.10909  1.0000
  C   C734      1.0  0.60336  0.44853  0.23308  1.0000
  C   C735      1.0  0.55127  0.32319  0.18201  1.0000
  C   C736      1.0  0.93377  0.44201  0.18420  1.0000
  C   C737      1.0  0.56811  0.00009  0.17305  1.0000
  C   C738      1.0  0.56620  0.07776  0.20804  1.0000
  C   C739      1.0  0.52743  0.30416  0.19672  1.0000
  C   C740      1.0  0.70840  0.99683  0.00339  1.0000
  C   C741      1.0  0.59278  0.99977  0.16615  1.0000
  C   C742      1.0  0.94310  0.42529  0.17138  1.0000
  H   H569      1.0  0.67821  0.19614  0.28397  1.0000
  C   C743      1.0  0.61695  0.09476  0.26337  1.0000
  C   C744      1.0  0.52123  0.43690  0.02789  1.0000
  H   H570      1.0  0.63833  0.02301  0.16652  1.0000
  C   C745      1.0  0.48482  0.30561  0.25006  1.0000
  C   C746      1.0  0.63299  0.17647  0.28905  1.0000
  H   H571      1.0  0.52576  0.41417  0.25986  1.0000
  H   H572      1.0  0.52244  0.43128  0.17543  1.0000
  C   C747      1.0  0.53728  0.46536  0.03528  1.0000
  C   C748      1.0  0.72513  0.02497  0.99559  1.0000
  H   H573      1.0  0.76577  0.14006  0.27546  1.0000
  C   C749      1.0  0.55727  0.09365  0.30480  1.0000
  C   C750      1.0  0.62806  0.11608  0.01889  1.0000
  C   C751      1.0  0.80372  0.20273  0.24222  1.0000
  H   H574      1.0  0.52777  0.20092  0.29520  1.0000
  H   H575      1.0  0.76577  0.13429  0.14914  1.0000
  H   H576      1.0  0.86166  0.23017  0.25117  1.0000
  C   C752      1.0  0.87343  0.31309  0.27146  1.0000
  H   H577      1.0  0.58655  0.43173  0.24449  1.0000
  C   C753      1.0  0.81498  0.18897  0.18705  1.0000
  H   H578      1.0  0.54209  0.03541  0.05279  1.0000
  H   H579      1.0  0.89072  0.41231  0.29166  1.0000
  H   H580      1.0  0.79280  0.37988  0.26021  1.0000
  C   C754      1.0  0.86710  0.29012  0.28821  1.0000
  H   H581      1.0  0.68257  0.05989  0.00625  1.0000
  C   C755      1.0  0.56863  0.15432  0.26107  1.0000
  C   C756      1.0  0.54686  0.15958  0.25345  1.0000
  C   C757      1.0  0.54059  0.16023  0.22612  1.0000
  C   C758      1.0  0.55600  0.15569  0.20619  1.0000
  C   C759      1.0  0.57758  0.15029  0.21358  1.0000
  C   C760      1.0  0.58360  0.14914  0.24091  1.0000
  H   H582      1.0  0.53453  0.10660  0.04596  1.0000
  H   H583      1.0  0.81006  0.22672  0.15262  1.0000
  H   H584      1.0  0.70014  0.99198  0.02380  1.0000
  C   C761      1.0  0.91039  0.47442  0.11674  1.0000
  H   H585      1.0  0.49152  0.29741  0.31745  1.0000
  H   H586      1.0  0.53030  0.29615  0.21577  1.0000
  H   H587      1.0  0.78427  0.15855  0.23033  1.0000
  H   H588      1.0  0.52320  0.16343  0.22031  1.0000
  H   H589      1.0  0.55072  0.15564  0.18502  1.0000
  H   H590      1.0  0.58901  0.14610  0.19808  1.0000
  H   H591      1.0  0.59933  0.14343  0.24615  1.0000
  C   C762      1.0  0.60340  0.44619  0.20488  1.0000
  C   C763      1.0  0.58624  0.45328  0.07995  1.0000
  C   C764      1.0  0.95563  0.26386  0.07421  1.0000
  C   C765      1.0  0.47576  0.03575  0.05335  1.0000
  C   C766      1.0  0.60968  0.15877  0.30526  1.0000
  H   H592      1.0  0.97061  0.34513  0.99667  1.0000
  C   C767      1.0  0.58360  0.04241  0.04153  1.0000
  C   C768      1.0  0.56858  0.17485  0.31650  1.0000
  C   C769      1.0  0.83840  0.18553  0.18167  1.0000
  C   C770      1.0  0.48602  0.18765  0.05014  1.0000
  C   C771      1.0  0.51381  0.20829  0.00982  1.0000
  C   C772      1.0  0.80003  0.23325  0.19339  1.0000
  C   C773      1.0  0.78629  0.24440  0.20890  1.0000
  C   C774      1.0  0.77251  0.25713  0.19625  1.0000
  C   C775      1.0  0.77219  0.25870  0.16807  1.0000
  C   C776      1.0  0.78573  0.24762  0.15251  1.0000
  C   C777      1.0  0.79964  0.23506  0.16509  1.0000
  H   H593      1.0  0.55980  0.47434  0.03805  1.0000
  H   H594      1.0  0.57919  0.09953  0.30247  1.0000
  C   C778      1.0  0.50871  0.05686  0.31137  1.0000
  C   C779      1.0  0.92131  0.38607  0.28845  1.0000
  H   H595      1.0  0.51837  0.33282  0.12796  1.0000
  H   H596      1.0  0.63028  0.18568  0.27076  1.0000
  H   H597      1.0  0.78593  0.24322  0.23066  1.0000
  H   H598      1.0  0.76190  0.26562  0.20830  1.0000
  H   H599      1.0  0.76140  0.26838  0.15821  1.0000
  H   H600      1.0  0.78540  0.24859  0.13062  1.0000
  H   H601      1.0  0.96257  0.45580  0.30317  1.0000
  H   H602      1.0  0.93689  0.29367  0.21260  1.0000
  C   C780      1.0  0.78609  0.14864  0.15815  1.0000
  H   H603      1.0  0.53118  0.37348  0.24784  1.0000
  H   H604      1.0  0.81661  0.35345  0.24644  1.0000
  C   C781      1.0  0.52785  0.08133  0.22928  1.0000
  C   C782      1.0  0.48818  0.29232  0.29603  1.0000
  C   C783      1.0  0.85144  0.46250  0.18682  1.0000
  H   H605      1.0  0.53144  0.42441  0.02503  1.0000
  C   C784      1.0  0.95272  0.46577  0.19942  1.0000
  H   H606      1.0  0.62125  0.02035  0.07932  1.0000
  C   C785      1.0  0.61915  0.02332  0.17158  1.0000
  H   H607      1.0  0.59276  0.21009  0.28972  1.0000
  C   C786      1.0  0.53816  0.21291  0.02366  1.0000
  H   H608      1.0  0.54035  0.01209  0.09575  1.0000
  C   C787      1.0  0.95872  0.40836  0.24508  1.0000
  H   H609      1.0  0.56460  0.48034  0.14277  1.0000
  H   H610      1.0  0.56125  0.08043  0.25116  1.0000
  C   C788      1.0  0.86948  0.40498  0.28436  1.0000
  H   H611      1.0  0.91162  0.23463  0.08276  1.0000
  H   H612      1.0  0.59231  0.44584  0.06231  1.0000
  C   C789      1.0  0.81426  0.38697  0.26684  1.0000
  H   H613      1.0  0.47658  0.29964  0.15331  1.0000
  H   H614      1.0  0.83349  0.33687  0.30271  1.0000
  C   C790      1.0  0.62476  0.46773  0.18957  1.0000
  C   C791      1.0  0.55965  0.03247  0.05820  1.0000
  C   C792      1.0  0.65581  0.13874  0.01774  1.0000
  C   C793      1.0  0.78821  0.17340  0.24657  1.0000
  C   C794      1.0  0.62035  0.06553  0.29822  1.0000
  C   C795      1.0  0.82832  0.41093  0.28325  1.0000
  C   C796      1.0  0.79729  0.21025  0.28964  1.0000
  C   C797      1.0  0.87141  0.24412  0.23417  1.0000
  H   H615      1.0  0.56999  0.09129  0.04786  1.0000
  H   H616      1.0  0.63254  0.10911  0.30377  1.0000
  C   C798      1.0  0.52014  0.10560  0.30689  1.0000
  H   H617      1.0  0.62626  0.06317  0.31858  1.0000
  Fe  Fe54      1.0  0.49446  0.12954  0.10613  1.0000
  H   H618      1.0  0.58667  0.42785  0.19477  1.0000
  C   C799      1.0  0.50020  0.07710  0.31076  1.0000
  H   H619      1.0  0.60422  0.11722  0.16732  1.0000
  H   H620      1.0  0.50918  0.18632  0.08493  1.0000
  C   C800      1.0  0.89842  0.27872  0.18976  1.0000
  C   C801      1.0  0.59631  0.04790  0.19060  1.0000
  C   C802      1.0  0.95045  0.40059  0.29309  1.0000
  H   H621      1.0  0.77016  0.17195  0.17951  1.0000
  H   H622      1.0  0.91193  0.43652  0.18169  1.0000
  C   C803      1.0  0.96918  0.41178  0.27143  1.0000
  C   C804      1.0  0.83565  0.16400  0.16438  1.0000
  C   C805      1.0  0.53638  0.20467  0.05063  1.0000
  H   H623      1.0  0.51304  0.12088  0.30588  1.0000
  P   P27       1.0  0.81821  0.21683  0.20917  1.0000
  H   H624      1.0  0.49906  0.26587  0.09588  1.0000
  C   C806      1.0  0.67027  0.10946  0.99373  1.0000
  H   H625      1.0  0.87743  0.27778  0.28510  1.0000
  C   C807      1.0  0.51041  0.19242  0.06393  1.0000
  C   C808      1.0  0.52419  0.48166  0.03923  1.0000
  H   H626      1.0  0.56405  0.44817  0.28948  1.0000
  H   H627      1.0  0.58782  0.24468  0.31818  1.0000
  H   H628      1.0  0.49756  0.19850  0.18170  1.0000
  C   C809      1.0  0.86127  0.33010  0.27622  1.0000
  H   H629      1.0  0.49315  0.03481  0.31431  1.0000
  C   C810      1.0  0.60008  0.44325  0.29833  1.0000
  H   H630      1.0  0.90905  0.29166  0.17231  1.0000
  C   C811      1.0  0.55642  0.08589  0.03025  1.0000
  H   H631      1.0  0.53072  0.36045  0.19963  1.0000
  C   C812      1.0  0.96432  0.30224  0.04410  1.0000
  C   C813      1.0  0.90063  0.26271  0.23476  1.0000
  C   C814      1.0  0.92647  0.25303  0.07136  1.0000
  H   H632      1.0  0.62443  0.46622  0.16767  1.0000
  H   H633      1.0  0.48414  0.04343  0.09589  1.0000
  C   C815      1.0  0.86918  0.26045  0.18919  1.0000
  H   H634      1.0  0.50711  0.24698  0.19045  1.0000
  H   H635      1.0  0.83690  0.42910  0.21621  1.0000
  H   H636      1.0  0.50493  0.20087  0.25179  1.0000
  C   C816      1.0  0.47862  0.44007  0.02982  1.0000
  P   P28       1.0  0.59892  0.07687  0.21045  1.0000
  H   H637      1.0  0.65935  0.10788  0.22395  1.0000
  H   H638      1.0  0.91298  0.26353  0.25229  1.0000
  H   H639      1.0  0.85773  0.25934  0.17091  1.0000
  H   H640      1.0  0.77351  0.17274  0.31361  1.0000
  H   H641      1.0  0.80730  0.12894  0.13912  1.0000
  C   C817      1.0  0.54893  0.11416  0.30432  1.0000
  C   C818      1.0  0.57127  0.43505  0.29881  1.0000
  C   C819      1.0  0.91628  0.26664  0.05471  1.0000
  C   C820      1.0  0.62817  0.10962  0.19798  1.0000
  C   C821      1.0  0.52885  0.46941  0.28180  1.0000
  C   C822      1.0  0.62096  0.04740  0.18352  1.0000
  C   C823      1.0  0.50923  0.45261  0.26180  1.0000
  C   C824      1.0  0.85536  0.24300  0.21145  1.0000
  C   C825      1.0  0.49461  0.46852  0.03711  1.0000
  C   C826      1.0  0.50010  0.29527  0.18674  1.0000
  C   C827      1.0  0.55173  0.41019  0.31181  1.0000
  C   C828      1.0  0.47711  0.27834  0.24097  1.0000
  H   H642      1.0  0.88482  0.44272  0.23249  1.0000
  H   H643      1.0  0.89369  0.25860  0.05309  1.0000
  C   C829      1.0  0.78871  0.17014  0.17536  1.0000
  C   C830      1.0  0.78193  0.18109  0.29373  1.0000
  C   C831      1.0  0.66029  0.18285  0.29668  1.0000
  C   C832      1.0  0.62396  0.09149  0.28979  1.0000
  H   H644      1.0  0.66117  0.15869  0.02728  1.0000
  H   H645      1.0  0.64165  0.06542  0.18759  1.0000
  H   H646      1.0  0.55508  0.20772  0.06134  1.0000
  H   H647      1.0  0.62443  0.04508  0.03688  1.0000
  C   C833      1.0  0.84838  0.28378  0.30973  1.0000
  C   C834      1.0  0.85511  0.44713  0.20744  1.0000
  C   C835      1.0  0.52157  0.46469  0.30918  1.0000
  C   C836      1.0  0.90608  0.47812  0.20513  1.0000
  P   P29       1.0  0.57419  0.15046  0.29646  1.0000
  C   C837      1.0  0.55266  0.07980  0.23136  1.0000
  C   C838      1.0  0.58041  0.01429  0.08999  1.0000
  H   H648      1.0  0.59521  0.02810  0.24015  1.0000
  H   H649      1.0  0.92843  0.40700  0.15960  1.0000
  S   S114      1.0  0.48149  0.15090  0.13706  1.0000
  H   H650      1.0  0.49439  0.33307  0.28466  1.0000
  P   P30       1.0  0.62511  0.47627  0.28258  1.0000
  H   H651      1.0  0.69916  0.15241  0.20759  1.0000
  C   C839      1.0  0.48985  0.31242  0.27754  1.0000
  H   H652      1.0  0.55052  0.02331  0.19172  1.0000
  H   H653      1.0  0.48015  0.24985  0.30140  1.0000
  C   C840      1.0  0.88231  0.45492  0.21660  1.0000
  C   C841      1.0  0.64708  0.15046  0.16826  1.0000
  H   H654      1.0  0.52027  0.07758  0.16092  1.0000
  C   C842      1.0  0.60278  0.04592  0.25379  1.0000
  H   H655      1.0  0.50133  0.09282  0.00731  1.0000
  C   C843      1.0  0.56983  0.02390  0.18557  1.0000
  H   H656      1.0  0.64404  0.16175  0.15178  1.0000
  H   H657      1.0  0.61255  0.11928  0.02930  1.0000
  H   H658      1.0  0.69170  0.17998  0.17204  1.0000
  C   C844      1.0  0.62437  0.12496  0.17722  1.0000
  C   C845      1.0  0.48157  0.26544  0.28699  1.0000
  H   H659      1.0  0.88836  0.31801  0.25514  1.0000
  C   C846      1.0  0.82779  0.37202  0.25914  1.0000
  H   H660      1.0  0.80064  0.22433  0.30645  1.0000
  C   C847      1.0  0.52925  0.07805  0.18061  1.0000
  H   H661      1.0  0.71619  0.47691  0.28342  1.0000
  C   C848      1.0  0.67810  0.14526  0.19973  1.0000
  C   C849      1.0  0.67390  0.16073  0.17965  1.0000
  H   H662      1.0  0.82044  0.24370  0.26130  1.0000
  H   H663      1.0  0.60825  0.02308  0.28661  1.0000
  C   C850      1.0  0.60398  0.02359  0.07332  1.0000
  H   H664      1.0  0.92737  0.30253  0.02910  1.0000
  H   H665      1.0  0.81779  0.42242  0.28940  1.0000
  C   C851      1.0  0.55823  0.01866  0.08242  1.0000
  C   C852      1.0  0.80951  0.14560  0.15257  1.0000
  H   H666      1.0  0.97326  0.41554  0.22825  1.0000
  H   H667      1.0  0.85885  0.19949  0.19059  1.0000
  C   C853      1.0  0.49712  0.30590  0.16184  1.0000
  C   C854      1.0  0.55387  0.07619  0.18267  1.0000
  C   C855      1.0  0.91415  0.27978  0.21246  1.0000
  C   C856      1.0  0.80830  0.22106  0.26406  1.0000
  H   H668      1.0  0.83041  0.45646  0.17958  1.0000
  H   H669      1.0  0.56346  0.07374  0.16443  1.0000
  H   H670      1.0  0.48114  0.28470  0.03410  1.0000
  C   C857      1.0  0.84242  0.32359  0.29790  1.0000
  C   C858      1.0  0.85587  0.41988  0.29200  1.0000
  H   H671      1.0  0.48102  0.21466  0.10342  1.0000
  H   H672      1.0  0.49739  0.08253  0.20229  1.0000
  C   C859      1.0  0.49271  0.19445  0.27027  1.0000
  H   H673      1.0  0.47948  0.40229  0.01926  1.0000
  C   C860      1.0  0.48243  0.43085  0.26976  1.0000
  H   H674      1.0  0.86666  0.43823  0.30497  1.0000
  C   C861      1.0  0.47655  0.25162  0.09782  1.0000
  H   H675      1.0  0.96557  0.46257  0.25381  1.0000
  C   C862      1.0  0.49482  0.44311  0.31681  1.0000
  H   H676      1.0  0.57505  0.00100  0.00721  1.0000
  H   H677      1.0  0.69857  0.15279  0.00511  1.0000
  C   C863      1.0  0.67709  0.47777  0.28238  1.0000
  C   C864      1.0  0.58082  0.20316  0.30834  1.0000
  C   C865      1.0  0.62110  0.08982  0.00739  1.0000
  H   H678      1.0  0.49171  0.24724  0.02188  1.0000
  C   C866      1.0  0.67691  0.13544  0.00521  1.0000
  H   H679      1.0  0.48608  0.32128  0.23592  1.0000
  C   C867      1.0  0.97144  0.43237  0.17328  1.0000
  C   C868      1.0  0.49196  0.42438  0.02484  1.0000
  H   H680      1.0  0.63116  0.43196  0.31134  1.0000
  C   C869      1.0  0.48437  0.00578  0.08309  1.0000
  C   C870      1.0  0.97477  0.28831  0.06014  1.0000
  H   H681      1.0  0.54405  0.04955  0.30891  1.0000
  C   C871      1.0  0.64257  0.08675  0.99487  1.0000
  C   C872      1.0  0.83585  0.30035  0.31444  1.0000
  C   C873      1.0  0.48043  0.20214  0.18729  1.0000
  H   H682      1.0  0.48846  0.00086  0.10321  1.0000
  C   C874      1.0  0.49035  0.47666  0.19600  1.0000
  C   C875      1.0  0.93933  0.48201  0.25296  1.0000
  C   C876      1.0  0.93610  0.47408  0.30919  1.0000
  H   H683      1.0  0.66991  0.46533  0.26401  1.0000
  C   C877      1.0  0.48049  0.98766  0.06144  1.0000
  H   H684      1.0  0.52078  0.98287  0.03254  1.0000
  H   H685      1.0  0.48342  0.14004  0.25531  1.0000
  C   C878      1.0  0.60654  0.47768  0.09349  1.0000
  H   H686      1.0  0.47806  0.07066  0.31315  1.0000
  H   H687      1.0  0.48380  0.48017  0.04111  1.0000
  C   C879      1.0  0.48735  0.19482  0.02275  1.0000
  C   C880      1.0  0.47579  0.25837  0.25961  1.0000
  H   H688      1.0  0.51580  0.21541  0.98914  1.0000
  C   C881      1.0  0.47531  0.42616  0.29713  1.0000
  C   C882      1.0  0.66459  0.17236  0.32091  1.0000
  S   S115      1.0  0.53404  0.13765  0.41366  1.0000
  Fe  Fe55      1.0  0.64666  0.09276  0.37496  1.0000
  S   S116      1.0  0.65094  0.05442  0.37114  1.0000
  S   S117      1.0  0.60059  0.07915  0.36795  1.0000
  Fe  Fe56      1.0  0.71098  0.13075  0.37874  1.0000
  S   S118      1.0  0.71860  0.09363  0.37524  1.0000
  S   S119      1.0  0.74107  0.17886  0.37790  1.0000
  Fe  Fe57      1.0  0.68585  0.07896  0.34178  1.0000
  Fe  Fe58      1.0  0.68216  0.07146  0.40521  1.0000
  S   S120      1.0  0.67514  0.03606  0.43586  1.0000
  S   S121      1.0  0.68001  0.11656  0.34390  1.0000
  S   S122      1.0  0.67649  0.10955  0.41041  1.0000
  H   H689      1.0  0.84437  0.26659  0.32326  1.0000
  S   S123      1.0  0.51425  0.43339  0.38788  1.0000
  Fe  Fe59      1.0  0.90467  0.30847  0.38080  1.0000
  S   S124      1.0  0.95188  0.32496  0.38344  1.0000
  S   S125      1.0  0.87537  0.26053  0.38473  1.0000
  Fe  Fe60      1.0  0.91412  0.36780  0.37141  1.0000
  S   S126      1.0  0.89322  0.39319  0.35964  1.0000
  Fe  Fe61      1.0  0.95475  0.35133  0.34700  1.0000
  Fe  Fe62      1.0  0.95457  0.36025  0.40962  1.0000
  S   S127      1.0  0.90800  0.33286  0.34313  1.0000
  S   S128      1.0  0.90697  0.34205  0.40902  1.0000
  C   C883      1.0  0.90218  0.42386  0.37862  1.0000
  C   C884      1.0  0.89343  0.44268  0.36965  1.0000
  H   H690      1.0  0.54395  0.04289  0.44259  1.0000
  C   C885      1.0  0.91785  0.42976  0.40249  1.0000
  H   H691      1.0  0.88101  0.43798  0.35139  1.0000
  H   H692      1.0  0.51502  0.40399  0.49116  1.0000
  H   H693      1.0  0.92418  0.41504  0.40966  1.0000
  C   C886      1.0  0.52759  0.99362  0.41663  1.0000
  S   S129      1.0  0.47609  0.28925  0.38397  1.0000
  C   C887      1.0  0.55143  0.45207  0.38824  1.0000
  C   C888      1.0  0.56741  0.43903  0.38296  1.0000
  C   C889      1.0  0.90356  0.30170  0.47673  1.0000
  H   H694      1.0  0.49679  0.25022  0.37971  1.0000
  H   H695      1.0  0.55688  0.41666  0.37853  1.0000
  C   C890      1.0  0.77862  0.20073  0.37825  1.0000
  C   C891      1.0  0.79677  0.19026  0.38416  1.0000
  C   C892      1.0  0.82627  0.20884  0.38580  1.0000
  C   C893      1.0  0.83807  0.23807  0.38152  1.0000
  C   C894      1.0  0.81996  0.24845  0.37506  1.0000
  C   C895      1.0  0.79046  0.22989  0.37341  1.0000
  H   H696      1.0  0.78807  0.16794  0.38795  1.0000
  H   H697      1.0  0.84005  0.20051  0.39071  1.0000
  H   H698      1.0  0.82866  0.27086  0.37197  1.0000
  H   H699      1.0  0.77664  0.23825  0.36889  1.0000
  C   C896      1.0  0.66161  0.02329  0.46921  1.0000
  C   C897      1.0  0.65697  0.03951  0.48832  1.0000
  C   C898      1.0  0.64701  0.02881  0.51453  1.0000
  H   H700      1.0  0.62209  0.04061  0.44161  1.0000
  H   H701      1.0  0.62139  0.11513  0.46740  1.0000
  H   H702      1.0  0.53684  0.47725  0.32464  1.0000
  H   H703      1.0  0.66193  0.06069  0.48321  1.0000
  H   H704      1.0  0.64410  0.04193  0.52909  1.0000
  C   C899      1.0  0.49154  0.45774  0.46940  1.0000
  C   C900      1.0  0.57415  0.99333  0.37520  1.0000
  C   C901      1.0  0.55261  0.12117  0.40167  1.0000
  C   C902      1.0  0.53919  0.09724  0.38524  1.0000
  C   C903      1.0  0.55421  0.08440  0.37569  1.0000
  C   C904      1.0  0.58279  0.09541  0.38223  1.0000
  C   C905      1.0  0.59639  0.11937  0.39871  1.0000
  C   C906      1.0  0.58126  0.13224  0.40842  1.0000
  H   H705      1.0  0.51737  0.08884  0.37948  1.0000
  C   C907      1.0  0.52561  0.01130  0.39721  1.0000
  H   H706      1.0  0.61850  0.12804  0.40378  1.0000
  H   H707      1.0  0.59178  0.15089  0.42105  1.0000
  S   S130      1.0  0.96132  0.38803  0.37326  1.0000
  C   C908      1.0  0.57916  0.03457  0.53509  1.0000
  C   C909      1.0  0.48434  0.01882  0.46792  1.0000
  H   H708      1.0  0.93201  0.32663  0.50907  1.0000
  C   C910      1.0  0.49933  0.02751  0.49244  1.0000
  H   H709      1.0  0.54007  0.17979  0.37619  1.0000
  C   C911      1.0  0.56323  0.21431  0.34873  1.0000
  H   H710      1.0  0.48986  0.08056  0.62634  1.0000
  S   S131      1.0  0.48543  0.35539  0.35245  1.0000
  H   H711      1.0  0.54370  0.06603  0.36286  1.0000
  C   C912      1.0  0.51755  0.07650  0.47914  1.0000
  C   C913      1.0  0.64147  0.00168  0.52230  1.0000
  C   C914      1.0  0.50270  0.06758  0.45480  1.0000
  C   C915      1.0  0.80291  0.22873  0.47292  1.0000
  H   H712      1.0  0.59841  0.02202  0.56619  1.0000
  H   H713      1.0  0.93501  0.47102  0.33087  1.0000
  H   H714      1.0  0.85884  0.33065  0.53381  1.0000
  C   C916      1.0  0.82726  0.25014  0.48541  1.0000
  H   H715      1.0  0.52693  0.06394  0.51701  1.0000
  H   H716      1.0  0.84366  0.30250  0.43937  1.0000
  C   C917      1.0  0.51915  0.43458  0.46148  1.0000
  C   C918      1.0  0.51126  0.03614  0.60190  1.0000
  C   C919      1.0  0.80729  0.26111  0.43752  1.0000
  C   C920      1.0  0.56646  0.05250  0.44586  1.0000
  C   C921      1.0  0.55381  0.02952  0.52305  1.0000
  H   H717      1.0  0.88573  0.26886  0.52475  1.0000
  H   H718      1.0  0.88719  0.41143  0.45926  1.0000
  H   H719      1.0  0.56117  0.22947  0.36131  1.0000
  C   C922      1.0  0.57817  0.22282  0.32443  1.0000
  H   H720      1.0  0.52323  0.03439  0.58534  1.0000
  C   C923      1.0  0.49240  0.06213  0.62526  1.0000
  C   C924      1.0  0.87070  0.29342  0.58186  1.0000
  C   C925      1.0  0.87866  0.27781  0.56533  1.0000
  C   C926      1.0  0.79289  0.23423  0.44900  1.0000
  C   C927      1.0  0.87846  0.33890  0.48068  1.0000
  C   C928      1.0  0.55125  0.18626  0.35710  1.0000
  C   C929      1.0  0.95217  0.31195  0.48148  1.0000
  P   P31       1.0  0.56213  0.00142  0.42878  1.0000
  C   C930      1.0  0.50783  0.05977  0.60387  1.0000
  C   C931      1.0  0.52752  0.99266  0.55573  1.0000
  C   C932      1.0  0.90531  0.36179  0.47483  1.0000
  Fe  Fe63      1.0  0.48710  0.11654  0.40453  1.0000
  C   C933      1.0  0.59715  0.45511  0.38339  1.0000
  S   S132      1.0  0.62923  0.98969  0.55607  1.0000
  C   C934      1.0  0.85492  0.34291  0.48002  1.0000
  H   H721      1.0  0.55496  0.04132  0.50513  1.0000
  H   H722      1.0  0.92383  0.35946  0.47538  1.0000
  H   H723      1.0  0.77426  0.21755  0.43905  1.0000
  C   C935      1.0  0.49922  0.00673  0.38863  1.0000
  H   H724      1.0  0.53322  0.43113  0.44856  1.0000
  C   C936      1.0  0.57871  0.01863  0.55733  1.0000
  C   C937      1.0  0.55416  0.16662  0.34126  1.0000
  H   H725      1.0  0.83403  0.32569  0.48489  1.0000
  C   C938      1.0  0.90102  0.28647  0.45300  1.0000
  H   H726      1.0  0.54559  0.14527  0.34874  1.0000
  H   H727      1.0  0.83475  0.24532  0.50376  1.0000
  C   C939      1.0  0.92484  0.45442  0.41727  1.0000
  C   C940      1.0  0.88480  0.39139  0.46576  1.0000
  H   H728      1.0  0.54467  0.02906  0.38917  1.0000
  C   C941      1.0  0.49881  0.01457  0.62101  1.0000
  C   C942      1.0  0.83207  0.28230  0.44946  1.0000
  H   H729      1.0  0.96738  0.29550  0.45013  1.0000
  C   C943      1.0  0.48336  0.01687  0.64243  1.0000
  C   C944      1.0  0.47622  0.47799  0.58919  1.0000
  H   H730      1.0  0.55263  0.98460  0.58426  1.0000
  H   H731      1.0  0.49795  0.02086  0.37404  1.0000
  C   C945      1.0  0.51598  0.05661  0.49788  1.0000
  C   C946      1.0  0.65588  0.99604  0.47694  1.0000
  H   H732      1.0  0.59652  0.38817  0.33408  1.0000
  H   H733      1.0  0.79958  0.26533  0.41894  1.0000
  C   C947      1.0  0.87952  0.28116  0.53727  1.0000
  H   H734      1.0  0.56707  0.47496  0.49338  1.0000
  C   C948      1.0  0.48610  0.03879  0.44921  1.0000
  C   C949      1.0  0.90090  0.46764  0.38410  1.0000
  C   C950      1.0  0.58099  0.03773  0.44052  1.0000
  C   C951      1.0  0.85809  0.36901  0.47242  1.0000
  C   C952      1.0  0.86440  0.31581  0.54226  1.0000
  H   H735      1.0  0.51700  0.07620  0.58871  1.0000
  H   H736      1.0  0.83978  0.37177  0.47126  1.0000
  C   C953      1.0  0.84196  0.27718  0.47385  1.0000
  C   C954      1.0  0.92935  0.31444  0.49092  1.0000
  H   H737      1.0  0.85738  0.32449  0.58317  1.0000
  C   C955      1.0  0.61019  0.05121  0.44554  1.0000
  C   C956      1.0  0.57190  0.98881  0.48129  1.0000
  H   H738      1.0  0.79193  0.20774  0.48157  1.0000
  C   C957      1.0  0.86354  0.31238  0.57033  1.0000
  C   C958      1.0  0.91660  0.47354  0.40799  1.0000
  H   H739      1.0  0.50355  0.08300  0.44050  1.0000
  H   H740      1.0  0.87012  0.29085  0.60361  1.0000
  H   H741      1.0  0.63837  0.98520  0.39595  1.0000
  C   C959      1.0  0.52766  0.00896  0.53365  1.0000
  C   C960      1.0  0.55291  0.99753  0.56750  1.0000
  H   H742      1.0  0.88154  0.27654  0.44148  1.0000
  C   C961      1.0  0.58108  0.08038  0.45520  1.0000
  H   H743      1.0  0.50071  0.99579  0.61911  1.0000
  H   H744      1.0  0.57012  0.09216  0.45780  1.0000
  H   H745      1.0  0.64492  0.14780  0.35659  1.0000
  H   H746      1.0  0.49967  0.18636  0.33755  1.0000
  P   P32       1.0  0.87404  0.30470  0.48925  1.0000
  C   C962      1.0  0.61002  0.09342  0.46041  1.0000
  H   H747      1.0  0.64688  0.08881  0.46016  1.0000
  H   H748      1.0  0.60953  0.44507  0.37907  1.0000
  C   C963      1.0  0.50884  0.41929  0.48538  1.0000
  Fe  Fe64      1.0  0.48519  0.38647  0.38160  1.0000
  H   H749      1.0  0.59927  0.05035  0.52673  1.0000
  C   C964      1.0  0.90840  0.38781  0.46716  1.0000
  C   C965      1.0  0.87248  0.30027  0.52551  1.0000
  H   H750      1.0  0.92180  0.27256  0.42505  1.0000
  C   C966      1.0  0.62443  0.07867  0.45602  1.0000
  H   H751      1.0  0.88426  0.26313  0.57425  1.0000
  P   P33       1.0  0.49454  0.00190  0.51819  1.0000
  H   H752      1.0  0.97212  0.32215  0.49231  1.0000
  C   C967      1.0  0.51075  0.45388  0.45369  1.0000
  H   H753      1.0  0.52995  0.09892  0.48349  1.0000
  H   H754      1.0  0.55687  0.99616  0.36869  1.0000
  C   C968      1.0  0.94952  0.29695  0.45773  1.0000
  H   H755      1.0  0.59685  0.13661  0.34333  1.0000
  H   H756      1.0  0.89424  0.48212  0.37696  1.0000
  H   H757      1.0  0.92907  0.40499  0.46169  1.0000
  C   C969      1.0  0.92392  0.28412  0.44358  1.0000
  H   H758      1.0  0.58289  0.01122  0.48535  1.0000
  C   C970      1.0  0.58190  0.99559  0.40260  1.0000
  H   H759      1.0  0.82184  0.29578  0.33154  1.0000
  C   C971      1.0  0.48043  0.04092  0.64504  1.0000
  H   H760      1.0  0.93680  0.45881  0.43584  1.0000
  C   C972      1.0  0.49006  0.42330  0.50143  1.0000
  C   C973      1.0  0.60492  0.99215  0.40984  1.0000
  H   H761      1.0  0.48936  0.43916  0.33804  1.0000
  H   H762      1.0  0.51865  0.46520  0.43491  1.0000
  H   H763      1.0  0.61184  0.99441  0.43067  1.0000
  C   C974      1.0  0.58921  0.98778  0.35555  1.0000
  H   H764      1.0  0.58369  0.98694  0.33440  1.0000
  H   H765      1.0  0.54577  0.37416  0.33481  1.0000
  C   C975      1.0  0.64164  0.15575  0.33765  1.0000
  C   C976      1.0  0.56521  0.48107  0.39409  1.0000
  C   C977      1.0  0.61985  0.98651  0.39019  1.0000
  C   C978      1.0  0.64585  0.98530  0.50318  1.0000
  H   H766      1.0  0.48169  0.41111  0.51975  1.0000
  H   H767      1.0  0.47561  0.19882  0.38900  1.0000
  H   H768      1.0  0.97165  0.42945  0.42315  1.0000
  C   C979      1.0  0.48122  0.44225  0.49338  1.0000
  C   C980      1.0  0.56083  0.39321  0.32433  1.0000
  C   C981      1.0  0.47998  0.47764  0.56133  1.0000
  C   C982      1.0  0.61201  0.98432  0.36303  1.0000
  P   P34       1.0  0.47986  0.48167  0.45777  1.0000
  C   C983      1.0  0.61436  0.14917  0.32995  1.0000
  C   C984      1.0  0.58946  0.40112  0.32390  1.0000
  H   H769      1.0  0.68573  0.17729  0.32693  1.0000
  C   C985      1.0  0.47503  0.23818  0.38625  1.0000
  H   H770      1.0  0.65961  0.98328  0.46260  1.0000
  H   H771      1.0  0.53974  0.04905  0.97096  1.0000
  H   H772      1.0  0.74885  0.05326  0.96336  1.0000
  C   C986      1.0  0.73580  0.03141  0.96932  1.0000
  C   C987      1.0  0.52055  0.12792  0.68835  1.0000
  C   C988      1.0  0.64671  0.99782  0.97034  1.0000
  C   C989      1.0  0.51882  0.07016  0.98671  1.0000
  S   S133      1.0  0.64120  0.98605  0.93582  1.0000
  H   H773      1.0  0.58554  0.03584  0.91319  1.0000
  H   H774      1.0  0.48316  0.01710  0.90346  1.0000
  H   H775      1.0  0.67018  0.04175  0.95913  1.0000
  H   H776      1.0  0.51400  0.46652  0.91744  1.0000
  H   H777      1.0  0.51731  0.01587  0.69088  1.0000
  C   C990      1.0  0.50387  0.13971  0.69557  1.0000
  C   C991      1.0  0.48098  0.03941  0.72451  1.0000
  C   C992      1.0  0.50280  0.47071  0.90175  1.0000
  H   H778      1.0  0.49407  0.06214  0.72495  1.0000
  H   H779      1.0  0.51741  0.00400  0.92209  1.0000
  C   C993      1.0  0.52430  0.00053  0.68914  1.0000
  H   H780      1.0  0.48743  0.16319  0.92101  1.0000
  C   C994      1.0  0.66258  0.02704  0.97581  1.0000
  C   C995      1.0  0.47823  0.08215  0.68210  1.0000
  C   C996      1.0  0.58263  0.02820  0.93378  1.0000
  C   C997      1.0  0.58482  0.04586  0.95532  1.0000
  H   H781      1.0  0.69071  0.99535  0.91082  1.0000
  C   C998      1.0  0.47739  0.17427  0.92955  1.0000
  H   H782      1.0  0.58958  0.06726  0.95118  1.0000
  H   H783      1.0  0.52104  0.09037  0.67631  1.0000
  C   C999      1.0  0.50782  0.09924  0.68170  1.0000
  H   H784      1.0  0.51374  0.16195  0.70068  1.0000
  C   C1000     1.0  0.57449  0.99115  0.96534  1.0000
  H   H785      1.0  0.67693  0.00131  0.86517  1.0000
  C   C1001     1.0  0.54655  0.00559  0.67179  1.0000
  H   H786      1.0  0.63822  0.06664  0.98648  1.0000
  H   H787      1.0  0.73821  0.01503  0.93057  1.0000
  H   H788      1.0  0.54338  0.14104  0.68791  1.0000
  C   C1002     1.0  0.72942  0.00968  0.95072  1.0000
  C   C1003     1.0  0.47710  0.44833  0.89240  1.0000
  C   C1004     1.0  0.57741  0.00083  0.93879  1.0000
  C   C1005     1.0  0.48124  0.02404  0.74700  1.0000
  H   H789      1.0  0.49436  0.03493  0.76434  1.0000
  H   H790      1.0  0.50386  0.06358  0.97010  1.0000
  C   C1006     1.0  0.55561  0.98580  0.66971  1.0000
  C   C1007     1.0  0.58137  0.03611  0.98207  1.0000
  C   C1008     1.0  0.57651  0.00870  0.98689  1.0000
  C   C1009     1.0  0.49573  0.98972  0.96012  1.0000
  H   H791      1.0  0.57307  0.98968  0.65654  1.0000
  C   C1010     1.0  0.48037  0.00857  0.92369  1.0000
  C   C1011     1.0  0.49967  0.00127  0.93421  1.0000
  C   C1012     1.0  0.53939  0.06198  0.98729  1.0000
  H   H792      1.0  0.68677  0.10672  0.98453  1.0000
  C   C1013     1.0  0.68265  0.98523  0.86884  1.0000
  H   H793      1.0  0.55686  0.02483  0.66002  1.0000
  H   H794      1.0  0.56199  0.98484  0.79784  1.0000
  H   H795      1.0  0.57626  0.98729  0.92215  1.0000
  H   H796      1.0  0.51085  0.98401  0.96766  1.0000
  H   H797      1.0  0.48087  0.16304  0.97039  1.0000
  Fe  Fe65      1.0  0.67343  0.60006  0.08868  1.0000
  S   S134      1.0  0.69380  0.57769  0.06857  1.0000
  S   S135      1.0  0.65099  0.62055  0.06547  1.0000
  Fe  Fe66      1.0  0.68011  0.57972  0.14683  1.0000
  S   S136      1.0  0.69959  0.55546  0.12874  1.0000
  S   S137      1.0  0.67604  0.56991  0.19268  1.0000
  Fe  Fe67      1.0  0.72535  0.59342  0.10308  1.0000
  S   S138      1.0  0.77367  0.61444  0.09995  1.0000
  Fe  Fe68      1.0  0.66647  0.54180  0.09651  1.0000
  C   C1014     1.0  0.60464  0.54543  0.30843  1.0000
  S   S139      1.0  0.70712  0.61872  0.12179  1.0000
  S   S140      1.0  0.64501  0.56323  0.11569  1.0000
  C   C1015     1.0  0.82727  0.57726  0.20090  1.0000
  C   C1016     1.0  0.95414  0.60882  0.22633  1.0000
  Fe  Fe69      1.0  0.90280  0.57940  0.11068  1.0000
  S   S141      1.0  0.93697  0.62435  0.11840  1.0000
  S   S142      1.0  0.85462  0.56101  0.10927  1.0000
  Fe  Fe70      1.0  0.94475  0.55780  0.11478  1.0000
  C   C1017     1.0  0.90501  0.61647  0.30710  1.0000
  Fe  Fe71      1.0  0.95080  0.60555  0.15177  1.0000
  H   H798      1.0  0.89636  0.59640  0.19159  1.0000
  H   H799      1.0  0.83267  0.67622  0.25389  1.0000
  S   S143      1.0  0.91593  0.56115  0.14504  1.0000
  S   S144      1.0  0.92892  0.57188  0.07946  1.0000
  C   C1018     1.0  0.51914  0.57730  0.03919  1.0000
  C   C1019     1.0  0.59606  0.51650  0.19651  1.0000
  C   C1020     1.0  0.79838  0.56866  0.04052  1.0000
  C   C1021     1.0  0.94321  0.58360  0.27855  1.0000
  C   C1022     1.0  0.92247  0.48712  0.29699  1.0000
  C   C1023     1.0  0.85218  0.58340  0.18739  1.0000
  C   C1024     1.0  0.74664  0.68319  0.17362  1.0000
  C   C1025     1.0  0.89355  0.52718  0.01711  1.0000
  C   C1026     1.0  0.96566  0.52379  0.20861  1.0000
  C   C1027     1.0  0.93110  0.64024  0.31318  1.0000
  C   C1028     1.0  0.63203  0.55482  0.00645  1.0000
  C   C1029     1.0  0.79586  0.59937  0.10417  1.0000
  C   C1030     1.0  0.82534  0.61680  0.10152  1.0000
  C   C1031     1.0  0.84375  0.60570  0.10382  1.0000
  C   C1032     1.0  0.83281  0.57680  0.10827  1.0000
  C   C1033     1.0  0.80337  0.55943  0.11131  1.0000
  C   C1034     1.0  0.78500  0.57062  0.10943  1.0000
  H   H800      1.0  0.83395  0.63902  0.09728  1.0000
  H   H801      1.0  0.86631  0.61940  0.10160  1.0000
  H   H802      1.0  0.79464  0.53704  0.11466  1.0000
  H   H803      1.0  0.76241  0.55689  0.11129  1.0000
  C   C1035     1.0  0.67851  0.58549  0.22516  1.0000
  C   C1036     1.0  0.68562  0.57459  0.24775  1.0000
  C   C1037     1.0  0.68524  0.58412  0.27424  1.0000
  C   C1038     1.0  0.67798  0.60506  0.27854  1.0000
  C   C1039     1.0  0.67184  0.61670  0.25587  1.0000
  C   C1040     1.0  0.67208  0.60701  0.22938  1.0000
  H   H804      1.0  0.69160  0.55871  0.24477  1.0000
  H   H805      1.0  0.69021  0.57504  0.29134  1.0000
  H   H806      1.0  0.66638  0.63303  0.25887  1.0000
  H   H807      1.0  0.66660  0.61574  0.21235  1.0000
  H   H808      1.0  0.74180  0.62370  0.25324  1.0000
  C   C1041     1.0  0.89189  0.59014  0.02344  1.0000
  C   C1042     1.0  0.63712  0.97917  0.99228  1.0000
  C   C1043     1.0  0.82701  0.57890  0.22915  1.0000
  C   C1044     1.0  0.62650  0.63671  0.02493  1.0000
  C   C1045     1.0  0.64623  0.62786  0.03085  1.0000
  C   C1046     1.0  0.66159  0.62556  0.00924  1.0000
  H   H809      1.0  0.61465  0.63896  0.04131  1.0000
  H   H810      1.0  0.67709  0.61916  0.01322  1.0000
  H   H811      1.0  0.49295  0.58018  0.00824  1.0000
  C   C1047     1.0  0.49809  0.54382  0.00248  1.0000
  H   H812      1.0  0.55012  0.48547  0.27654  1.0000
  C   C1048     1.0  0.57930  0.53372  0.03171  1.0000
  H   H813      1.0  0.88399  0.64937  0.21694  1.0000
  H   H814      1.0  0.50876  0.51110  0.00028  1.0000
  C   C1049     1.0  0.53208  0.50567  0.12887  1.0000
  P   P35       1.0  0.94108  0.48735  0.21677  1.0000
  C   C1050     1.0  0.86026  0.54165  0.27977  1.0000
  H   H815      1.0  0.54824  0.95823  0.03392  1.0000
  C   C1051     1.0  0.85019  0.55689  0.29444  1.0000
  H   H816      1.0  0.53808  0.51409  0.24355  1.0000
  H   H817      1.0  0.92602  0.56682  0.21162  1.0000
  H   H818      1.0  0.52292  0.59649  0.04935  1.0000
  C   C1052     1.0  0.77573  0.69760  0.17879  1.0000
  C   C1053     1.0  0.89310  0.64554  0.27926  1.0000
  C   C1054     1.0  0.86341  0.51881  0.05595  1.0000
  C   C1055     1.0  0.79539  0.56955  0.29163  1.0000
  H   H819      1.0  0.80824  0.57142  0.18933  1.0000
  H   H820      1.0  0.61234  0.51745  0.18324  1.0000
  C   C1056     1.0  0.89204  0.60473  0.04686  1.0000
  C   C1057     1.0  0.96139  0.61266  0.27556  1.0000
  C   C1058     1.0  0.84034  0.54846  0.32091  1.0000
  C   C1059     1.0  0.51121  0.52906  0.01180  1.0000
  H   H821      1.0  0.91473  0.64287  0.07038  1.0000
  H   H822      1.0  0.95872  0.68474  0.30674  1.0000
  H   H823      1.0  0.75677  0.53844  0.05454  1.0000
  H   H824      1.0  0.86853  0.50699  0.28008  1.0000
  H   H825      1.0  0.91314  0.50087  0.25977  1.0000
  C   C1060     1.0  0.85273  0.65976  0.16224  1.0000
  C   C1061     1.0  0.87333  0.65841  0.17790  1.0000
  C   C1062     1.0  0.51213  0.96237  0.02310  1.0000
  C   C1063     1.0  0.84248  0.64532  0.21687  1.0000
  C   C1064     1.0  0.82208  0.64765  0.20153  1.0000
  C   C1065     1.0  0.82711  0.65416  0.17389  1.0000
  P   P36       1.0  0.78776  0.63739  0.21565  1.0000
  C   C1066     1.0  0.78752  0.64737  0.25051  1.0000
  C   C1067     1.0  0.77199  0.65489  0.19790  1.0000
  C   C1068     1.0  0.82446  0.57288  0.03141  1.0000
  C   C1069     1.0  0.47625  0.92426  0.99620  1.0000
  C   C1070     1.0  0.78119  0.51853  0.04428  1.0000
  C   C1071     1.0  0.73020  0.65482  0.18089  1.0000
  C   C1072     1.0  0.74286  0.64067  0.19277  1.0000
  C   C1073     1.0  0.81247  0.66659  0.26404  1.0000
  H   H826      1.0  0.81078  0.69516  0.19561  1.0000
  H   H827      1.0  0.59285  0.56921  0.13150  1.0000
  C   C1074     1.0  0.82939  0.55000  0.02936  1.0000
  C   C1075     1.0  0.76145  0.63735  0.26372  1.0000
  C   C1076     1.0  0.76706  0.59963  0.21082  1.0000
  C   C1077     1.0  0.76191  0.58846  0.18451  1.0000
  C   C1078     1.0  0.74691  0.55923  0.18042  1.0000
  C   C1079     1.0  0.73651  0.54094  0.20248  1.0000
  C   C1080     1.0  0.74165  0.55186  0.22875  1.0000
  C   C1081     1.0  0.75714  0.58108  0.23294  1.0000
  H   H828      1.0  0.85635  0.66458  0.14089  1.0000
  H   H829      1.0  0.83817  0.63819  0.23760  1.0000
  P   P37       1.0  0.86269  0.55522  0.01653  1.0000
  C   C1082     1.0  0.61559  0.50254  0.29190  1.0000
  H   H830      1.0  0.81104  0.65425  0.16102  1.0000
  H   H831      1.0  0.64213  0.53509  0.03892  1.0000
  C   C1083     1.0  0.93828  0.62919  0.01184  1.0000
  H   H832      1.0  0.70761  0.64362  0.17714  1.0000
  H   H833      1.0  0.72987  0.61873  0.19820  1.0000
  H   H834      1.0  0.53098  0.91281  0.00957  1.0000
  C   C1084     1.0  0.60538  0.50236  0.31802  1.0000
  C   C1085     1.0  0.52805  0.94869  0.02347  1.0000
  C   C1086     1.0  0.87337  0.53148  0.03065  1.0000
  C   C1087     1.0  0.91548  0.60232  0.00624  1.0000
  H   H835      1.0  0.76945  0.60227  0.16706  1.0000
  H   H836      1.0  0.74318  0.55082  0.16005  1.0000
  H   H837      1.0  0.72441  0.51834  0.19913  1.0000
  H   H838      1.0  0.73353  0.53771  0.24586  1.0000
  H   H839      1.0  0.76128  0.58901  0.25342  1.0000
  C   C1088     1.0  0.71244  0.49916  0.31770  1.0000
  C   C1089     1.0  0.50224  0.56809  0.01603  1.0000
  C   C1090     1.0  0.77679  0.54153  0.04707  1.0000
  H   H840      1.0  0.96788  0.53242  0.05447  1.0000
  C   C1091     1.0  0.70327  0.48413  0.29341  1.0000
  C   C1092     1.0  0.78834  0.68360  0.19119  1.0000
  S   S145      1.0  0.64137  0.49683  0.08109  1.0000
  C   C1093     1.0  0.59904  0.54141  0.20750  1.0000
  H   H841      1.0  0.87854  0.64790  0.26619  1.0000
  C   C1094     1.0  0.57215  0.54712  0.09491  1.0000
  H   H842      1.0  0.55747  0.53219  0.16169  1.0000
  C   C1095     1.0  0.96660  0.62518  0.24968  1.0000
  H   H843      1.0  0.48106  0.96844  0.06528  1.0000
  H   H844      1.0  0.61844  0.56268  0.26873  1.0000
  C   C1096     1.0  0.55105  0.48922  0.21967  1.0000
  P   P38       1.0  0.85242  0.58860  0.28078  1.0000
  H   H845      1.0  0.59620  0.51694  0.06151  1.0000
  C   C1097     1.0  0.93040  0.56734  0.25522  1.0000
  C   C1098     1.0  0.57805  0.54041  0.22437  1.0000
  C   C1099     1.0  0.85179  0.58675  0.24414  1.0000
  H   H846      1.0  0.89299  0.66225  0.16871  1.0000
  H   H847      1.0  0.95673  0.63839  0.99887  1.0000
  C   C1100     1.0  0.61944  0.52403  0.27390  1.0000
  H   H848      1.0  0.66362  0.51194  0.24038  1.0000
  C   C1101     1.0  0.84982  0.50970  0.31745  1.0000
  H   H849      1.0  0.91643  0.54489  0.25712  1.0000
  H   H850      1.0  0.60168  0.56269  0.31514  1.0000
  H   H851      1.0  0.79499  0.58651  0.04297  1.0000
  C   C1102     1.0  0.87680  0.59324  0.23026  1.0000
  C   C1103     1.0  0.52924  0.50215  0.10083  1.0000
  H   H852      1.0  0.92489  0.68957  0.27674  1.0000
  H   H853      1.0  0.54518  0.57003  0.06664  1.0000
  H   H854      1.0  0.90025  0.59624  0.31545  1.0000
  C   C1104     1.0  0.62625  0.53911  0.03018  1.0000
  H   H855      1.0  0.61427  0.50505  0.12762  1.0000
  C   C1105     1.0  0.76043  0.64501  0.29049  1.0000
  H   H856      1.0  0.86888  0.54812  0.25972  1.0000
  C   C1106     1.0  0.86823  0.65123  0.20520  1.0000
  H   H857      1.0  0.78845  0.71964  0.17330  1.0000
  C   C1107     1.0  0.59867  0.48694  0.11649  1.0000
  P   P39       1.0  0.54498  0.51890  0.04740  1.0000
  H   H858      1.0  0.89962  0.48615  0.12066  1.0000
  H   H859      1.0  0.97020  0.51478  0.16682  1.0000
  H   H860      1.0  0.96625  0.54061  0.24860  1.0000
  C   C1108     1.0  0.93575  0.57977  0.22932  1.0000
  H   H861      1.0  0.73681  0.69397  0.16402  1.0000
  H   H862      1.0  0.84896  0.52286  0.06745  1.0000
  C   C1109     1.0  0.87497  0.48562  0.17535  1.0000
  C   C1110     1.0  0.58533  0.54974  0.00794  1.0000
  C   C1111     1.0  0.66966  0.50218  0.31962  1.0000
  C   C1112     1.0  0.93828  0.66653  0.30224  1.0000
  C   C1113     1.0  0.55420  0.51446  0.23051  1.0000
  C   C1114     1.0  0.61410  0.54541  0.28225  1.0000
  C   C1115     1.0  0.88581  0.61899  0.29002  1.0000
  S   S146      1.0  0.93764  0.56606  0.31032  1.0000
  H   H863      1.0  0.56998  0.55436  0.99902  1.0000
  C   C1116     1.0  0.82863  0.61456  0.31176  1.0000
  C   C1117     1.0  0.51834  0.92308  0.00980  1.0000
  C   C1118     1.0  0.91472  0.63171  0.05225  1.0000
  H   H864      1.0  0.62733  0.52503  0.25369  1.0000
  H   H865      1.0  0.79090  0.55091  0.28007  1.0000
  C   C1119     1.0  0.54919  0.52288  0.08363  1.0000
  C   C1120     1.0  0.55493  0.52983  0.13997  1.0000
  H   H866      1.0  0.80757  0.57438  0.23890  1.0000
  H   H867      1.0  0.89629  0.59953  0.24122  1.0000
  C   C1121     1.0  0.57491  0.55058  0.12298  1.0000
  H   H868      1.0  0.84993  0.63116  0.31615  1.0000
  C   C1122     1.0  0.53173  0.56216  0.04897  1.0000
  H   H869      1.0  0.58803  0.56340  0.08208  1.0000
  C   C1123     1.0  0.82338  0.59165  0.29492  1.0000
  H   H870      1.0  0.74018  0.63702  0.30055  1.0000
  C   C1124     1.0  0.49256  0.91101  0.99599  1.0000
  C   C1125     1.0  0.60012  0.52881  0.04293  1.0000
  H   H871      1.0  0.75145  0.55422  0.30103  1.0000
  H   H872      1.0  0.61769  0.56146  0.20288  1.0000
  C   C1126     1.0  0.80728  0.52268  0.03519  1.0000
  Fe  Fe72      1.0  0.96436  0.61560  0.08939  1.0000
  C   C1127     1.0  0.48561  0.94984  0.01023  1.0000
  H   H873      1.0  0.58043  0.55980  0.23285  1.0000
  H   H874      1.0  0.92006  0.51107  0.17478  1.0000
  H   H875      1.0  0.87217  0.49748  0.15926  1.0000
  C   C1128     1.0  0.81141  0.67422  0.29088  1.0000
  H   H876      1.0  0.60680  0.64971  0.99428  1.0000
  C   C1129     1.0  0.77302  0.57104  0.30385  1.0000
  C   C1130     1.0  0.87291  0.50148  0.06714  1.0000
  H   H877      1.0  0.87482  0.59516  0.06114  1.0000
  C   C1131     1.0  0.62196  0.64283  0.99812  1.0000
  C   C1132     1.0  0.64644  0.49140  0.20251  1.0000
  H   H878      1.0  0.91867  0.50676  0.01789  1.0000
  H   H879      1.0  0.90236  0.53759  0.99807  1.0000
  C   C1133     1.0  0.52746  0.53761  0.03562  1.0000
  S   S147      1.0  0.96250  0.62564  0.19409  1.0000
  H   H880      1.0  0.66287  0.50837  0.19067  1.0000
  C   C1134     1.0  0.97396  0.54527  0.22808  1.0000
  C   C1135     1.0  0.91925  0.66920  0.28532  1.0000
  S   S148      1.0  0.95975  0.52603  0.11147  1.0000
  H   H881      1.0  0.84069  0.59403  0.02608  1.0000
  H   H882      1.0  0.95906  0.49186  0.02527  1.0000
  H   H883      1.0  0.51717  0.48896  0.14191  1.0000
  C   C1136     1.0  0.93949  0.48889  0.11178  1.0000
  C   C1137     1.0  0.66003  0.48672  0.29545  1.0000
  C   C1138     1.0  0.86004  0.51815  0.29125  1.0000
  H   H884      1.0  0.85236  0.58211  0.16551  1.0000
  C   C1139     1.0  0.89265  0.49696  0.05333  1.0000
  H   H885      1.0  0.86549  0.49214  0.08687  1.0000
  S   S149      1.0  0.67551  0.61687  0.31162  1.0000
  C   C1140     1.0  0.90298  0.50984  0.02833  1.0000
  H   H886      1.0  0.50714  0.49765  0.20091  1.0000
  C   C1141     1.0  0.87694  0.59145  0.20207  1.0000
  H   H887      1.0  0.76440  0.49750  0.04932  1.0000
  C   C1142     1.0  0.78542  0.66326  0.30416  1.0000
  C   C1143     1.0  0.64668  0.49355  0.23068  1.0000
  H   H888      1.0  0.81016  0.50457  0.03276  1.0000
  C   C1144     1.0  0.57215  0.49053  0.20247  1.0000
  H   H889      1.0  0.90036  0.48392  0.06222  1.0000
  H   H890      1.0  0.83069  0.68887  0.30136  1.0000
  H   H891      1.0  0.95584  0.66447  0.03940  1.0000
  C   C1145     1.0  0.90221  0.49336  0.18434  1.0000
  C   C1146     1.0  0.93780  0.64395  0.03473  1.0000
  H   H892      1.0  0.97472  0.53740  0.32021  1.0000
  H   H893      1.0  0.68884  0.95346  0.99140  1.0000
  H   H894      1.0  0.97213  0.62543  0.29305  1.0000
  C   C1147     1.0  0.61158  0.56014  0.99535  1.0000
  H   H895      1.0  0.91118  0.49473  0.30929  1.0000
  H   H896      1.0  0.47502  0.51807  0.09192  1.0000
  H   H897      1.0  0.63807  0.97483  0.03568  1.0000
  C   C1148     1.0  0.92384  0.49081  0.26897  1.0000
  H   H898      1.0  0.59156  0.98128  0.15670  1.0000
  H   H899      1.0  0.65257  0.56334  0.99698  1.0000
  C   C1149     1.0  0.77847  0.59407  0.32023  1.0000
  H   H900      1.0  0.91654  0.59099  0.98873  1.0000
  H   H901      1.0  0.51187  0.48283  0.09278  1.0000
  H   H902      1.0  0.62487  0.95668  0.98864  1.0000
  H   H903      1.0  0.54765  0.98173  0.16909  1.0000
  Fe  Fe73      1.0  0.60525  0.89434  0.60651  1.0000
  S   S150      1.0  0.63461  0.94037  0.61749  1.0000
  S   S151      1.0  0.62423  0.86505  0.60627  1.0000
  Fe  Fe74      1.0  0.55439  0.90310  0.60296  1.0000
  S   S152      1.0  0.58006  0.94871  0.61419  1.0000
  S   S153      1.0  0.50766  0.88230  0.59268  1.0000
  Fe  Fe75      1.0  0.61233  0.95074  0.58439  1.0000
  H   H904      1.0  0.81043  0.63298  0.33787  1.0000
  S   S154      1.0  0.58542  0.90524  0.57175  1.0000
  S   S155      1.0  0.57178  0.88833  0.63645  1.0000
  H   H905      1.0  0.72232  0.75249  0.44807  1.0000
  H   H906      1.0  0.57001  0.76972  0.46652  1.0000
  Fe  Fe76      1.0  0.61418  0.67310  0.59473  1.0000
  S   S156      1.0  0.56946  0.66188  0.58509  1.0000
  S   S157      1.0  0.64476  0.67043  0.56335  1.0000
  Fe  Fe77      1.0  0.57810  0.70022  0.61018  1.0000
  S   S158      1.0  0.56213  0.73029  0.59777  1.0000
  Fe  Fe78      1.0  0.55814  0.63845  0.62453  1.0000
  C   C1150     1.0  0.47620  0.96655  0.41853  1.0000
  S   S159      1.0  0.62338  0.71281  0.61819  1.0000
  S   S160      1.0  0.60240  0.64783  0.63352  1.0000
  Fe  Fe79      1.0  0.72531  0.60471  0.39397  1.0000
  S   S161      1.0  0.70624  0.63282  0.38705  1.0000
  S   S162      1.0  0.77348  0.62474  0.39741  1.0000
  Fe  Fe80      1.0  0.66804  0.55178  0.38948  1.0000
  S   S163      1.0  0.64531  0.57581  0.38163  1.0000
  H   H907      1.0  0.49433  0.49955  0.62666  1.0000
  Fe  Fe81      1.0  0.68151  0.60209  0.35345  1.0000
  Fe  Fe82      1.0  0.67153  0.60437  0.41625  1.0000
  S   S164      1.0  0.64551  0.61482  0.44731  1.0000
  S   S165      1.0  0.70237  0.57602  0.35909  1.0000
  S   S166      1.0  0.69248  0.57835  0.42525  1.0000
  Fe  Fe83      1.0  0.89356  0.57414  0.39646  1.0000
  S   S167      1.0  0.93223  0.61056  0.37786  1.0000
  S   S168      1.0  0.84705  0.56300  0.39437  1.0000
  Fe  Fe84      1.0  0.92530  0.54136  0.40711  1.0000
  S   S169      1.0  0.92609  0.50438  0.42692  1.0000
  Fe  Fe85      1.0  0.95668  0.60496  0.41279  1.0000
  Fe  Fe86      1.0  0.93761  0.57737  0.35534  1.0000
  S   S170      1.0  0.91740  0.57082  0.43254  1.0000
  S   S171      1.0  0.89837  0.54135  0.37326  1.0000
  H   H908      1.0  0.52727  0.62443  0.51065  1.0000
  C   C1151     1.0  0.59141  0.69910  0.52720  1.0000
  H   H909      1.0  0.61779  0.87757  0.54969  1.0000
  C   C1152     1.0  0.79368  0.60735  0.39476  1.0000
  C   C1153     1.0  0.82341  0.62350  0.39607  1.0000
  C   C1154     1.0  0.84020  0.61048  0.39535  1.0000
  C   C1155     1.0  0.82739  0.58105  0.39363  1.0000
  C   C1156     1.0  0.79771  0.56498  0.39176  1.0000
  C   C1157     1.0  0.78094  0.57800  0.39216  1.0000
  H   H910      1.0  0.83349  0.64622  0.39799  1.0000
  H   H911      1.0  0.86298  0.62319  0.39652  1.0000
  H   H912      1.0  0.78756  0.54221  0.39037  1.0000
  H   H913      1.0  0.75814  0.56529  0.39113  1.0000
  H   H914      1.0  0.69637  0.72176  0.59221  1.0000
  H   H915      1.0  0.60515  0.51922  0.39973  1.0000
  C   C1158     1.0  0.77268  0.55139  0.46669  1.0000
  C   C1159     1.0  0.64418  0.65428  0.53120  1.0000
  C   C1160     1.0  0.66906  0.65522  0.52177  1.0000
  C   C1161     1.0  0.66993  0.64325  0.49651  1.0000
  C   C1162     1.0  0.64595  0.63033  0.47980  1.0000
  C   C1163     1.0  0.62110  0.62954  0.48917  1.0000
  C   C1164     1.0  0.62011  0.64114  0.51462  1.0000
  H   H916      1.0  0.68793  0.66525  0.53416  1.0000
  H   H917      1.0  0.68929  0.64420  0.48989  1.0000
  H   H918      1.0  0.60245  0.61988  0.47652  1.0000
  H   H919      1.0  0.60079  0.64016  0.52129  1.0000
  H   H920      1.0  0.55920  0.88581  0.49872  1.0000
  H   H921      1.0  0.94277  0.54500  0.47255  1.0000
  H   H922      1.0  0.87113  0.60277  0.43909  1.0000
  C   C1165     1.0  0.87632  0.51274  0.47894  1.0000
  C   C1166     1.0  0.55658  0.55292  0.41322  1.0000
  C   C1167     1.0  0.60623  0.82744  0.60593  1.0000
  C   C1168     1.0  0.62159  0.81337  0.61041  1.0000
  C   C1169     1.0  0.60831  0.78361  0.60882  1.0000
  C   C1170     1.0  0.57953  0.76760  0.60238  1.0000
  C   C1171     1.0  0.56410  0.78170  0.59847  1.0000
  C   C1172     1.0  0.57728  0.81138  0.60059  1.0000
  H   H923      1.0  0.64396  0.82557  0.61489  1.0000
  H   H924      1.0  0.62045  0.77309  0.61198  1.0000
  H   H925      1.0  0.54177  0.76951  0.59381  1.0000
  H   H926      1.0  0.56518  0.82196  0.59801  1.0000
  H   H927      1.0  0.76128  0.59499  0.33030  1.0000
  H   H928      1.0  0.75227  0.53236  0.46490  1.0000
  H   H929      1.0  0.89078  0.50700  0.48814  1.0000
  H   H930      1.0  0.48679  0.50639  0.40320  1.0000
  C   C1173     1.0  0.83833  0.54604  0.54055  1.0000
  C   C1174     1.0  0.57888  0.73573  0.52525  1.0000
  C   C1175     1.0  0.59818  0.88575  0.46228  1.0000
  C   C1176     1.0  0.62417  0.60341  0.59743  1.0000
  H   H931      1.0  0.94611  0.63813  0.32588  1.0000
  C   C1177     1.0  0.85689  0.59666  0.54072  1.0000
  H   H932      1.0  0.56286  0.74192  0.52429  1.0000
  H   H933      1.0  0.49548  0.61178  0.59872  1.0000
  C   C1178     1.0  0.49759  0.49881  0.60515  1.0000
  C   C1179     1.0  0.63889  0.82141  0.47143  1.0000
  H   H934      1.0  0.67220  0.73980  0.44244  1.0000
  H   H935      1.0  0.58135  0.87416  0.39525  1.0000
  C   C1180     1.0  0.67989  0.93784  0.53821  1.0000
  C   C1181     1.0  0.67925  0.93827  0.51001  1.0000
  C   C1182     1.0  0.65627  0.91688  0.49593  1.0000
  H   H936      1.0  0.65351  0.86456  0.48219  1.0000
  H   H937      1.0  0.56296  0.80952  0.47913  1.0000
  H   H938      1.0  0.57771  0.82414  0.53307  1.0000
  C   C1183     1.0  0.55939  0.54595  0.43973  1.0000
  C   C1184     1.0  0.63027  0.58609  0.61347  1.0000
  H   H939      1.0  0.83347  0.49698  0.42399  1.0000
  H   H940      1.0  0.50188  0.53698  0.48516  1.0000
  H   H941      1.0  0.65612  0.91778  0.47407  1.0000
  H   H942      1.0  0.64211  0.96463  0.50886  1.0000
  C   C1185     1.0  0.58657  0.56209  0.57507  1.0000
  C   C1186     1.0  0.57429  0.53427  0.52407  1.0000
  C   C1187     1.0  0.59847  0.55440  0.51023  1.0000
  C   C1188     1.0  0.61054  0.54602  0.48990  1.0000
  C   C1189     1.0  0.59890  0.51743  0.48350  1.0000
  H   H943      1.0  0.66003  0.82467  0.46893  1.0000
  H   H944      1.0  0.48369  0.55246  0.52333  1.0000
  C   C1190     1.0  0.60242  0.59153  0.57826  1.0000
  C   C1191     1.0  0.57562  0.49715  0.49796  1.0000
  C   C1192     1.0  0.50171  0.92121  0.62351  1.0000
  C   C1193     1.0  0.55253  0.57861  0.50965  1.0000
  H   H945      1.0  0.60794  0.57669  0.51503  1.0000
  H   H946      1.0  0.62890  0.56180  0.47899  1.0000
  C   C1194     1.0  0.48214  0.58949  0.60278  1.0000
  C   C1195     1.0  0.84393  0.50691  0.44279  1.0000
  H   H947      1.0  0.59035  0.92334  0.39877  1.0000
  H   H948      1.0  0.95112  0.51548  0.36339  1.0000
  H   H949      1.0  0.56078  0.56959  0.49538  1.0000
  C   C1196     1.0  0.72612  0.77013  0.48791  1.0000
  C   C1197     1.0  0.71221  0.77561  0.50877  1.0000
  C   C1198     1.0  0.68360  0.76785  0.50600  1.0000
  C   C1199     1.0  0.66944  0.75553  0.48168  1.0000
  P   P40       1.0  0.66549  0.77440  0.53322  1.0000
  C   C1200     1.0  0.62824  0.74846  0.53026  1.0000
  C   C1201     1.0  0.67770  0.76752  0.56490  1.0000
  C   C1202     1.0  0.68136  0.78403  0.58804  1.0000
  H   H950      1.0  0.84078  0.57025  0.60455  1.0000
  H   H951      1.0  0.95365  0.64600  0.50109  1.0000
  C   C1203     1.0  0.69273  0.73953  0.59100  1.0000
  C   C1204     1.0  0.68354  0.74523  0.56668  1.0000
  C   C1205     1.0  0.60746  0.75635  0.52712  1.0000
  H   H952      1.0  0.64750  0.74967  0.47887  1.0000
  C   C1206     1.0  0.61989  0.71959  0.52996  1.0000
  C   C1207     1.0  0.67300  0.81071  0.53208  1.0000
  C   C1208     1.0  0.69501  0.83070  0.51584  1.0000
  C   C1209     1.0  0.70152  0.85896  0.51585  1.0000
  C   C1210     1.0  0.68624  0.86753  0.53213  1.0000
  C   C1211     1.0  0.66438  0.84785  0.54835  1.0000
  C   C1212     1.0  0.65787  0.81965  0.54839  1.0000
  H   H953      1.0  0.74802  0.77560  0.49035  1.0000
  H   H954      1.0  0.72368  0.78555  0.52718  1.0000
  H   H955      1.0  0.67693  0.80119  0.58772  1.0000
  H   H956      1.0  0.48161  0.53614  0.63846  1.0000
  Fe  Fe87      1.0  0.59980  0.93434  0.64609  1.0000
  C   C1213     1.0  0.59228  0.91275  0.41649  1.0000
  H   H957      1.0  0.68078  0.73192  0.54938  1.0000
  H   H958      1.0  0.61285  0.77817  0.52619  1.0000
  C   C1214     1.0  0.65783  0.91572  0.55231  1.0000
  H   H959      1.0  0.63531  0.71270  0.53171  1.0000
  H   H960      1.0  0.70740  0.82471  0.50330  1.0000
  C   C1215     1.0  0.63346  0.89510  0.51003  1.0000
  H   H961      1.0  0.65275  0.85453  0.56130  1.0000
  H   H962      1.0  0.64127  0.80486  0.56154  1.0000
  C   C1216     1.0  0.52346  0.83610  0.54629  1.0000
  C   C1217     1.0  0.57146  0.85602  0.51316  1.0000
  P   P41       1.0  0.55906  0.54612  0.54990  1.0000
  H   H963      1.0  0.83267  0.51878  0.35281  1.0000
  C   C1218     1.0  0.53043  0.60236  0.54529  1.0000
  C   C1219     1.0  0.63508  0.84402  0.47894  1.0000
  H   H964      1.0  0.69738  0.95473  0.54920  1.0000
  H   H965      1.0  0.71866  0.87431  0.50346  1.0000
  H   H966      1.0  0.70281  0.75115  0.63283  1.0000
  H   H967      1.0  0.52823  0.54387  0.37958  1.0000
  C   C1220     1.0  0.59314  0.54481  0.59092  1.0000
  H   H968      1.0  0.85969  0.61553  0.57971  1.0000
  C   C1221     1.0  0.58428  0.81307  0.47727  1.0000
  H   H969      1.0  0.54689  0.60328  0.47891  1.0000
  C   C1222     1.0  0.47674  0.96652  0.50439  1.0000
  H   H970      1.0  0.59292  0.52388  0.34663  1.0000
  C   C1223     1.0  0.60772  0.83997  0.48215  1.0000
  H   H971      1.0  0.69293  0.79081  0.63018  1.0000
  C   C1224     1.0  0.52283  0.51920  0.59331  1.0000
  C   C1225     1.0  0.50941  0.51042  0.44054  1.0000
  C   C1226     1.0  0.55419  0.86834  0.51202  1.0000
  H   H972      1.0  0.63640  0.62615  0.59979  1.0000
  C   C1227     1.0  0.90956  0.61445  0.49680  1.0000
  C   C1228     1.0  0.69062  0.77829  0.61236  1.0000
  C   C1229     1.0  0.59481  0.49701  0.39481  1.0000
  C   C1230     1.0  0.56353  0.50545  0.51841  1.0000
  C   C1231     1.0  0.69628  0.75603  0.61385  1.0000
  C   C1232     1.0  0.56443  0.83361  0.53118  1.0000
  C   C1233     1.0  0.53351  0.60963  0.51797  1.0000
  H   H973      1.0  0.50328  0.95771  0.44276  1.0000
  H   H974      1.0  0.53856  0.51906  0.47362  1.0000
  H   H975      1.0  0.61847  0.77711  0.46144  1.0000
  H   H976      1.0  0.79356  0.52964  0.48167  1.0000
  C   C1234     1.0  0.93532  0.63688  0.48788  1.0000
  S   S172      1.0  0.96520  0.57508  0.38832  1.0000
  H   H977      1.0  0.58532  0.67694  0.52715  1.0000
  H   H978      1.0  0.50748  0.49790  0.52770  1.0000
  C   C1235     1.0  0.60261  0.91335  0.46414  1.0000
  H   H979      1.0  0.53451  0.80572  0.56068  1.0000
  H   H980      1.0  0.51381  0.96165  0.50410  1.0000
  C   C1236     1.0  0.61479  0.55678  0.61019  1.0000
  C   C1237     1.0  0.48642  0.93355  0.63380  1.0000
  H   H981      1.0  0.90839  0.60628  0.51695  1.0000
  H   H982      1.0  0.60833  0.92459  0.48324  1.0000
  H   H983      1.0  0.83358  0.56049  0.33319  1.0000
  C   C1238     1.0  0.52727  0.51843  0.56540  1.0000
  C   C1239     1.0  0.80626  0.61567  0.32433  1.0000
  H   H984      1.0  0.53851  0.53588  0.60599  1.0000
  H   H985      1.0  0.83158  0.52636  0.52987  1.0000
  H   H986      1.0  0.48820  0.91234  0.48807  1.0000
  H   H987      1.0  0.91660  0.64247  0.42358  1.0000
  H   H988      1.0  0.59832  0.60548  0.56594  1.0000
  H   H989      1.0  0.60814  0.51101  0.46752  1.0000
  H   H990      1.0  0.75747  0.57860  0.45188  1.0000
  C   C1240     1.0  0.53048  0.85859  0.52873  1.0000
  H   H991      1.0  0.57993  0.55690  0.44951  1.0000
  H   H992      1.0  0.73244  0.50364  0.32662  1.0000
  C   C1241     1.0  0.54703  0.94889  0.45109  1.0000
  C   C1242     1.0  0.54589  0.93071  0.47159  1.0000
  C   C1243     1.0  0.55767  0.94158  0.49695  1.0000
  C   C1244     1.0  0.59995  0.52371  0.32620  1.0000
  H   H993      1.0  0.61965  0.54336  0.62249  1.0000
  H   H994      1.0  0.85032  0.49196  0.32663  1.0000
  H   H995      1.0  0.64709  0.59546  0.62834  1.0000
  C   C1245     1.0  0.61547  0.79463  0.46709  1.0000
  H   H996      1.0  0.65844  0.91533  0.57420  1.0000
  H   H997      1.0  0.53601  0.57805  0.57621  1.0000
  H   H998      1.0  0.53838  0.94030  0.43133  1.0000
  H   H999      1.0  0.53619  0.90825  0.46770  1.0000
  H   H1000     1.0  0.55703  0.92776  0.51298  1.0000
  H   H1001     1.0  0.93406  0.55236  0.52029  1.0000
  C   C1246     1.0  0.95111  0.54839  0.51542  1.0000
  C   C1247     1.0  0.71167  0.75717  0.46406  1.0000
  C   C1248     1.0  0.49138  0.95179  0.50005  1.0000
  H   H1002     1.0  0.54865  0.69117  0.52455  1.0000
  C   C1249     1.0  0.68340  0.75002  0.46089  1.0000
  C   C1250     1.0  0.80175  0.60202  0.46190  1.0000
  C   C1251     1.0  0.77551  0.57742  0.45955  1.0000
  H   H1003     1.0  0.60402  0.94833  0.44299  1.0000
  C   C1252     1.0  0.79619  0.54992  0.47589  1.0000
  C   C1253     1.0  0.82291  0.57442  0.47726  1.0000
  C   C1254     1.0  0.82532  0.60062  0.47095  1.0000
  P   P42       1.0  0.85294  0.57253  0.49022  1.0000
  C   C1255     1.0  0.84962  0.57169  0.52647  1.0000
  C   C1256     1.0  0.85465  0.54236  0.47759  1.0000
  C   C1257     1.0  0.87288  0.53448  0.48995  1.0000
  C   C1258     1.0  0.57083  0.70712  0.52542  1.0000
  H   H1004     1.0  0.52163  0.61133  0.55909  1.0000
  H   H1005     1.0  0.54608  0.48926  0.52973  1.0000
  C   C1259     1.0  0.84024  0.52841  0.45391  1.0000
  C   C1260     1.0  0.53595  0.52469  0.45331  1.0000
  H   H1006     1.0  0.88498  0.54565  0.50767  1.0000
  H   H1007     1.0  0.86482  0.61652  0.53008  1.0000
  H   H1008     1.0  0.82664  0.52575  0.57945  1.0000
  C   C1261     1.0  0.84319  0.57063  0.58279  1.0000
  C   C1262     1.0  0.88590  0.60247  0.47956  1.0000
  C   C1263     1.0  0.54017  0.82334  0.54720  1.0000
  C   C1264     1.0  0.83986  0.52478  0.33220  1.0000
  C   C1265     1.0  0.50527  0.49796  0.54940  1.0000
  C   C1266     1.0  0.95610  0.54443  0.48852  1.0000
  C   C1267     1.0  0.88873  0.61257  0.45304  1.0000
  H   H1009     1.0  0.80384  0.62214  0.45613  1.0000
  C   C1268     1.0  0.91450  0.63496  0.44416  1.0000
  C   C1269     1.0  0.50677  0.51751  0.41383  1.0000
  C   C1270     1.0  0.59013  0.87154  0.43734  1.0000
  H   H1010     1.0  0.84535  0.62002  0.47281  1.0000
  H   H1011     1.0  0.69147  0.88945  0.53240  1.0000
  C   C1271     1.0  0.54980  0.57144  0.53717  1.0000
  C   C1272     1.0  0.57081  0.97059  0.50167  1.0000
  C   C1273     1.0  0.85387  0.59614  0.56881  1.0000
  H   H1012     1.0  0.82691  0.53473  0.44337  1.0000
  C   C1274     1.0  0.63474  0.89436  0.53830  1.0000
  C   C1275     1.0  0.86197  0.49907  0.45528  1.0000
  H   H1013     1.0  0.58146  0.52208  0.58838  1.0000
  S   S173      1.0  0.64809  0.50416  0.38880  1.0000
  H   H1014     1.0  0.52341  0.92934  0.62954  1.0000
  C   C1276     1.0  0.83530  0.54558  0.56865  1.0000
  C   C1277     1.0  0.93778  0.64712  0.46158  1.0000
  H   H1015     1.0  0.57492  0.56918  0.40269  1.0000
  H   H1016     1.0  0.51778  0.86881  0.52862  1.0000
  C   C1278     1.0  0.53029  0.53871  0.40028  1.0000
  C   C1279     1.0  0.54447  0.59768  0.50013  1.0000
  H   H1017     1.0  0.58632  0.85019  0.43533  1.0000
  P   P43       1.0  0.60252  0.86899  0.49197  1.0000
  C   C1280     1.0  0.59995  0.92685  0.44132  1.0000
  C   C1281     1.0  0.53856  0.58340  0.55491  1.0000
  H   H1018     1.0  0.70246  0.51955  0.34980  1.0000
  S   S174      1.0  0.52612  0.59289  0.63348  1.0000
  H   H1019     1.0  0.50533  0.82891  0.55953  1.0000
  C   C1282     1.0  0.58725  0.88507  0.41453  1.0000
  C   C1283     1.0  0.58818  0.79048  0.46998  1.0000
  C   C1284     1.0  0.49202  0.57550  0.61929  1.0000
  C   C1285     1.0  0.48874  0.89813  0.60591  1.0000
  H   H1020     1.0  0.49665  0.95140  0.64736  1.0000
  C   C1286     1.0  0.61090  0.48417  0.38922  1.0000
  S   S175      1.0  0.56181  0.67503  0.64855  1.0000
  H   H1021     1.0  0.69630  0.95557  0.49909  1.0000
  C   C1287     1.0  0.50261  0.97128  0.42735  1.0000
  H   H1022     1.0  0.58057  0.97902  0.52113  1.0000
  H   H1023     1.0  0.55296  0.49129  0.39819  1.0000
  H   H1024     1.0  0.96456  0.55155  0.55660  1.0000
  C   C1288     1.0  0.97337  0.52249  0.36076  1.0000
  H   H1025     1.0  0.78455  0.66911  0.32496  1.0000
  C   C1289     1.0  0.96852  0.54792  0.53596  1.0000
  C   C1290     1.0  0.55957  0.97807  0.45594  1.0000
  H   H1026     1.0  0.60246  0.48621  0.33244  1.0000
  H   H1027     1.0  0.50796  0.97581  0.56374  1.0000
  H   H1028     1.0  0.62436  0.98117  0.34768  1.0000
  C   C1291     1.0  0.47695  0.92382  0.49082  1.0000
  C   C1292     1.0  0.69568  0.50825  0.33072  1.0000
  H   H1029     1.0  0.95798  0.66402  0.45450  1.0000
  H   H1030     1.0  0.58436  0.84257  0.65301  1.0000
  H   H1031     1.0  0.96356  0.52272  0.64254  1.0000
  H   H1032     1.0  0.65694  0.50910  0.33040  1.0000
  H   H1033     1.0  0.96912  0.60541  0.48655  1.0000
  C   C1293     1.0  0.48235  0.52191  0.49470  1.0000
  H   H1034     1.0  0.86545  0.48295  0.44621  1.0000
  H   H1035     1.0  0.47498  0.84698  0.65459  1.0000
  S   S176      1.0  0.60359  0.95252  0.68888  1.0000
  Fe  Fe88      1.0  0.60366  0.92152  0.85061  1.0000
  S   S177      1.0  0.55907  0.88886  0.86058  1.0000
  S   S178      1.0  0.61859  0.91633  0.80853  1.0000
  Fe  Fe89      1.0  0.61417  0.94566  0.91043  1.0000
  S   S179      1.0  0.57046  0.91287  0.92331  1.0000
  Fe  Fe90      1.0  0.57747  0.88179  0.89852  1.0000
  S   S180      1.0  0.56055  0.83567  0.91057  1.0000
  Fe  Fe91      1.0  0.55673  0.92279  0.88419  1.0000
  S   S181      1.0  0.52594  0.93872  0.87975  1.0000
  S   S182      1.0  0.62240  0.91371  0.88833  1.0000
  S   S183      1.0  0.60006  0.95623  0.87140  1.0000
  Fe  Fe92      1.0  0.60442  0.66085  0.91708  1.0000
  S   S184      1.0  0.58253  0.68365  0.93289  1.0000
  S   S185      1.0  0.63140  0.64627  0.94169  1.0000
  Fe  Fe93      1.0  0.58290  0.66050  0.85777  1.0000
  S   S186      1.0  0.55890  0.68222  0.87053  1.0000
  S   S187      1.0  0.58051  0.64344  0.81458  1.0000
  Fe  Fe94      1.0  0.59713  0.71064  0.89546  1.0000
  S   S188      1.0  0.61771  0.75886  0.89304  1.0000
  Fe  Fe95      1.0  0.54587  0.65353  0.90662  1.0000
  S   S189      1.0  0.50297  0.63549  0.92616  1.0000
  S   S190      1.0  0.62212  0.69020  0.88094  1.0000
  S   S191      1.0  0.56671  0.62938  0.89252  1.0000
  S   S192      1.0  0.62410  0.70203  0.69868  1.0000
  C   C1294     1.0  0.59031  0.66061  0.78240  1.0000
  C   C1295     1.0  0.58259  0.64396  0.75875  1.0000
  C   C1296     1.0  0.59156  0.65632  0.73293  1.0000
  C   C1297     1.0  0.60892  0.68561  0.73036  1.0000
  C   C1298     1.0  0.61592  0.70232  0.75394  1.0000
  C   C1299     1.0  0.60646  0.69002  0.77972  1.0000
  H   H1036     1.0  0.56997  0.62122  0.76041  1.0000
  H   H1037     1.0  0.58590  0.64307  0.71510  1.0000
  H   H1038     1.0  0.62931  0.72491  0.75232  1.0000
  H   H1039     1.0  0.61270  0.70322  0.79760  1.0000
  C   C1300     1.0  0.59824  0.58978  0.85005  1.0000
  C   C1301     1.0  0.52061  0.68604  0.73077  1.0000
  H   H1040     1.0  0.75269  0.97179  0.89772  1.0000
  C   C1302     1.0  0.84292  0.51829  0.94165  1.0000
  C   C1303     1.0  0.58169  0.54497  0.82732  1.0000
  C   C1304     1.0  0.53985  0.55100  0.92360  1.0000
  H   H1041     1.0  0.61629  0.57277  0.97721  1.0000
  H   H1042     1.0  0.58108  0.53313  0.80948  1.0000
  C   C1305     1.0  0.55754  0.59066  0.95484  1.0000
  C   C1306     1.0  0.57650  0.81455  0.90431  1.0000
  C   C1307     1.0  0.60413  0.82602  0.89452  1.0000
  C   C1308     1.0  0.61632  0.80866  0.89102  1.0000
  C   C1309     1.0  0.60097  0.77958  0.89694  1.0000
  C   C1310     1.0  0.57315  0.76801  0.90614  1.0000
  C   C1311     1.0  0.56110  0.78544  0.90996  1.0000
  H   H1043     1.0  0.61627  0.84835  0.89006  1.0000
  H   H1044     1.0  0.63785  0.81787  0.88390  1.0000
  H   H1045     1.0  0.56108  0.74573  0.91087  1.0000
  H   H1046     1.0  0.53975  0.77630  0.91760  1.0000
  C   C1312     1.0  0.73481  0.94934  0.93512  1.0000
  C   C1313     1.0  0.59089  0.51741  0.91430  1.0000
  C   C1314     1.0  0.59739  0.57449  0.82707  1.0000
  C   C1315     1.0  0.60605  0.94066  0.72192  1.0000
  C   C1316     1.0  0.60339  0.95481  0.74459  1.0000
  C   C1317     1.0  0.60625  0.94708  0.77116  1.0000
  C   C1318     1.0  0.61193  0.92507  0.77552  1.0000
  C   C1319     1.0  0.61420  0.91063  0.75285  1.0000
  C   C1320     1.0  0.61102  0.91816  0.72625  1.0000
  H   H1047     1.0  0.61888  0.89377  0.75586  1.0000
  H   H1048     1.0  0.61321  0.90708  0.70910  1.0000
  C   C1321     1.0  0.56937  0.72202  0.72364  1.0000
  C   C1322     1.0  0.56476  0.74197  0.73725  1.0000
  C   C1323     1.0  0.53767  0.73362  0.74739  1.0000
  P   P44       1.0  0.59244  0.77853  0.73981  1.0000
  C   C1324     1.0  0.62652  0.78068  0.73721  1.0000
  C   C1325     1.0  0.58961  0.79860  0.71218  1.0000
  C   C1326     1.0  0.56527  0.78729  0.69585  1.0000
  H   H1049     1.0  0.85933  0.58468  0.92291  1.0000
  H   H1050     1.0  0.48925  0.56828  0.93815  1.0000
  C   C1327     1.0  0.57080  0.49620  0.96592  1.0000
  C   C1328     1.0  0.61222  0.82574  0.70653  1.0000
  C   C1329     1.0  0.63659  0.77823  0.71180  1.0000
  C   C1330     1.0  0.66224  0.77843  0.70967  1.0000
  H   H1051     1.0  0.58976  0.72769  0.71518  1.0000
  H   H1052     1.0  0.49409  0.97215  0.71780  1.0000
  H   H1053     1.0  0.59920  0.52573  0.89448  1.0000
  C   C1331     1.0  0.58949  0.79257  0.77212  1.0000
  C   C1332     1.0  0.59343  0.81999  0.77428  1.0000
  C   C1333     1.0  0.59109  0.83052  0.79937  1.0000
  C   C1334     1.0  0.58467  0.81377  0.82247  1.0000
  C   C1335     1.0  0.58077  0.78651  0.82058  1.0000
  C   C1336     1.0  0.58318  0.77592  0.79553  1.0000
  C   C1337     1.0  0.48978  0.85912  0.67054  1.0000
  H   H1054     1.0  0.53344  0.74875  0.75749  1.0000
  H   H1055     1.0  0.52879  0.60569  0.96447  1.0000
  P   P45       1.0  0.54633  0.52751  0.90287  1.0000
  C   C1338     1.0  0.49813  0.50227  0.87046  1.0000
  H   H1056     1.0  0.58482  0.58804  0.89085  1.0000
  H   H1057     1.0  0.63141  0.83469  0.71854  1.0000
  H   H1058     1.0  0.62416  0.77520  0.69369  1.0000
  H   H1059     1.0  0.48528  0.53678  0.98432  1.0000
  H   H1060     1.0  0.68099  0.78685  0.77605  1.0000
  C   C1339     1.0  0.78359  0.94444  0.93798  1.0000
  H   H1061     1.0  0.69797  0.78135  0.73109  1.0000
  H   H1062     1.0  0.59823  0.83343  0.75680  1.0000
  H   H1063     1.0  0.59427  0.85177  0.80095  1.0000
  H   H1064     1.0  0.58270  0.82196  0.84184  1.0000
  H   H1065     1.0  0.57603  0.77369  0.83865  1.0000
  H   H1066     1.0  0.58029  0.75480  0.79446  1.0000
  C   C1340     1.0  0.53165  0.58999  0.95368  1.0000
  C   C1341     1.0  0.64287  0.78405  0.76032  1.0000
  C   C1342     1.0  0.63697  0.64006  0.97645  1.0000
  C   C1343     1.0  0.85628  0.56741  0.93587  1.0000
  C   C1344     1.0  0.54866  0.94113  0.80490  1.0000
  C   C1345     1.0  0.49399  0.92647  0.89757  1.0000
  H   H1067     1.0  0.66919  0.77527  0.69013  1.0000
  H   H1068     1.0  0.60323  0.85034  0.95785  1.0000
  C   C1346     1.0  0.52994  0.89289  0.70914  1.0000
  C   C1347     1.0  0.47866  0.94033  0.89310  1.0000
  C   C1348     1.0  0.47897  0.93124  0.82657  1.0000
  C   C1349     1.0  0.84779  0.52270  0.96946  1.0000
  H   H1069     1.0  0.50412  0.81446  0.87564  1.0000
  H   H1070     1.0  0.64901  0.94090  0.95528  1.0000
  C   C1350     1.0  0.51573  0.70572  0.74426  1.0000
  H   H1071     1.0  0.84379  0.50503  0.98229  1.0000
  H   H1072     1.0  0.60521  0.89622  0.96515  1.0000
  H   H1073     1.0  0.47544  0.59776  0.66423  1.0000
  C   C1351     1.0  0.47627  0.62422  0.81566  1.0000
  C   C1352     1.0  0.75524  0.96067  0.91461  1.0000
  C   C1353     1.0  0.51274  0.85525  0.67600  1.0000
  C   C1354     1.0  0.58573  0.83035  0.66956  1.0000
  H   H1074     1.0  0.58223  0.57276  0.94054  1.0000
  H   H1075     1.0  0.54955  0.94580  0.68270  1.0000
  C   C1355     1.0  0.50952  0.56922  0.93837  1.0000
  H   H1076     1.0  0.53819  0.97611  0.75359  1.0000
  H   H1077     1.0  0.68498  0.93133  0.83687  1.0000
  C   C1356     1.0  0.69517  0.94230  0.87898  1.0000
  H   H1078     1.0  0.64536  0.84921  0.94100  1.0000
  C   C1357     1.0  0.78723  0.77995  0.82886  1.0000
  C   C1358     1.0  0.80228  0.80210  0.84707  1.0000
  C   C1359     1.0  0.78779  0.81059  0.86455  1.0000
  C   C1360     1.0  0.75825  0.79705  0.86372  1.0000
  C   C1361     1.0  0.74300  0.77509  0.84517  1.0000
  C   C1362     1.0  0.75767  0.76633  0.82798  1.0000
  P   P46       1.0  0.70487  0.75738  0.84528  1.0000
  C   C1363     1.0  0.69012  0.73069  0.81907  1.0000
  C   C1364     1.0  0.69462  0.74293  0.87892  1.0000
  C   C1365     1.0  0.70059  0.72203  0.88782  1.0000
  C   C1366     1.0  0.69235  0.71039  0.91365  1.0000
  C   C1367     1.0  0.67877  0.72003  0.93102  1.0000
  C   C1368     1.0  0.67377  0.74159  0.92273  1.0000
  C   C1369     1.0  0.68188  0.75321  0.89690  1.0000
  C   C1370     1.0  0.69561  0.73897  0.79185  1.0000
  C   C1371     1.0  0.68370  0.71888  0.77116  1.0000
  C   C1372     1.0  0.66617  0.69040  0.77747  1.0000
  C   C1373     1.0  0.66027  0.68203  0.80445  1.0000
  C   C1374     1.0  0.67213  0.70205  0.82518  1.0000
  C   C1375     1.0  0.69219  0.78149  0.83765  1.0000
  C   C1376     1.0  0.66308  0.77183  0.83900  1.0000
  C   C1377     1.0  0.65281  0.79030  0.83414  1.0000
  C   C1378     1.0  0.67136  0.81834  0.82707  1.0000
  C   C1379     1.0  0.70028  0.82789  0.82468  1.0000
  C   C1380     1.0  0.71072  0.80956  0.82992  1.0000
  H   H1079     1.0  0.79847  0.77311  0.81559  1.0000
  H   H1080     1.0  0.82517  0.81249  0.84785  1.0000
  H   H1081     1.0  0.79942  0.82750  0.87895  1.0000
  H   H1082     1.0  0.74722  0.80355  0.87766  1.0000
  H   H1083     1.0  0.74649  0.74882  0.81416  1.0000
  H   H1084     1.0  0.71107  0.71429  0.87462  1.0000
  H   H1085     1.0  0.69587  0.69343  0.92015  1.0000
  H   H1086     1.0  0.67174  0.71042  0.95075  1.0000
  H   H1087     1.0  0.66291  0.74886  0.93605  1.0000
  H   H1088     1.0  0.67763  0.76983  0.89112  1.0000
  H   H1089     1.0  0.70892  0.76100  0.78665  1.0000
  H   H1090     1.0  0.68737  0.72533  0.75016  1.0000
  H   H1091     1.0  0.65617  0.67496  0.76141  1.0000
  H   H1092     1.0  0.64563  0.66010  0.80925  1.0000
  H   H1093     1.0  0.66661  0.69499  0.84577  1.0000
  H   H1094     1.0  0.64835  0.75020  0.84476  1.0000
  H   H1095     1.0  0.63045  0.78289  0.83651  1.0000
  H   H1096     1.0  0.66325  0.83261  0.82355  1.0000
  H   H1097     1.0  0.71463  0.84961  0.81901  1.0000
  H   H1098     1.0  0.73316  0.81741  0.82792  1.0000
  C   C1381     1.0  0.50681  0.52806  0.80315  1.0000
  C   C1382     1.0  0.52197  0.55740  0.80651  1.0000
  C   C1383     1.0  0.61017  0.84159  0.68539  1.0000
  H   H1099     1.0  0.54320  0.56775  0.81475  1.0000
  C   C1384     1.0  0.51348  0.49794  0.89090  1.0000
  C   C1385     1.0  0.62278  0.86996  0.95431  1.0000
  H   H1100     1.0  0.50245  0.85642  0.89200  1.0000
  C   C1386     1.0  0.64877  0.92108  0.95291  1.0000
  C   C1387     1.0  0.53654  0.95842  0.76487  1.0000
  C   C1388     1.0  0.56701  0.54604  0.87352  1.0000
  H   H1101     1.0  0.53336  0.89647  0.80605  1.0000
  H   H1102     1.0  0.62763  0.86251  0.68097  1.0000
  H   H1103     1.0  0.54699  0.67888  0.78236  1.0000
  C   C1389     1.0  0.85761  0.54971  0.98056  1.0000
  C   C1390     1.0  0.56650  0.53078  0.85043  1.0000
  H   H1104     1.0  0.48789  0.95953  0.88132  1.0000
  C   C1391     1.0  0.47811  0.57110  0.72562  1.0000
  H   H1105     1.0  0.49429  0.89178  0.91788  1.0000
  C   C1392     1.0  0.58343  0.57564  0.87329  1.0000
  H   H1106     1.0  0.55139  0.67892  0.71027  1.0000
  H   H1107     1.0  0.56323  0.48822  0.98599  1.0000
  H   H1108     1.0  0.80243  0.94256  0.93911  1.0000
  H   H1109     1.0  0.50128  0.94635  0.82456  1.0000
  H   H1110     1.0  0.51965  0.63106  0.76305  1.0000
  C   C1393     1.0  0.86114  0.57187  0.96368  1.0000
  C   C1394     1.0  0.52137  0.93079  0.75453  1.0000
  H   H1111     1.0  0.55430  0.50791  0.85023  1.0000
  H   H1112     1.0  0.96824  0.55944  0.91324  1.0000
  H   H1113     1.0  0.57472  0.60682  0.96663  1.0000
  C   C1395     1.0  0.64657  0.86935  0.94474  1.0000
  C   C1396     1.0  0.48070  0.57565  0.69769  1.0000
  H   H1114     1.0  0.54781  0.76618  0.69916  1.0000
  C   C1397     1.0  0.51999  0.95563  0.70222  1.0000
  P   P47       1.0  0.70395  0.95333  0.93413  1.0000
  P   P48       1.0  0.50337  0.92381  0.72224  1.0000
  H   H1115     1.0  0.63561  0.78581  0.78009  1.0000
  C   C1398     1.0  0.53387  0.91365  0.79465  1.0000
  C   C1399     1.0  0.49198  0.65145  0.82649  1.0000
  H   H1116     1.0  0.60869  0.58559  0.80902  1.0000
  C   C1400     1.0  0.51991  0.90842  0.76979  1.0000
  H   H1117     1.0  0.50371  0.66444  0.72829  1.0000
  H   H1118     1.0  0.76690  0.92331  0.97590  1.0000
  H   H1119     1.0  0.50574  0.52315  0.86208  1.0000
  H   H1120     1.0  0.48582  0.58931  0.88573  1.0000
  C   C1401     1.0  0.67146  0.89460  0.93914  1.0000
  C   C1402     1.0  0.51357  0.54992  0.92319  1.0000
  H   H1121     1.0  0.68927  0.89362  0.93081  1.0000
  H   H1122     1.0  0.55928  0.94511  0.82430  1.0000
  C   C1403     1.0  0.50641  0.89636  0.70450  1.0000
  H   H1123     1.0  0.86761  0.59259  0.97201  1.0000
  C   C1404     1.0  0.56569  0.51563  0.92352  1.0000
  H   H1124     1.0  0.49492  0.69934  0.75224  1.0000
  C   C1405     1.0  0.66873  0.78465  0.75808  1.0000
  H   H1125     1.0  0.69895  0.92494  0.88279  1.0000
  C   C1406     1.0  0.56343  0.80313  0.67457  1.0000
  H   H1126     1.0  0.52212  0.59637  0.80191  1.0000
  C   C1407     1.0  0.51720  0.67127  0.81423  1.0000
  H   H1127     1.0  0.61012  0.61271  0.84980  1.0000
  C   C1408     1.0  0.48231  0.56074  0.78847  1.0000
  C   C1409     1.0  0.50984  0.57371  0.79916  1.0000
  H   H1128     1.0  0.84349  0.53722  0.90329  1.0000
  C   C1410     1.0  0.68728  0.94582  0.85297  1.0000
  H   H1129     1.0  0.66894  0.62943  0.96606  1.0000
  C   C1411     1.0  0.48582  0.61660  0.79248  1.0000
  C   C1412     1.0  0.65695  0.63153  0.98239  1.0000
  C   C1413     1.0  0.56164  0.57122  0.93999  1.0000
  C   C1414     1.0  0.55009  0.96350  0.78998  1.0000
  C   C1415     1.0  0.52698  0.66379  0.79137  1.0000
  C   C1416     1.0  0.48880  0.84396  0.87548  1.0000
  C   C1417     1.0  0.62389  0.89581  0.95840  1.0000
  C   C1418     1.0  0.51137  0.63661  0.78047  1.0000
  C   C1419     1.0  0.67832  0.78163  0.73279  1.0000
  H   H1130     1.0  0.49624  0.53464  0.91099  1.0000
  H   H1131     1.0  0.52955  0.69223  0.82285  1.0000
  C   C1420     1.0  0.69697  0.96035  0.90013  1.0000
  H   H1132     1.0  0.51555  0.83989  0.66454  1.0000
  H   H1133     1.0  0.50843  0.88699  0.76225  1.0000
  H   H1134     1.0  0.54656  0.90668  0.72296  1.0000
  C   C1421     1.0  0.53285  0.87218  0.69528  1.0000
  H   H1135     1.0  0.53674  0.50403  0.95724  1.0000
  H   H1136     1.0  0.60511  0.95884  0.78822  1.0000
  C   C1422     1.0  0.67292  0.92071  0.94371  1.0000
  C   C1423     1.0  0.54233  0.96089  0.68478  1.0000
  C   C1424     1.0  0.54745  0.69416  0.72062  1.0000
  C   C1425     1.0  0.55590  0.50520  0.94957  1.0000
  H   H1137     1.0  0.60766  0.49163  0.96966  1.0000
  C   C1426     1.0  0.84730  0.54066  0.92483  1.0000
  C   C1427     1.0  0.48651  0.87946  0.68477  1.0000
  H   H1138     1.0  0.59957  0.97225  0.74157  1.0000
  C   C1428     1.0  0.68094  0.96722  0.84793  1.0000
  H   H1139     1.0  0.55136  0.87010  0.69876  1.0000
  H   H1140     1.0  0.48491  0.65701  0.84477  1.0000
  C   C1429     1.0  0.60593  0.50874  0.93090  1.0000
  H   H1141     1.0  0.51630  0.51545  0.80869  1.0000
  H   H1142     1.0  0.62551  0.51041  0.92383  1.0000
  C   C1430     1.0  0.51111  0.97568  0.70434  1.0000
  H   H1143     1.0  0.48465  0.55707  0.73425  1.0000
  H   H1144     1.0  0.57138  0.97025  0.96916  1.0000
  H   H1145     1.0  0.48917  0.56529  0.68515  1.0000
  C   C1431     1.0  0.47928  0.51498  0.79280  1.0000
  C   C1432     1.0  0.48231  0.90227  0.91378  1.0000
  C   C1433     1.0  0.59588  0.49812  0.95669  1.0000
  Fe  Fe96      1.0  0.60659  0.68571  0.65589  1.0000
  H   H1146     1.0  0.83557  0.49745  0.93316  1.0000
  H   H1147     1.0  0.67388  0.96928  0.82798  1.0000
  C   C1434     1.0  0.70173  0.97507  0.98478  1.0000
  C   C1435     1.0  0.73934  0.93617  0.95737  1.0000
  C   C1436     1.0  0.77946  0.95806  0.91600  1.0000
  C   C1437     1.0  0.48966  0.82021  0.86628  1.0000
  C   C1438     1.0  0.76356  0.93357  0.95869  1.0000
  H   H1148     1.0  0.72418  0.92801  0.97376  1.0000
  C   C1439     1.0  0.71161  0.98136  0.95805  1.0000
  H   H1149     1.0  0.48486  0.89535  0.82365  1.0000
  H   H1150     1.0  0.79517  0.96684  0.90013  1.0000
  H   H1151     1.0  0.54491  0.79417  0.66163  1.0000
  H   H1152     1.0  0.48532  0.89150  0.98479  1.0000
  C   C1440     1.0  0.69059  0.98181  0.89483  1.0000
