data_image0
_chemical_formula_structural       FeSHSFeCHFeS2FeSHCS2HFeS3FeSFeS2FeSCFeS2FeCFeS3FeSFeS2FeSFeS3HCFeHC2SHSH2CFeS2CHFeS2FeCH2C6H4C6H6CHC11H2C6H4C3H3C3HC2H4C6H4Fe2H3C8H3C3SC3HC3HCSC3PHC5HC2HC4HC2HCHC2HCHSH6C2H2C2HPCHSC2HCHC2HCHCHC10H2C2H2CH6C3HCH2CH2FeCH3PCPCHCSHCH3FeSHCHCHC2HC3HC2H4C2HC5HC3HCSC3H2CH2C4PC21H17C3H2C2HC3HC8HSCHCH3CH6C3PHCHPC4HC4HC11HCH2C4HCH9C3H3C2H3CHC2HC2SHCH2CHC7PC10PC4H3SH10C3HSH2CHCH3C2H4C2H2CH2C2HCH3CHCHCH2CH2C4HC3FeHFeSHCSHFeS2FeS2Fe2S3FeS2FeSFeSFeS2FeS2FeCFeS3FeS2Fe2S4FeS2HSCFeSFeSCSHCH2CSHC3HC7H8CH2CH2C7H4C6HCH2C6H5C4H2C6H4C6H4C7H3CHSHCHCH4CHCHC2H5CH2CSHCH2CPH2C2H3C2HC9H12CHC4H2C4SH2C3HCSCHC2H3SCP2CHCFeHSC3SC8HCH2C2HC3H2C2HC2HC2HCHCHPHC3HPC2HCH5PC4HC10H7CH7C2HCH3C6FeHC2HCHCHC6PC18H20C3HCHC2HCH2CHC4HC2H3CH4C2H3CH2CH3SCHC4HPC8H4C4H2CH6CSHC6PC18HCH18C6PC7FeC7H2CH6SH6C9HCHC2SH2C2SHC2HCH5C2HCH2CH2C4SCSHFeS2CSHFeSFeSHSFeHSFeS2FeSCFeS2FeSFeS4FeSHFeSPFeCFeSHSHS2C2H4C5HCHC7H4CHSHC7H4C6H4FeC2HCHFeHCHC6H4C6H4S3C2H5CH2CSCHCFeC5PC18H8SH3CH3C7PCH2PC12H3C2HCH7CFe2C6PC18H21C3H3FeHCH7CH3C2HC2H2C2HC2HCSH2C2HC3PC18H7CH14C6PC18H22CHCHCH2CHCSCHC6FeC3PCHC6H2SH2SCHC2FeH2SC2HCHFeSHC2SC2HC5H2C2HS2CH3CH4CH2CHC2H2PH2C3H2C2H2C9H4C4SH3CFeC4H2CH3C3HC2H2CHC4H2CH2SH4C2H5CH2CSHC4HCHCHCHCHCHCH3CHC3PCSC2HCHC5FeS2FeS2HCFeSFeS2C2HFeS2CSFeSFeS3FeS2FeS2FeSHS2FeS2FeSHFe2SCSH2SCH2C4H2C6H4C4H2C6H5C6H4C6H2CHFeSHC6H4CFeSC2H2CHC2HCHC2H2C2HC2H2CH2CHC2SH2CS2HC2SC2HCSHC2H4C2HCHFeCFeC2H2C3SFeHC2H2C2HSHC5H2C3H2CHC9SHC2HCH2C3HCH8C2H2SH2PCHC4PC14H14CH2CHFeC5SCH2CH4C2SH5C5HCH2CH2CH2C5HC4HPH4CSC2FeC2FeHC2H3FeC6PC18H18C9H2CH2C2HFeH2FeHC2SH4CHCHC3H4C2H2C6PC3H2C8HC2HCH2PC2H3CHC2H3SFeS2FeS2FeCFeS3CFeS2HCFeSFeHS2FeS2FeS2FeSFeS3CFeS2FeS2FeSFeS3H3PHC2SC2HC2HC2HC2SC2FeCHC6H4C2HSHCHCFeHC2HC3H2C6H4C4H3C4H3C2SHC4H5CHCH2C12H4C5H2C6H2CH2CHCHC4HCHCH2C2HSH3FeCH2PC2HCHC2H4C7PC18H20PSFeCHCHC5HCHC2H3CHC6PH3C3H2CHC2H5CHCHCHCHSCFeHC3HCH2FeC2HCHC2H3CH2CH3FeHCPC2HC11H5CH4C2SHCHCH2C4H4CHCH3C5HC6HCH7CH2CFeCHC2H3SCHC2HCHC3H2C2HSCH2C3SHCHC8PC4H4CHC2H7CH2CH4C4HC2H4C2HSC3HC2HC3HPHC3H3C6PC2HFeHC13H6C3H9CPC3HCHC2HC3SHC3HC2HSCH2C3H2CSHSH6C2HC3H2C2H2C2H2C3HCHCH2PC2HCHC5HCH2CH3CH3CHS2HC2H5C2SCHCSC2HCFeS2FeSFeSFeS4H2FeS2CFeSHSFeCSFeS2CFeSCSCSFeS2FeSFeS2FeS2FeS2FeSFeS3CSCHC3H2C6H4C4H2C8H4C6H4CH3C2H2C6H4C2H2C2HCFeHC5H2C6H3C5HC3HCH3C2H3CH2C2PHC4HCH4SHFeH2CHC3H2FeSCHCHCH4SC2HCH2CH5C6PC18H18CHC2H4CHC3HCH2C6PC16H11CHCHCH2C5H3C7H3CH2CH3CH2C4H2C2HCH3SCH2CHC7PC7HC6H3CH13PH2C2PHCHSC3HPC2HCSC3HC2HC3HCH2C4HC3H2CHPHPCHC6H3C3HC2HC4H5CHCH2C2SH2C2HCPHC7HC3SH6CHC2H3CH3C5SHCHC3H2SC3HCSCHCHC2FeCHCH2CSH3CHCHCHC3H2C2HCHC2HC3HCH2C3H4C3HC4H2C2H3C3HC2HCH2C2HCHC2H4SHFeCH4C2H2CH2CHC2H2CPHC5H3CHC2HC3H5C3HC7H2C2H2C2HC3HCPC5HC3H6C4HCFeS2FeCSFeHSC2FeS3HFeS2FeS2FeSFeS5HS2FeS2FeSCFeSFeS3HC2H3SC3H2C6H4C6H4C6H3C2H2C2H2C7H4C2HC6H2C13H4C6H6C2PC9HC4HCSH7CHCH2CHC5HC4H8C2HCHCHC4HSCH5C2HCHC2HCH3CH2C3HCH2C5HC3HC8HFeHC2FeC8H3CFeH2SC6HCH3CH2C2H3C3H4PC2HC4PC18H6CH9CH3PH2CPHC4H2CH3C3SH2CH5CHCHC2HCHC2HC6PC14H3CH7CH11C3H2CHCHCHC2H3C2HCHFeHPC5PC3HC3FeC2SC2HSH8C3HC2HC2H2C2H5C5SHC12PH3CH2SHC2HC2HC2H2CH2CH2C3PCHCHSHFeC2HPC9H2CSCHCH3SFeSHSH2CH3FeCH3C3H2C3HCHCPC3HCH3C2H2CHC3HCH2C3H4CHC3H2C2H2CHCH2C5H3CHCHCHCH6C7H2SHCH2CHCH2C6SC2HCHCH2C2HS2C3H3PHCH2FeCH2CSH2FeS2FeS2FeSFeS3FeS2FeS2FeSFeS3H2CHS2FeS2HFeSHC2FeSCFeS2FeSFeS2CH2CH2CH12C7H5PC9H4C6H3C7H4CH3FeCHCH2C3H2C6H4C6H4CH2C6HCH4C3H2C4H2CHCSHC3PC9HC9HC2H2CH5CH3CH3C2H3C6PC14H14C6PC9H2C7H10C3H6CHCH3CHC3SH2CPCH4C4PC10H8SHC7HC3HC3HC2H2C3HCH5SC2H4CHC4H3CSCHCH2CHCSCH2C2HCHCHC3H2C2HC2H2C2PHC9H3C4H4C3H7C2H2C3FeH2C2PCH4CHCHC5H2C2PC3HC2HSH2C3HC3H2CHC2H2C3HCH3C2HCFeH2CH2C2HCHSFeHSCH2CHCH2SHC2H4C2HC4HCSH2CH2C2FeC2HFeCHCH2C2HCH2CSCHS2CFeC2HC6HC2H3C2HCH2SH2CHC3HC2HC2H2CHC3PH2C2PC6HCH3SHC2H2C2H2CHCHC4HSC2HC5HC2HSCH2CHSH4CHCH3FeHSCPC2FeS2FeS2FeSFeS3H3C2HCHPHC8FeS2FeS2FeSFeS3HSCHC4HCH3C6H4C6H3C3HCHCH5C6H4C2HC2H2CH2CHC4H7C3H3C6H4C2HCH3SC6HS2HC3HC3HFeCHC3H4C7PC18H14C5HC2H2C2HC2H3CHC3H2CPHCHCHCH2C3H4C7HPC2H2C10PHC3HCHC2HC3H6CHC8PC2HC3HC2HC7H6CH3C2H3CPH2CH8C2HPH6CH2CH2CH2C3HCSC2H2C3HCH3C3HCH3C3HCH2C2H2C2FeCH2CHC6HCHC2H2CHFeS2CHSCFeS2FeS2FeSFeS3HCSFeS2FeS2FeSFeS3CHCH2C2H2C2HC4HCHC2HC4H3C6H4C6H5CHC2HC3HCH3CH2C2H3C6H4CHCHCH3CHC3H2CHC3H4C3HSHCHC2PCH3C2HCHC5HCH2C5H3CHCHCH4CH2CH5CHCHC3FeC2HC2HCHC5HCH2C3H4CH3FeH2C7HCSPC8H3CHC2PH2C3H3C4H2CH2C7PC20H18C7H2C2HCHCHC2H2CPC3H2C2HCH2C2SH6C2H3C2HC6H2CFeHCH5CH2C2PC4H2C2H3CHCH2CH2CHC3HC2HC4HFeSC2H2C2PH3C2HSHCFeSHCHFeS2FeS2FeSFeS3C2H4CSC5H2FeS2FeS2FeSFeS3C5HCH2CH2C6H4CHC2PCHC7H4CHC6H2C6H5C5H2CH4CHC2HC3HCH4C5H2C3HC3HC4HCHCHC2H2C2H2C2H2C4PC2HC2H3CHC3H2C2HC3PC3HC6PC18H18CHC2HC3H6CH3CH2SC2H5C2HCH2CHC3HCSCH2CH2C2H2C2HC2H2CHC2H2CH4C2H3CH2C2H3CHC2HCH2C4HCHCH2C3PC2HCHCHC3HC3SHCH2PCH3SCHC9PHC2SHC5HCSFeS2FeS2FeSFeCS2HC2H2C5HCHPFeS2FeSCFeSHFeSFeHSHC6H4C3HCH4C4HCH4C2H3C8HCH2C3H2CH5C2SH2C3HFeC3HC2H7C7H5CH2CHCH2CHCH2C2HC7PC4H2C2H2C8H6C2H4C2H6C3H2CHC3HPC4HCHPHCH3CHCH7CHCHCHCH3SHC2PC3HC4HC2H3CHC2HCHCHC2H2C2HC3HC4H2CHC2H4C3HCHC5HCH3CHC3HSH4C12SH3C5H2C3H2C2H2C3H2SCH2SH2CHFeHCPC2HC3H2C2HCH2FeSCFeS2FeSFeS3CHC2FeS2HSFeHFeS3HSHCFeS2CSCH2CS2FeS2FeSHFeSHSC3FeS2C2FeS2FeS2C6H3CHC4HCH2C6HSH2PC6H4C5HCHC6H4C3PC2FeHCHC6H4C8H4CHCHCFeHC4H3C4H4CHC2H2C2HCHFeHC2HCFeH3FeCH2C5H6C5SC4H3CH3C2H2SHC2HC2PCHPHCHC4HSH3CH3CH2C2HCH3C3H2CH2SCHSHC2HC3HCSC2HCHC2HCHCSH2C4HCHCH3C2H3CHC7SH3C5HCHCH5CHC2SHC4PC14HC3H16CPHC6PC14HCHFeH2PCSH7CHC3HCH3SC6HCH2CSHCH2CH2SC8PC3H2C5HC7HCH3CHCH6CH5CHCHFeSCHSCH3CHCHC3H2C3H2C2HC2HC3HFeSC2H2C2HCFeCH2FeCSC6HC3H2PCHCH2FeHC5SCPCHC3H2SC5HCHC2H2CHSHC2HCHC3HSH3CHC2H3S2C3PH6CHC2HC2HPHCFeH3C2FeH2C2H3CFeCHCH4CH5C3H2CH2C2HC2HSFeC3FeCPSCH4CH5CHC6H2C2H2C3H2C2HC2H4CH2C2HCHCHC3HCHCHCHCHCH4C2H7CSC2HC3SCHCH3C2H3CHCH2C4FeCFeS2FeS2FeSFeCS2FeCSFeSCFeC3S3FeSFeSFeSFeS2FeSFeS3HCHFeS2CSHFeS3PSFeSCSHCSC6H3C2H5C4H3CHSH2C6H4C2HCHCHC6H4C6H3C6H2C2FeHPHCHC6H4C6HCH2C2HC3H2CFeHC6PC15PC2H11CSH4CHSC6PC5HC8H9SH7C7H9CH2SC2HC6H2CHC2HC5HC2PC18H4CHCH9CH4CH4SCH2C2SHCHC2HC2HCH2CHC3HCHC2H3C3H2C2HFeC3S2C2H4C2H3CHCHC4HSH2CH2CSCHCHPH3C2H2CFeCH2FeHC9PC14HC3HCH9CH7SHC3FeH3CHCH2CH2SCH4CHC2PC2HCFeSC2HSHCHS2H2CHSH4C4Fe2HC4H2C2HPH2CH2C2PH2C3HCH2CHC7HSH3CHSH2CH3CHC3HCH8C2HC2H2C3HCHC3H2CHC2SHC3FeH2CH2CSC2HC2H2CH2C2HC4HC3HCH2C4HC2HCFeC8HCHCH2CHCH2CHC2HFeCHC3H2CHCH2C3HCH7CHFeC4HCHCH3C2SH2C3HCHCH2C5H2C3HCH2FeC4H2C2HFeCH5CSFeS2FeSHFeSHSFeS2FeS2FeSFeS4CHFeS2CFeSHFeSHCHSC3HCH2FeH4SHFeS2FeHFeHSFeCSFeSHSC6SH4C6H5CHC2H5CHSHC6H4SHPFeC8H4CH2C6H4C6HCHC6H4C4SCHC2HC6HC6SH2SH3C2FeSCHC3H3CHC4HCH6CH4C3HCSCHCH2C3H2FeH2CHC2H2C5H2CHCFeC2SH2C3H4CH4C6PC18H18C2HC3H4PCHCH2CH2C6HC2HCHCSC2HCH8C6PC18H19C5HCH3CSC3HPC7PCH2CHSCH2SC2H4CH3CSFeC2PC2FeC10H2CSH8C6PC6HC8H12SCH2C6PC18HC2H5CH13C2H4C2SCHCHC3H2PC5FeC4H2C6HSHCHC2SH3FeCH8CHC2HC3HSH3FeCHSHC3HCHCHCHC2H3CH2CH2C2SC3HCH2SC4SC3H2SHSCHC4H2C2FeSH2C3H3C2HCHC2HCFeSFeS2FeSFeS4H2CHCHFeS2FeS2FeSFeS3HCFeSFeS2FeS2H3SHFeCSH2FeS2CH4FeS2FeS2FeHFeS3HC4H4C6SH5C6H2FeCH2C4H2C4H2C6H5C2HCH2C6H4C6H4C6H4C3HCHCHCPC6H2C5H5C2HC2H3C3PC19H16C2HSHCHC3HC2SC5HC6H2CH3CH2CHCSC12HCHCH4SH3C6HSH2PC3HC4HCHC2HCH4S2H3FeHC6PHC8HC2H12CH2C3PC11H2C2SCH12CHCH5C3SH2PCH2C4H2C3FeC3H3C4H2CH3SH3C9HSH7C2HC3PC4HC2HCH2C3SCHCHPCFeC7PC18H18C5H6C3HCH2CHSC2H2CH2C2HCPC2HCHC3H2C4H2CFe2C2HCSCH2CH3FeSH2CFe2CHCH2CHCHCHSC5FeCPH2SC3SHCH2C4HC2HCHC3H3C4H2PHPCH3CHCH2C4SC3H4CH3SCH2C2HC2H2C2H3CPC5H2C7H2C2SCHC2HCHC2H2SC3SCH2CSH2C2H2C3HC5PCFeCH4C2SC6HSHC2HCHCHCHCHCH3C2HC4HCHC4H2C8FeS2FeS2FeSFeS3H2C2H2SHFeS2FeS2FeSFeS3H6C2H5CHC3HC2H2CHC6H4C6H6C6H4C6H2CHC3HC5H3C8H4C3HCHC3H2CHCH4CHC3H3PC9H2CHC6PC18H20C6PC2HC2H3CPH2C3HCHC10H5CH4CFeC3H2C6HCHC4H2C6PC7HC2HC6H3CH5C5H3C4H2CSH4C6PC4H2C9HC4H2CH2CHCH5CHCH2CPH2CSHC3HCHCH6C2H12CH3SHC3H3C5H3CH3C2HC3H2CS2HC2HC2H3FeS2FeS2FeSFeS3C2HCHCH3CSPC2HC2FeS2FeS2FeSFeS2HCH2CSCHC2H2C5H2C4H2C2HC4H3CHC2HCH3CH2C8H4C6H2CHCHCH2C5H3C8H5C2HCSHC2HCHC2HCH2C2H2CH2SC2HCH2C2H2CH2C2HC5HCHC8PC18H21CH2PC6HCH6CH2C4HCH5CH2C6HCH3C4SH4C2H2CPHC5HCH3C2HC2HPC2HC3HCSC2H4CFeHCH2CPCFeCH2C2HCH2CHCHCHC2HCH2CH2CH2C3H2PCHCH2CPCHSCHCHSHFeS2FeS2FeSFeS4H2SFeSCHC5HFeHFeS2FeS2FeSFeS3CHC10H2CHC6H5C3H2CH2C6H4C6H3CHCHSHC3H2C6H4C6H3CH3C2FeCH2C5HC2H2CH5C5PC2H3C12H3CFeH2CH10CH3C3H2C4HC5H2CHCH2C2HCH2CHC2H6C2HC4FeCHC4SH7C2H3C7HSH4CH2C6PC18H4FeHCH11CH2C3PC13HCH2CSCH13C4HCH2CH2CHC5H4CHC4HPC3SC8PC2HPCHC6H5C2HCHCHC2H2CHCHC2PH2CHCH2CH3C5FeC2HC2H2CH2CSC3SCH5C2H3C2H2CHC2SPH2SCHCPS2FeS2FeS2FeSFeS3CFeS2FeS2FeSFeS3C4HC2H2CHC6H3C6H4C6H4C6H3C6H4C7H8CHC3H2CHCHCHCHC3H2CH3C2H5CPHC2H2CSH2C2HC3HPCHC2HCHCHCHC4HC2HCH2C3HC2H2C2HC6HCH2CFeCHC2FeHC3H4CH2CHC5HCH2C3HC2H2CH3C3HC2HC2HC2H2CHCH2CH3CH2C4H2CHC4HCH2CH3CH3C4PH2C2H5CH5CH2C2HC6HC3HC8H2C2HC2H2CHC3HC4H2PCHCH3C6PCH3CHC4SHSCHC2H2C2H3CPCH3CH10C2HPH
_chemical_formula_sum              "Fe384 S768 H4608 C5760 P192"
_cell_length_a       74.7559
_cell_length_b       73.9923
_cell_length_c       74.6813
_cell_angle_alpha    74.3889
_cell_angle_beta     74.7974
_cell_angle_gamma    74.7675

_space_group_name_H-M_alt    "P 1"
_space_group_IT_number       1

loop_
  _space_group_symop_operation_xyz
  'x, y, z'

loop_
  _atom_site_type_symbol
  _atom_site_label
  _atom_site_symmetry_multiplicity
  _atom_site_fract_x
  _atom_site_fract_y
  _atom_site_fract_z
  _atom_site_occupancy
  Fe  Fe1       1.0  0.13602  0.44829  0.20066  1.0000
  S   S1        1.0  0.12114  0.42407  0.21739  1.0000
  H   H1        1.0  0.16889  0.15744  0.38631  1.0000
  S   S2        1.0  0.16484  0.43951  0.18296  1.0000
  Fe  Fe2       1.0  0.16498  0.34649  0.07759  1.0000
  C   C1        1.0  0.00535  0.32536  0.13069  1.0000
  H   H2        1.0  0.99683  0.42552  0.14926  1.0000
  Fe  Fe3       1.0  0.13446  0.38329  0.07664  1.0000
  S   S3        1.0  0.15412  0.40112  0.05578  1.0000
  S   S4        1.0  0.10541  0.39940  0.08795  1.0000
  Fe  Fe4       1.0  0.16327  0.37626  0.04112  1.0000
  S   S5        1.0  0.16841  0.37803  0.00945  1.0000
  H   H3        1.0  0.00417  0.24013  0.28689  1.0000
  C   C2        1.0  0.16326  0.29783  0.44769  1.0000
  S   S6        1.0  0.14205  0.35960  0.06078  1.0000
  S   S7        1.0  0.15491  0.36823  0.09574  1.0000
  H   H4        1.0  0.09325  0.31465  0.38556  1.0000
  Fe  Fe5       1.0  0.03787  0.39328  0.20074  1.0000
  S   S8        1.0  0.06050  0.36693  0.19761  1.0000
  S   S9        1.0  0.04443  0.42237  0.19686  1.0000
  S   S10       1.0  0.02575  0.34464  0.20429  1.0000
  Fe  Fe6       1.0  0.04129  0.35195  0.22228  1.0000
  S   S11       1.0  0.05380  0.32752  0.24377  1.0000
  Fe  Fe7       1.0  0.04314  0.36178  0.17998  1.0000
  S   S12       1.0  0.05716  0.34856  0.15477  1.0000
  S   S13       1.0  0.02183  0.38942  0.18084  1.0000
  Fe  Fe8       1.0  0.15940  0.24950  0.41797  1.0000
  S   S14       1.0  0.16048  0.22241  0.44073  1.0000
  C   C3        1.0  0.03711  0.26892  0.44066  1.0000
  Fe  Fe9       1.0  0.12197  0.24727  0.41004  1.0000
  S   S15       1.0  0.11943  0.22026  0.43221  1.0000
  S   S16       1.0  0.10335  0.26407  0.38915  1.0000
  Fe  Fe10      1.0  0.12933  0.23388  0.45054  1.0000
  C   C4        1.0  0.10072  0.43595  0.14736  1.0000
  Fe  Fe11      1.0  0.15053  0.21078  0.42075  1.0000
  S   S17       1.0  0.16403  0.18291  0.41115  1.0000
  S   S18       1.0  0.12906  0.26176  0.42921  1.0000
  S   S19       1.0  0.15229  0.23691  0.39730  1.0000
  Fe  Fe12      1.0  0.13804  0.13231  0.33306  1.0000
  S   S20       1.0  0.14425  0.11189  0.36000  1.0000
  Fe  Fe13      1.0  0.09786  0.12695  0.34059  1.0000
  S   S21       1.0  0.10021  0.10629  0.36848  1.0000
  S   S22       1.0  0.07285  0.13365  0.32671  1.0000
  Fe  Fe14      1.0  0.11540  0.12666  0.37322  1.0000
  S   S23       1.0  0.10835  0.13641  0.40098  1.0000
  Fe  Fe15      1.0  0.12865  0.09332  0.35289  1.0000
  S   S24       1.0  0.13912  0.06128  0.35572  1.0000
  S   S25       1.0  0.11034  0.14853  0.34665  1.0000
  S   S26       1.0  0.12527  0.11252  0.32460  1.0000
  H   H5        1.0  0.05791  0.44830  0.16237  1.0000
  C   C5        1.0  0.14292  0.39186  0.13205  1.0000
  Fe  Fe16      1.0  0.10810  0.99214  0.31642  1.0000
  H   H6        1.0  0.14957  0.46618  0.25897  1.0000
  C   C6        1.0  0.12252  0.44103  0.08287  1.0000
  C   C7        1.0  0.15669  0.36516  0.98411  1.0000
  S   S27       1.0  0.14511  0.46736  0.21408  1.0000
  H   H7        1.0  0.18065  0.27346  0.46277  1.0000
  S   S28       1.0  0.09291  0.02079  0.32362  1.0000
  H   H8        1.0  0.03011  0.41010  0.13754  1.0000
  H   H9        1.0  0.07132  0.13159  0.46485  1.0000
  C   C8        1.0  0.18038  0.42582  0.27548  1.0000
  Fe  Fe17      1.0  0.01641  0.24505  0.36758  1.0000
  S   S29       1.0  0.03172  0.25739  0.33854  1.0000
  S   S30       1.0  0.02822  0.23716  0.39418  1.0000
  C   C9        1.0  0.11155  0.35934  0.46838  1.0000
  H   H10       1.0  0.17065  0.39785  0.42803  1.0000
  Fe  Fe18      1.0  0.02100  0.23688  0.32870  1.0000
  S   S31       1.0  0.03566  0.22149  0.30505  1.0000
  S   S32       1.0  0.00839  0.22251  0.35801  1.0000
  Fe  Fe19      1.0  0.00569  0.37261  0.20685  1.0000
  C   C10       1.0  0.01049  0.17498  0.35366  1.0000
  H   H11       1.0  0.11272  0.36169  0.14146  1.0000
  H   H12       1.0  0.17571  0.48136  0.22369  1.0000
  C   C11       1.0  0.12586  0.05009  0.34720  1.0000
  C   C12       1.0  0.13229  0.03071  0.34623  1.0000
  C   C13       1.0  0.12244  0.02171  0.33874  1.0000
  C   C14       1.0  0.10572  0.03190  0.33269  1.0000
  C   C15       1.0  0.09904  0.05120  0.33397  1.0000
  C   C16       1.0  0.10916  0.06033  0.34106  1.0000
  H   H13       1.0  0.14499  0.02268  0.35111  1.0000
  H   H14       1.0  0.12775  0.00688  0.33770  1.0000
  H   H15       1.0  0.08610  0.05915  0.32930  1.0000
  H   H16       1.0  0.10404  0.07528  0.34176  1.0000
  C   C17       1.0  0.06225  0.15806  0.32142  1.0000
  C   C18       1.0  0.05324  0.16496  0.30597  1.0000
  C   C19       1.0  0.04488  0.18443  0.30119  1.0000
  C   C20       1.0  0.04496  0.19696  0.31223  1.0000
  C   C21       1.0  0.05365  0.19005  0.32790  1.0000
  C   C22       1.0  0.06260  0.17064  0.33232  1.0000
  H   H17       1.0  0.05324  0.15531  0.29738  1.0000
  H   H18       1.0  0.03836  0.18980  0.28894  1.0000
  H   H19       1.0  0.05411  0.19983  0.33607  1.0000
  H   H20       1.0  0.06981  0.16546  0.34406  1.0000
  H   H21       1.0  0.12236  0.39236  0.18343  1.0000
  H   H22       1.0  0.06432  0.45271  0.19017  1.0000
  C   C23       1.0  0.02216  0.33587  0.27132  1.0000
  H   H23       1.0  0.01948  0.35004  0.26244  1.0000
  C   C24       1.0  0.18541  0.10345  0.22483  1.0000
  C   C25       1.0  0.15691  0.35994  0.14747  1.0000
  C   C26       1.0  0.99542  0.36485  0.09971  1.0000
  C   C27       1.0  0.00767  0.11251  0.30133  1.0000
  C   C28       1.0  0.17672  0.08174  0.16476  1.0000
  C   C29       1.0  0.14866  0.16978  0.40852  1.0000
  C   C30       1.0  0.13040  0.17068  0.41975  1.0000
  C   C31       1.0  0.11842  0.15991  0.41769  1.0000
  C   C32       1.0  0.12427  0.14880  0.40386  1.0000
  C   C33       1.0  0.14252  0.14795  0.39254  1.0000
  C   C34       1.0  0.15476  0.15823  0.39503  1.0000
  H   H24       1.0  0.12570  0.17942  0.43023  1.0000
  H   H25       1.0  0.10453  0.16029  0.42669  1.0000
  C   C35       1.0  0.08312  0.25570  0.39002  1.0000
  C   C36       1.0  0.07143  0.26557  0.37703  1.0000
  C   C37       1.0  0.05472  0.25974  0.37795  1.0000
  C   C38       1.0  0.04963  0.24406  0.39192  1.0000
  C   C39       1.0  0.06148  0.23401  0.40470  1.0000
  C   C40       1.0  0.07823  0.23976  0.40373  1.0000
  H   H26       1.0  0.07515  0.27793  0.36641  1.0000
  H   H27       1.0  0.04552  0.26771  0.36822  1.0000
  H   H28       1.0  0.05787  0.22156  0.41517  1.0000
  H   H29       1.0  0.08720  0.23197  0.41370  1.0000
  C   C41       1.0  0.03787  0.32209  0.26537  1.0000
  C   C42       1.0  0.04126  0.30376  0.27700  1.0000
  C   C43       1.0  0.02907  0.29924  0.29460  1.0000
  H   H30       1.0  0.15992  0.38723  0.26972  1.0000
  H   H31       1.0  0.05326  0.29300  0.27234  1.0000
  H   H32       1.0  0.03173  0.28504  0.30339  1.0000
  C   C44       1.0  0.15137  0.37148  0.00123  1.0000
  C   C45       1.0  0.13254  0.37292  0.01117  1.0000
  C   C46       1.0  0.11919  0.36805  0.00400  1.0000
  H   H33       1.0  0.16918  0.34504  0.43339  1.0000
  C   C47       1.0  0.05095  0.25541  0.44963  1.0000
  C   C48       1.0  0.11653  0.40430  0.17312  1.0000
  H   H34       1.0  0.12819  0.37804  0.02423  1.0000
  H   H35       1.0  0.10464  0.36931  0.01172  1.0000
  H   H36       1.0  0.02243  0.29696  0.22862  1.0000
  H   H37       1.0  0.10401  0.99012  0.40513  1.0000
  C   C49       1.0  0.09242  0.38521  0.10684  1.0000
  C   C50       1.0  0.09471  0.36573  0.10749  1.0000
  C   C51       1.0  0.08358  0.35468  0.12219  1.0000
  C   C52       1.0  0.07103  0.36275  0.13682  1.0000
  C   C53       1.0  0.06926  0.38210  0.13661  1.0000
  C   C54       1.0  0.07956  0.39348  0.12129  1.0000
  H   H38       1.0  0.10462  0.35933  0.09635  1.0000
  H   H39       1.0  0.08460  0.33988  0.12221  1.0000
  H   H40       1.0  0.05965  0.38836  0.14798  1.0000
  H   H41       1.0  0.07784  0.40858  0.12079  1.0000
  Fe  Fe20      1.0  0.17328  0.46037  0.19467  1.0000
  Fe  Fe21      1.0  0.15571  0.46471  0.16056  1.0000
  H   H42       1.0  0.08055  0.24838  0.45163  1.0000
  H   H43       1.0  0.11253  0.39644  0.42981  1.0000
  H   H44       1.0  0.99834  0.34230  0.29392  1.0000
  C   C55       1.0  0.14061  0.35344  0.14827  1.0000
  C   C56       1.0  0.09965  0.42385  0.21186  1.0000
  C   C57       1.0  0.08938  0.44033  0.20182  1.0000
  C   C58       1.0  0.07229  0.43981  0.19762  1.0000
  C   C59       1.0  0.06558  0.42271  0.20299  1.0000
  C   C60       1.0  0.07579  0.40623  0.21312  1.0000
  C   C61       1.0  0.09268  0.40687  0.21770  1.0000
  C   C62       1.0  0.15996  0.39088  0.24032  1.0000
  H   H45       1.0  0.14724  0.13934  0.38192  1.0000
  H   H46       1.0  0.07059  0.39306  0.21756  1.0000
  H   H47       1.0  0.10047  0.39411  0.22559  1.0000
  C   C63       1.0  0.17033  0.31099  0.17540  1.0000
  C   C64       1.0  0.10394  0.45767  0.10776  1.0000
  C   C65       1.0  0.12840  0.34791  0.43961  1.0000
  S   S33       1.0  0.10720  0.35602  0.97819  1.0000
  C   C66       1.0  0.99439  0.16246  0.29092  1.0000
  C   C67       1.0  0.14454  0.31670  0.04545  1.0000
  C   C68       1.0  0.10445  0.47526  0.09463  1.0000
  H   H48       1.0  0.17119  0.36398  0.97639  1.0000
  C   C69       1.0  0.16639  0.28040  0.46081  1.0000
  C   C70       1.0  0.09107  0.47758  0.13971  1.0000
  C   C71       1.0  0.17028  0.38698  0.44111  1.0000
  H   H49       1.0  0.18312  0.15792  0.27586  1.0000
  C   C72       1.0  0.12361  0.45853  0.07005  1.0000
  S   S34       1.0  0.17227  0.31454  0.08892  1.0000
  C   C73       1.0  0.99966  0.17773  0.32500  1.0000
  C   C74       1.0  0.05287  0.12367  0.37963  1.0000
  C   C75       1.0  0.02918  0.45324  0.13221  1.0000
  P   P1        1.0  0.13866  0.32895  0.15921  1.0000
  H   H50       1.0  0.17853  0.28029  0.00504  1.0000
  C   C76       1.0  0.12451  0.36170  0.98687  1.0000
  C   C77       1.0  0.07445  0.27402  0.43067  1.0000
  C   C78       1.0  0.99991  0.37080  0.07984  1.0000
  C   C79       1.0  0.99291  0.23175  0.26731  1.0000
  C   C80       1.0  0.18639  0.35979  0.46146  1.0000
  H   H51       1.0  0.16670  0.43528  0.25119  1.0000
  C   C81       1.0  0.10814  0.37810  0.45772  1.0000
  C   C82       1.0  0.12670  0.38544  0.13281  1.0000
  H   H52       1.0  0.11186  0.42685  0.11119  1.0000
  C   C83       1.0  0.04214  0.28435  0.42624  1.0000
  C   C84       1.0  0.13060  0.30842  0.40610  1.0000
  C   C85       1.0  0.06083  0.28682  0.42117  1.0000
  C   C86       1.0  0.11450  0.47567  0.07591  1.0000
  H   H53       1.0  0.01561  0.14658  0.37115  1.0000
  C   C87       1.0  0.18065  0.19866  0.33375  1.0000
  C   C88       1.0  0.00452  0.18621  0.33714  1.0000
  H   H54       1.0  0.02963  0.23573  0.43503  1.0000
  C   C89       1.0  0.99590  0.18613  0.25440  1.0000
  H   H55       1.0  0.00077  0.22788  0.43219  1.0000
  C   C90       1.0  0.13861  0.44770  0.98487  1.0000
  C   C91       1.0  0.01176  0.16629  0.27957  1.0000
  H   H56       1.0  0.18574  0.13285  0.22342  1.0000
  C   C92       1.0  0.07950  0.21136  0.47388  1.0000
  H   H57       1.0  0.14915  0.33301  0.01670  1.0000
  S   S35       1.0  0.18674  0.36177  0.05713  1.0000
  H   H58       1.0  0.09446  0.45354  0.19750  1.0000
  H   H59       1.0  0.18605  0.17228  0.30128  1.0000
  H   H60       1.0  0.13054  0.32526  0.04940  1.0000
  H   H61       1.0  0.12428  0.44789  0.14739  1.0000
  H   H62       1.0  0.11555  0.30367  0.45245  1.0000
  H   H63       1.0  0.09338  0.39195  0.17328  1.0000
  C   C93       1.0  0.06003  0.45924  0.11466  1.0000
  C   C94       1.0  0.16856  0.08693  0.25448  1.0000
  H   H64       1.0  0.16021  0.01872  0.29574  1.0000
  H   H65       1.0  0.13217  0.04474  0.29345  1.0000
  C   C95       1.0  0.12979  0.29747  0.45482  1.0000
  C   C96       1.0  0.18680  0.37375  0.44459  1.0000
  H   H66       1.0  0.13775  0.42032  0.17019  1.0000
  P   P2        1.0  0.09012  0.45691  0.13162  1.0000
  C   C97       1.0  0.11512  0.38188  0.43808  1.0000
  H   H67       1.0  0.17643  0.98596  0.30662  1.0000
  S   S36       1.0  0.17854  0.27085  0.40583  1.0000
  C   C98       1.0  0.18585  0.14258  0.28093  1.0000
  C   C99       1.0  0.99332  0.24389  0.27856  1.0000
  H   H68       1.0  0.11885  0.98974  0.37142  1.0000
  C   C100      1.0  0.14490  0.30644  0.44457  1.0000
  H   H69       1.0  0.13054  0.36995  0.41382  1.0000
  C   C101      1.0  0.00734  0.30915  0.16317  1.0000
  C   C102      1.0  0.16213  0.31409  0.15962  1.0000
  H   H70       1.0  0.16014  0.32410  0.38839  1.0000
  C   C103      1.0  0.01251  0.17803  0.26137  1.0000
  H   H71       1.0  0.17468  0.08555  0.15027  1.0000
  C   C104      1.0  0.18240  0.07195  0.20226  1.0000
  H   H72       1.0  0.14909  0.45640  0.09842  1.0000
  C   C105      1.0  0.01153  0.12519  0.31016  1.0000
  C   C106      1.0  0.04742  0.15370  0.47288  1.0000
  C   C107      1.0  0.02117  0.09600  0.29792  1.0000
  C   C108      1.0  0.03878  0.09226  0.30288  1.0000
  C   C109      1.0  0.04301  0.10519  0.31097  1.0000
  C   C110      1.0  0.02955  0.12166  0.31444  1.0000
  C   C111      1.0  0.03511  0.44990  0.14927  1.0000
  C   C112      1.0  0.14398  0.06465  0.30088  1.0000
  C   C113      1.0  0.12518  0.42009  0.16569  1.0000
  C   C114      1.0  0.01851  0.40529  0.13530  1.0000
  H   H73       1.0  0.02570  0.44585  0.16278  1.0000
  H   H74       1.0  0.18017  0.02905  0.34216  1.0000
  C   C115      1.0  0.15290  0.37226  0.47149  1.0000
  C   C116      1.0  0.15336  0.38632  0.45462  1.0000
  H   H75       1.0  0.09278  0.29586  0.15037  1.0000
  H   H76       1.0  0.00604  0.29681  0.17480  1.0000
  C   C117      1.0  0.16886  0.08825  0.19632  1.0000
  H   H77       1.0  0.18151  0.31473  0.00776  1.0000
  H   H78       1.0  0.17626  0.27924  0.06445  1.0000
  H   H79       1.0  0.01805  0.08612  0.29133  1.0000
  H   H80       1.0  0.04925  0.07946  0.30028  1.0000
  H   H81       1.0  0.05682  0.10258  0.31447  1.0000
  H   H82       1.0  0.03352  0.13162  0.32022  1.0000
  C   C118      1.0  0.10414  0.30351  0.14348  1.0000
  C   C119      1.0  0.15226  0.30152  0.05883  1.0000
  C   C120      1.0  0.06348  0.20127  0.45514  1.0000
  H   H83       1.0  0.14367  0.29822  0.40806  1.0000
  C   C121      1.0  0.12165  0.34428  0.45940  1.0000
  H   H84       1.0  0.18719  0.05497  0.31196  1.0000
  H   H85       1.0  0.15582  0.10583  0.17315  1.0000
  C   C122      1.0  0.16835  0.38718  0.30339  1.0000
  H   H86       1.0  0.00345  0.21855  0.26706  1.0000
  H   H87       1.0  0.17164  0.01270  0.37542  1.0000
  Fe  Fe22      1.0  0.00333  0.27652  0.33601  1.0000
  C   C123      1.0  0.18799  0.98654  0.29434  1.0000
  H   H88       1.0  0.12045  0.05317  0.24793  1.0000
  H   H89       1.0  0.17528  0.30412  0.43970  1.0000
  H   H90       1.0  0.00404  0.20148  0.33337  1.0000
  P   P3        1.0  0.14022  0.32859  0.42743  1.0000
  C   C124      1.0  0.13527  0.04716  0.24816  1.0000
  P   P4        1.0  0.99415  0.14673  0.31412  1.0000
  C   C125      1.0  0.17287  0.44891  0.29555  1.0000
  H   H91       1.0  0.15559  0.10377  0.27584  1.0000
  C   C126      1.0  0.00865  0.19580  0.40964  1.0000
  S   S37       1.0  0.15817  0.14929  0.31185  1.0000
  H   H92       1.0  0.02474  0.16013  0.28480  1.0000
  C   C127      1.0  0.02324  0.22956  0.46583  1.0000
  H   H93       1.0  0.06488  0.29844  0.40965  1.0000
  H   H94       1.0  0.15885  0.08072  0.30992  1.0000
  H   H95       1.0  0.99919  0.29733  0.14385  1.0000
  Fe  Fe23      1.0  0.17507  0.38478  0.07425  1.0000
  S   S38       1.0  0.15808  0.46568  0.12942  1.0000
  H   H96       1.0  0.14637  0.41842  0.99990  1.0000
  C   C128      1.0  0.99502  0.31576  0.22808  1.0000
  H   H97       1.0  0.10014  0.38973  0.46468  1.0000
  C   C129      1.0  0.03249  0.16803  0.46690  1.0000
  H   H98       1.0  0.13126  0.07582  0.30068  1.0000
  C   C130      1.0  0.09248  0.41971  0.15443  1.0000
  C   C131      1.0  0.13296  0.28021  0.46800  1.0000
  H   H99       1.0  0.17513  0.45324  0.30739  1.0000
  C   C132      1.0  0.18045  0.42985  0.12601  1.0000
  C   C133      1.0  0.16953  0.12033  0.25017  1.0000
  C   C134      1.0  0.11736  0.43582  0.15284  1.0000
  H   H100      1.0  0.14441  0.29847  0.07333  1.0000
  C   C135      1.0  0.16053  0.03236  0.29809  1.0000
  C   C136      1.0  0.16814  0.05058  0.23941  1.0000
  H   H101      1.0  0.16030  0.09716  0.20611  1.0000
  H   H102      1.0  0.07779  0.17535  0.44542  1.0000
  H   H103      1.0  0.10683  0.30840  0.16947  1.0000
  H   H104      1.0  0.01479  0.18148  0.36276  1.0000
  C   C137      1.0  0.00351  0.30945  0.14573  1.0000
  C   C138      1.0  0.06392  0.21439  0.46546  1.0000
  H   H105      1.0  0.06347  0.47945  0.15864  1.0000
  C   C139      1.0  0.16637  0.44504  0.11950  1.0000
  C   C140      1.0  0.05343  0.45137  0.14903  1.0000
  C   C141      1.0  0.17042  0.29064  0.05373  1.0000
  C   C142      1.0  0.07819  0.18524  0.45358  1.0000
  C   C143      1.0  0.18838  0.41479  0.11624  1.0000
  H   H106      1.0  0.11953  0.47925  0.12362  1.0000
  C   C144      1.0  0.17918  0.08678  0.23597  1.0000
  C   C145      1.0  0.16839  0.43862  0.26383  1.0000
  C   C146      1.0  0.12547  0.36635  0.14095  1.0000
  H   H107      1.0  0.05194  0.20334  0.44812  1.0000
  C   C147      1.0  0.14888  0.05832  0.23915  1.0000
  S   S39       1.0  0.01989  0.37880  0.22704  1.0000
  C   C148      1.0  0.00592  0.29785  0.25680  1.0000
  C   C149      1.0  0.01024  0.33150  0.28916  1.0000
  C   C150      1.0  0.00077  0.15788  0.32934  1.0000
  H   H108      1.0  0.17425  0.34824  0.33963  1.0000
  H   H109      1.0  0.05148  0.09382  0.38848  1.0000
  C   C151      1.0  0.15126  0.27154  0.47085  1.0000
  H   H110      1.0  0.00258  0.32525  0.11720  1.0000
  H   H111      1.0  0.99424  0.11543  0.29706  1.0000
  C   C152      1.0  0.16150  0.23485  0.26024  1.0000
  C   C153      1.0  0.14442  0.23211  0.27280  1.0000
  C   C154      1.0  0.14216  0.23143  0.29224  1.0000
  C   C155      1.0  0.15729  0.23350  0.29887  1.0000
  P   P5        1.0  0.11981  0.22829  0.30820  1.0000
  C   C156      1.0  0.10290  0.25095  0.30668  1.0000
  C   C157      1.0  0.11167  0.21125  0.30052  1.0000
  C   C158      1.0  0.09387  0.21592  0.29559  1.0000
  C   C159      1.0  0.08825  0.20299  0.28864  1.0000
  C   C160      1.0  0.09990  0.18504  0.28733  1.0000
  C   C161      1.0  0.11767  0.18034  0.29208  1.0000
  C   C162      1.0  0.12371  0.19355  0.29826  1.0000
  C   C163      1.0  0.08863  0.25467  0.32256  1.0000
  C   C164      1.0  0.07567  0.27222  0.32151  1.0000
  C   C165      1.0  0.07643  0.28596  0.30449  1.0000
  C   C166      1.0  0.09023  0.28221  0.28849  1.0000
  C   C167      1.0  0.10348  0.26481  0.28957  1.0000
  C   C168      1.0  0.12331  0.21952  0.33239  1.0000
  C   C169      1.0  0.12525  0.23233  0.34233  1.0000
  C   C170      1.0  0.12827  0.22582  0.36089  1.0000
  C   C171      1.0  0.12945  0.20649  0.36970  1.0000
  C   C172      1.0  0.12735  0.19367  0.36003  1.0000
  C   C173      1.0  0.12414  0.20013  0.34153  1.0000
  C   C174      1.0  0.16726  0.42923  0.09434  1.0000
  C   C175      1.0  0.00752  0.38302  0.12406  1.0000
  C   C176      1.0  0.18100  0.29490  0.03515  1.0000
  H   H112      1.0  0.13296  0.23056  0.26733  1.0000
  H   H113      1.0  0.15605  0.23303  0.31372  1.0000
  H   H114      1.0  0.08426  0.22949  0.29697  1.0000
  H   H115      1.0  0.07467  0.20682  0.28453  1.0000
  H   H116      1.0  0.09510  0.17473  0.28277  1.0000
  H   H117      1.0  0.12674  0.16639  0.29112  1.0000
  H   H118      1.0  0.13768  0.18976  0.30159  1.0000
  H   H119      1.0  0.08741  0.24407  0.33580  1.0000
  H   H120      1.0  0.06486  0.27513  0.33385  1.0000
  H   H121      1.0  0.06613  0.29943  0.30364  1.0000
  H   H122      1.0  0.09049  0.29280  0.27521  1.0000
  H   H123      1.0  0.11397  0.26223  0.27699  1.0000
  H   H124      1.0  0.12438  0.24741  0.33577  1.0000
  H   H125      1.0  0.12954  0.23582  0.36853  1.0000
  H   H126      1.0  0.13174  0.20152  0.38412  1.0000
  H   H127      1.0  0.12784  0.17872  0.36698  1.0000
  H   H128      1.0  0.12220  0.18986  0.33469  1.0000
  C   C177      1.0  0.15988  0.02029  0.25761  1.0000
  C   C178      1.0  0.11921  0.30494  0.39579  1.0000
  C   C179      1.0  0.17842  0.11450  0.30454  1.0000
  H   H129      1.0  0.14436  0.07300  0.23197  1.0000
  H   H130      1.0  0.18609  0.23734  0.29158  1.0000
  C   C180      1.0  0.12448  0.31715  0.11483  1.0000
  C   C181      1.0  0.11051  0.30643  0.12377  1.0000
  H   H131      1.0  0.11512  0.39519  0.12693  1.0000
  C   C182      1.0  0.16088  0.46149  0.28397  1.0000
  C   C183      1.0  0.12672  0.32096  0.14548  1.0000
  C   C184      1.0  0.13240  0.32452  0.12561  1.0000
  H   H132      1.0  0.99765  0.32013  0.21276  1.0000
  C   C185      1.0  0.12517  0.32795  0.18331  1.0000
  C   C186      1.0  0.00898  0.30275  0.23700  1.0000
  C   C187      1.0  0.12522  0.32483  0.41383  1.0000
  C   C188      1.0  0.11537  0.34480  0.18971  1.0000
  C   C189      1.0  0.10487  0.34377  0.20832  1.0000
  C   C190      1.0  0.10384  0.32596  0.22060  1.0000
  C   C191      1.0  0.11364  0.30913  0.21442  1.0000
  C   C192      1.0  0.12440  0.31010  0.19590  1.0000
  H   H133      1.0  0.08307  0.34362  0.39950  1.0000
  S   S40       1.0  0.99393  0.25722  0.32353  1.0000
  C   C193      1.0  0.01377  0.31321  0.30087  1.0000
  H   H134      1.0  0.12928  0.31980  0.09953  1.0000
  C   C194      1.0  0.18543  0.33466  0.38270  1.0000
  H   H135      1.0  0.02600  0.18085  0.25272  1.0000
  H   H136      1.0  0.18579  0.43013  0.13804  1.0000
  H   H137      1.0  0.14324  0.33274  0.11841  1.0000
  C   C195      1.0  0.17833  0.00424  0.36472  1.0000
  H   H138      1.0  0.11559  0.35878  0.18043  1.0000
  H   H139      1.0  0.09713  0.35679  0.21313  1.0000
  H   H140      1.0  0.09517  0.32524  0.23482  1.0000
  H   H141      1.0  0.11259  0.29535  0.22392  1.0000
  H   H142      1.0  0.13180  0.29695  0.19123  1.0000
  H   H143      1.0  0.16424  0.07409  0.26356  1.0000
  C   C196      1.0  0.99979  0.41403  0.14180  1.0000
  C   C197      1.0  0.15979  0.44461  0.10368  1.0000
  C   C198      1.0  0.00342  0.22628  0.44620  1.0000
  P   P6        1.0  0.18534  0.06525  0.22667  1.0000
  H   H144      1.0  0.01692  0.28813  0.26375  1.0000
  C   C199      1.0  0.15850  0.45625  0.26824  1.0000
  H   H145      1.0  0.15389  0.47552  0.28682  1.0000
  P   P7        1.0  0.01255  0.36210  0.11397  1.0000
  C   C200      1.0  0.10792  0.33751  0.41147  1.0000
  C   C201      1.0  0.01066  0.34127  0.13313  1.0000
  C   C202      1.0  0.01464  0.34075  0.15061  1.0000
  C   C203      1.0  0.01306  0.32473  0.16553  1.0000
  H   H146      1.0  0.16310  0.23541  0.24526  1.0000
  C   C204      1.0  0.17278  0.30625  0.14392  1.0000
  C   C205      1.0  0.14079  0.02811  0.25724  1.0000
  C   C206      1.0  0.14473  0.42793  0.98629  1.0000
  C   C207      1.0  0.18318  0.01351  0.34570  1.0000
  H   H147      1.0  0.14388  0.40665  0.12559  1.0000
  C   C208      1.0  0.12533  0.36687  0.42907  1.0000
  C   C209      1.0  0.02237  0.38960  0.12685  1.0000
  C   C210      1.0  0.03638  0.35903  0.09969  1.0000
  C   C211      1.0  0.04312  0.37500  0.08741  1.0000
  C   C212      1.0  0.06169  0.37283  0.07677  1.0000
  C   C213      1.0  0.07360  0.35470  0.07807  1.0000
  C   C214      1.0  0.06700  0.33872  0.09014  1.0000
  C   C215      1.0  0.04850  0.34086  0.10098  1.0000
  C   C216      1.0  0.17338  0.31062  0.02197  1.0000
  C   C217      1.0  0.04165  0.45785  0.11491  1.0000
  C   C218      1.0  0.18690  0.38507  0.29247  1.0000
  H   H148      1.0  0.06949  0.46251  0.10107  1.0000
  C   C219      1.0  0.15802  0.37910  0.13937  1.0000
  H   H149      1.0  0.01896  0.35271  0.15281  1.0000
  H   H150      1.0  0.01642  0.32446  0.17885  1.0000
  C   C220      1.0  0.16383  0.37392  0.32030  1.0000
  C   C221      1.0  0.16365  0.10370  0.26148  1.0000
  C   C222      1.0  0.18060  0.12015  0.23193  1.0000
  C   C223      1.0  0.18933  0.18184  0.30808  1.0000
  H   H151      1.0  0.13557  0.45356  0.99743  1.0000
  C   C224      1.0  0.01978  0.23092  0.44786  1.0000
  H   H152      1.0  0.16409  0.00540  0.26443  1.0000
  H   H153      1.0  0.03695  0.38235  0.12298  1.0000
  H   H154      1.0  0.03414  0.38919  0.08630  1.0000
  H   H155      1.0  0.06704  0.38526  0.06777  1.0000
  H   H156      1.0  0.08807  0.35313  0.07000  1.0000
  H   H157      1.0  0.07638  0.32474  0.09138  1.0000
  H   H158      1.0  0.04388  0.32834  0.11052  1.0000
  H   H159      1.0  0.05800  0.12309  0.36481  1.0000
  H   H160      1.0  0.01501  0.45206  0.13238  1.0000
  C   C225      1.0  0.17629  0.03502  0.30318  1.0000
  C   C226      1.0  0.11220  0.31071  0.15431  1.0000
  C   C227      1.0  0.16828  0.33051  0.39402  1.0000
  H   H161      1.0  0.12359  0.29223  0.38983  1.0000
  H   H162      1.0  0.10429  0.30085  0.11539  1.0000
  H   H163      1.0  0.17072  0.38403  0.13844  1.0000
  C   C228      1.0  0.17529  0.13443  0.29824  1.0000
  C   C229      1.0  0.15954  0.06742  0.30605  1.0000
  H   H164      1.0  0.16883  0.35030  0.15291  1.0000
  H   H165      1.0  0.14065  0.39684  0.45207  1.0000
  H   H166      1.0  0.08895  0.27591  0.42658  1.0000
  C   C230      1.0  0.06961  0.25829  0.44476  1.0000
  H   H167      1.0  0.99518  0.18676  0.31226  1.0000
  C   C231      1.0  0.16743  0.39169  0.25536  1.0000
  C   C232      1.0  0.10021  0.40410  0.16745  1.0000
  H   H168      1.0  0.17083  0.20232  0.34644  1.0000
  C   C233      1.0  0.14452  0.04715  0.29679  1.0000
  C   C234      1.0  0.15509  0.32120  0.02703  1.0000
  S   S41       1.0  0.13833  0.98829  0.30112  1.0000
  H   H169      1.0  0.17031  0.10814  0.31796  1.0000
  C   C235      1.0  0.18179  0.41439  0.10039  1.0000
  H   H170      1.0  0.16269  0.31734  0.18744  1.0000
  H   H171      1.0  0.00658  0.15186  0.40503  1.0000
  C   C236      1.0  0.11272  0.44057  0.10162  1.0000
  H   H172      1.0  0.16279  0.39703  0.20996  1.0000
  C   C237      1.0  0.16216  0.33423  0.41240  1.0000
  C   C238      1.0  0.10210  0.31761  0.39341  1.0000
  C   C239      1.0  0.04906  0.10716  0.39301  1.0000
  C   C240      1.0  0.04228  0.10788  0.41215  1.0000
  C   C241      1.0  0.03943  0.12511  0.41789  1.0000
  C   C242      1.0  0.04387  0.14160  0.40456  1.0000
  C   C243      1.0  0.05040  0.14081  0.38535  1.0000
  P   P8        1.0  0.03860  0.16419  0.41166  1.0000
  C   C244      1.0  0.04169  0.15997  0.43579  1.0000
  C   C245      1.0  0.05484  0.17913  0.39651  1.0000
  C   C246      1.0  0.07197  0.17839  0.40137  1.0000
  C   C247      1.0  0.08366  0.19110  0.39060  1.0000
  C   C248      1.0  0.07847  0.20459  0.37478  1.0000
  C   C249      1.0  0.06175  0.20512  0.36949  1.0000
  C   C250      1.0  0.05009  0.19228  0.38014  1.0000
  C   C251      1.0  0.05675  0.14569  0.44190  1.0000
  C   C252      1.0  0.05955  0.14254  0.46037  1.0000
  C   C253      1.0  0.09344  0.18211  0.46233  1.0000
  P   P9        1.0  0.04480  0.23501  0.46783  1.0000
  C   C254      1.0  0.02961  0.17116  0.44844  1.0000
  C   C255      1.0  0.01465  0.17629  0.40924  1.0000
  C   C256      1.0  0.18236  0.43104  0.29150  1.0000
  C   C257      1.0  0.17443  0.23598  0.28630  1.0000
  H   H173      1.0  0.16597  0.13318  0.25577  1.0000
  H   H174      1.0  0.16724  0.30868  0.13131  1.0000
  H   H175      1.0  0.16359  0.18146  0.32934  1.0000
  S   S42       1.0  0.12622  0.47225  0.17745  1.0000
  H   H176      1.0  0.03159  0.29423  0.41878  1.0000
  H   H177      1.0  0.03927  0.09508  0.42252  1.0000
  H   H178      1.0  0.03373  0.12553  0.43271  1.0000
  H   H179      1.0  0.05349  0.15342  0.37475  1.0000
  H   H180      1.0  0.07642  0.16807  0.41344  1.0000
  H   H181      1.0  0.09665  0.19064  0.39470  1.0000
  H   H182      1.0  0.08719  0.21489  0.36685  1.0000
  H   H183      1.0  0.05751  0.21593  0.35751  1.0000
  H   H184      1.0  0.03717  0.19301  0.37584  1.0000
  H   H185      1.0  0.06660  0.13719  0.43223  1.0000
  C   C258      1.0  0.18390  0.39898  0.25166  1.0000
  C   C259      1.0  0.09643  0.33388  0.40127  1.0000
  C   C260      1.0  0.17348  0.34223  0.41921  1.0000
  H   H186      1.0  0.01803  0.18238  0.44414  1.0000
  S   S43       1.0  0.99908  0.30807  0.32334  1.0000
  H   H187      1.0  0.10308  0.35004  0.41759  1.0000
  H   H188      1.0  0.13026  0.01935  0.26394  1.0000
  C   C261      1.0  0.17347  0.03158  0.24917  1.0000
  H   H189      1.0  0.01796  0.20320  0.41245  1.0000
  C   C262      1.0  0.06607  0.45606  0.13177  1.0000
  H   H190      1.0  0.12928  0.42770  0.07835  1.0000
  H   H191      1.0  0.13143  0.45872  0.05559  1.0000
  H   H192      1.0  0.08001  0.41898  0.15015  1.0000
  C   C263      1.0  0.17782  0.35853  0.32656  1.0000
  C   C264      1.0  0.17653  0.23670  0.26699  1.0000
  H   H193      1.0  0.15735  0.39909  0.29878  1.0000
  H   H194      1.0  0.17456  0.19824  0.24278  1.0000
  H   H195      1.0  0.16828  0.99901  0.18324  1.0000
  H   H196      1.0  0.18796  0.02529  0.25036  1.0000
  C   C265      1.0  0.16897  0.39709  0.22156  1.0000
  C   C266      1.0  0.17563  0.05272  0.30719  1.0000
  H   H197      1.0  0.01382  0.37349  0.07259  1.0000
  H   H198      1.0  0.14944  0.37557  0.32853  1.0000
  C   C267      1.0  0.00242  0.16691  0.40542  1.0000
  H   H199      1.0  0.03720  0.46012  0.10166  1.0000
  H   H200      1.0  0.16239  0.42923  0.08194  1.0000
  C   C268      1.0  0.17651  0.18700  0.32413  1.0000
  C   C269      1.0  0.18792  0.47568  0.23018  1.0000
  H   H201      1.0  0.14678  0.38608  0.24313  1.0000
  C   C270      1.0  0.99105  0.20602  0.40561  1.0000
  H   H202      1.0  0.99005  0.37766  0.05368  1.0000
  H   H203      1.0  0.17197  0.99495  0.22303  1.0000
  H   H204      1.0  0.18519  0.19246  0.27255  1.0000
  C   C271      1.0  0.18547  0.40416  0.21778  1.0000
  H   H205      1.0  0.99649  0.19519  0.24029  1.0000
  C   C272      1.0  0.16615  0.09317  0.17763  1.0000
  H   H206      1.0  0.02247  0.26754  0.44453  1.0000
  C   C273      1.0  0.14335  0.36028  0.97697  1.0000
  H   H207      1.0  0.12401  0.32991  0.46801  1.0000
  H   H208      1.0  0.18097  0.31927  0.46724  1.0000
  C   C274      1.0  0.18862  0.29989  0.17564  1.0000
  H   H209      1.0  0.10491  0.16974  0.46098  1.0000
  H   H210      1.0  0.00621  0.13154  0.35031  1.0000
  C   C275      1.0  0.18903  0.48240  0.24570  1.0000
  C   C276      1.0  0.01102  0.15529  0.35837  1.0000
  C   C277      1.0  0.09414  0.19523  0.47241  1.0000
  C   C278      1.0  0.00584  0.14681  0.34643  1.0000
  H   H211      1.0  0.18983  0.23856  0.25726  1.0000
  C   C279      1.0  0.99052  0.21983  0.46246  1.0000
  C   C280      1.0  0.18957  0.19522  0.24266  1.0000
  C   C281      1.0  0.17538  0.02284  0.72038  1.0000
  Fe  Fe24      1.0  0.16641  0.45339  0.78655  1.0000
  H   H212      1.0  0.17944  0.26344  0.81969  1.0000
  Fe  Fe25      1.0  0.13249  0.45806  0.81838  1.0000
  S   S44       1.0  0.12035  0.44896  0.84942  1.0000
  H   H213      1.0  0.17417  0.28381  0.52738  1.0000
  C   C282      1.0  0.03840  0.24914  0.52608  1.0000
  S   S45       1.0  0.14249  0.43771  0.79854  1.0000
  H   H214      1.0  0.17410  0.48311  0.66470  1.0000
  Fe  Fe26      1.0  0.13470  0.31036  0.93389  1.0000
  S   S46       1.0  0.10441  0.32084  0.94728  1.0000
  S   S47       1.0  0.14921  0.27972  0.94337  1.0000
  Fe  Fe27      1.0  0.13936  0.35017  0.91075  1.0000
  S   S48       1.0  0.10951  0.36334  0.92288  1.0000
  S   S49       1.0  0.15989  0.36648  0.88855  1.0000
  Fe  Fe28      1.0  0.11532  0.34504  0.95088  1.0000
  Fe  Fe29      1.0  0.10209  0.33797  0.91769  1.0000
  S   S50       1.0  0.07748  0.34392  0.90295  1.0000
  S   S51       1.0  0.14566  0.33349  0.93911  1.0000
  S   S52       1.0  0.13171  0.32565  0.90415  1.0000
  Fe  Fe30      1.0  0.07289  0.36343  0.76594  1.0000
  S   S53       1.0  0.08975  0.33354  0.77302  1.0000
  S   S54       1.0  0.08580  0.38764  0.74536  1.0000
  Fe  Fe31      1.0  0.07091  0.33243  0.80213  1.0000
  S   S55       1.0  0.08828  0.31871  0.82502  1.0000
  Fe  Fe32      1.0  0.06748  0.32334  0.76562  1.0000
  S   S56       1.0  0.07672  0.30305  0.74530  1.0000
  Fe  Fe33      1.0  0.14675  0.25001  0.60614  1.0000
  S   S57       1.0  0.13935  0.28216  0.59838  1.0000
  S   S58       1.0  0.15087  0.23642  0.63596  1.0000
  Fe  Fe34      1.0  0.14709  0.24553  0.56679  1.0000
  S   S59       1.0  0.13976  0.27726  0.55586  1.0000
  S   S60       1.0  0.15430  0.22390  0.54822  1.0000
  Fe  Fe35      1.0  0.16088  0.27889  0.57164  1.0000
  C   C283      1.0  0.14882  0.47574  0.71013  1.0000
  Fe  Fe36      1.0  0.11892  0.27757  0.58362  1.0000
  S   S61       1.0  0.09066  0.29766  0.58231  1.0000
  S   S62       1.0  0.17002  0.24705  0.58046  1.0000
  S   S63       1.0  0.12446  0.24551  0.59349  1.0000
  Fe  Fe37      1.0  0.02854  0.22241  0.68753  1.0000
  S   S64       1.0  0.00667  0.23872  0.67003  1.0000
  S   S65       1.0  0.04900  0.19693  0.67758  1.0000
  Fe  Fe38      1.0  0.01647  0.24983  0.71434  1.0000
  Fe  Fe39      1.0  0.01603  0.26434  0.67226  1.0000
  S   S66       1.0  0.01822  0.29038  0.64849  1.0000
  S   S67       1.0  0.00786  0.22257  0.71538  1.0000
  S   S68       1.0  0.03912  0.24809  0.68798  1.0000
  S   S69       1.0  0.18166  0.29833  0.55768  1.0000
  Fe  Fe40      1.0  0.16792  0.13077  0.67805  1.0000
  S   S70       1.0  0.13962  0.12341  0.68306  1.0000
  S   S71       1.0  0.99417  0.26833  0.69862  1.0000
  H   H215      1.0  0.10627  0.35638  0.48363  1.0000
  S   S72       1.0  0.14669  0.09867  0.72528  1.0000
  C   C284      1.0  0.15147  0.45578  0.71399  1.0000
  Fe  Fe41      1.0  0.15364  0.09363  0.69556  1.0000
  S   S73       1.0  0.15391  0.06977  0.68183  1.0000
  Fe  Fe42      1.0  0.13520  0.12937  0.71193  1.0000
  S   S74       1.0  0.10918  0.14731  0.72680  1.0000
  C   C285      1.0  0.12704  0.24291  0.52697  1.0000
  S   S75       1.0  0.16248  0.13930  0.70591  1.0000
  H   H216      1.0  0.17585  0.38733  0.68602  1.0000
  C   C286      1.0  0.13164  0.34463  0.51688  1.0000
  H   H217      1.0  0.16088  0.10881  0.63382  1.0000
  H   H218      1.0  0.03029  0.13840  0.62721  1.0000
  C   C287      1.0  0.99208  0.33574  0.75322  1.0000
  S   S76       1.0  0.11596  0.99705  0.71174  1.0000
  H   H219      1.0  0.02384  0.31579  0.73189  1.0000
  C   C288      1.0  0.18737  0.14554  0.75778  1.0000
  C   C289      1.0  0.14672  0.33375  0.50600  1.0000
  C   C290      1.0  0.17509  0.26367  0.51085  1.0000
  H   H220      1.0  0.00499  0.30487  0.68693  1.0000
  C   C291      1.0  0.11640  0.43454  0.91984  1.0000
  C   C292      1.0  0.12693  0.01697  0.70413  1.0000
  C   C293      1.0  0.14080  0.01867  0.68747  1.0000
  C   C294      1.0  0.14881  0.03501  0.68087  1.0000
  C   C295      1.0  0.14336  0.04960  0.69113  1.0000
  C   C296      1.0  0.12970  0.04781  0.70803  1.0000
  C   C297      1.0  0.12135  0.03160  0.71440  1.0000
  H   H221      1.0  0.14501  0.00753  0.67953  1.0000
  H   H222      1.0  0.15928  0.03635  0.66774  1.0000
  H   H223      1.0  0.12549  0.05893  0.71609  1.0000
  H   H224      1.0  0.11060  0.03033  0.72732  1.0000
  H   H225      1.0  0.15370  0.25778  0.48056  1.0000
  H   H226      1.0  0.14517  0.00043  0.65027  1.0000
  H   H227      1.0  0.18510  0.25682  0.95058  1.0000
  H   H228      1.0  0.01882  0.27689  0.76906  1.0000
  C   C298      1.0  0.04419  0.28845  0.75887  1.0000
  H   H229      1.0  0.04155  0.29530  0.77067  1.0000
  H   H230      1.0  0.13828  0.20770  0.73691  1.0000
  C   C299      1.0  0.14340  0.22868  0.52868  1.0000
  H   H231      1.0  0.14488  0.44861  0.72785  1.0000
  H   H232      1.0  0.12603  0.29645  0.50985  1.0000
  C   C300      1.0  0.10182  0.40296  0.94294  1.0000
  C   C301      1.0  0.06644  0.18489  0.69097  1.0000
  C   C302      1.0  0.06331  0.18505  0.71022  1.0000
  C   C303      1.0  0.07671  0.17376  0.72105  1.0000
  C   C304      1.0  0.09341  0.16258  0.71258  1.0000
  C   C305      1.0  0.09690  0.16321  0.69311  1.0000
  C   C306      1.0  0.08335  0.17415  0.68239  1.0000
  H   H233      1.0  0.05025  0.19328  0.71691  1.0000
  H   H234      1.0  0.07390  0.17335  0.73610  1.0000
  H   H235      1.0  0.10979  0.15494  0.68637  1.0000
  H   H236      1.0  0.08596  0.17424  0.66745  1.0000
  C   C307      1.0  0.15883  0.21153  0.63941  1.0000
  C   C308      1.0  0.16296  0.20234  0.62427  1.0000
  C   C309      1.0  0.16905  0.18235  0.62734  1.0000
  C   C310      1.0  0.17098  0.17153  0.64551  1.0000
  C   C311      1.0  0.16650  0.18069  0.66071  1.0000
  C   C312      1.0  0.16047  0.20069  0.65764  1.0000
  H   H237      1.0  0.16138  0.21062  0.61023  1.0000
  C   C313      1.0  0.17030  0.45547  0.68224  1.0000
  H   H238      1.0  0.16492  0.28601  0.86840  1.0000
  H   H239      1.0  0.15708  0.20775  0.66940  1.0000
  C   C314      1.0  0.07114  0.29449  0.60124  1.0000
  C   C315      1.0  0.05404  0.30765  0.59988  1.0000
  C   C316      1.0  0.03809  0.30615  0.61455  1.0000
  C   C317      1.0  0.03887  0.29118  0.63058  1.0000
  C   C318      1.0  0.05587  0.27769  0.63195  1.0000
  C   C319      1.0  0.07212  0.27943  0.61731  1.0000
  H   H240      1.0  0.05316  0.31923  0.58750  1.0000
  H   H241      1.0  0.02503  0.31660  0.61342  1.0000
  H   H242      1.0  0.05650  0.26611  0.64432  1.0000
  H   H243      1.0  0.08531  0.26918  0.61847  1.0000
  H   H244      1.0  0.12104  0.25151  0.53760  1.0000
  C   C320      1.0  0.06047  0.28985  0.74462  1.0000
  C   C321      1.0  0.06385  0.28069  0.72947  1.0000
  C   C322      1.0  0.05071  0.27072  0.72826  1.0000
  C   C323      1.0  0.03434  0.26949  0.74246  1.0000
  H   H245      1.0  0.07645  0.28164  0.71844  1.0000
  H   H246      1.0  0.05318  0.26409  0.71634  1.0000
  C   C324      1.0  0.08124  0.33809  0.88053  1.0000
  C   C325      1.0  0.09724  0.32485  0.87418  1.0000
  C   C326      1.0  0.09914  0.31917  0.85713  1.0000
  C   C327      1.0  0.08540  0.32710  0.84591  1.0000
  C   C328      1.0  0.06970  0.34089  0.85186  1.0000
  C   C329      1.0  0.06753  0.34618  0.86924  1.0000
  H   H247      1.0  0.10784  0.31854  0.88271  1.0000
  H   H248      1.0  0.11114  0.30833  0.85275  1.0000
  H   H249      1.0  0.05900  0.34710  0.84337  1.0000
  H   H250      1.0  0.05511  0.35646  0.87403  1.0000
  C   C330      1.0  0.13214  0.42667  0.86059  1.0000
  C   C331      1.0  0.12281  0.41709  0.87784  1.0000
  C   C332      1.0  0.13156  0.39898  0.88680  1.0000
  C   C333      1.0  0.14961  0.39014  0.87848  1.0000
  C   C334      1.0  0.15945  0.40024  0.86177  1.0000
  C   C335      1.0  0.15067  0.41846  0.85272  1.0000
  H   H251      1.0  0.10856  0.42348  0.88405  1.0000
  H   H252      1.0  0.12425  0.39203  0.90014  1.0000
  H   H253      1.0  0.04754  0.21091  0.50569  1.0000
  H   H254      1.0  0.15811  0.42611  0.83963  1.0000
  C   C336      1.0  0.10372  0.43812  0.75617  1.0000
  C   C337      1.0  0.10046  0.43820  0.73854  1.0000
  C   C338      1.0  0.09464  0.42281  0.73586  1.0000
  C   C339      1.0  0.09168  0.40706  0.75078  1.0000
  C   C340      1.0  0.09432  0.40708  0.76874  1.0000
  C   C341      1.0  0.10057  0.42251  0.77140  1.0000
  C   C342      1.0  0.02574  0.31567  0.71706  1.0000
  H   H255      1.0  0.09217  0.42327  0.72213  1.0000
  H   H256      1.0  0.09153  0.39531  0.78054  1.0000
  H   H257      1.0  0.10264  0.42249  0.78521  1.0000
  C   C343      1.0  0.15083  0.33788  0.83954  1.0000
  H   H258      1.0  0.02047  0.18948  0.76971  1.0000
  S   S77       1.0  0.15790  0.47161  0.80830  1.0000
  H   H259      1.0  0.10887  0.02710  0.66334  1.0000
  C   C344      1.0  0.17463  0.99570  0.60785  1.0000
  H   H260      1.0  0.18619  0.20091  0.85897  1.0000
  C   C345      1.0  0.18339  0.39695  0.94186  1.0000
  H   H261      1.0  0.11982  0.05012  0.63393  1.0000
  H   H262      1.0  0.07919  0.12145  0.73701  1.0000
  H   H263      1.0  0.10532  0.09507  0.72752  1.0000
  H   H264      1.0  0.16073  0.00265  0.71739  1.0000
  C   C346      1.0  0.17537  0.24629  0.84820  1.0000
  H   H265      1.0  0.16261  0.36605  0.78504  1.0000
  C   C347      1.0  0.17092  0.27387  0.92805  1.0000
  H   H266      1.0  0.01266  0.22140  0.49618  1.0000
  C   C348      1.0  0.12549  0.23418  0.49816  1.0000
  C   C349      1.0  0.12011  0.40441  0.94287  1.0000
  H   H267      1.0  0.11292  0.08477  0.63360  1.0000
  H   H268      1.0  0.13762  0.46160  0.93782  1.0000
  H   H269      1.0  0.18778  0.47181  0.89462  1.0000
  H   H270      1.0  0.02906  0.21649  0.74372  1.0000
  H   H271      1.0  0.08820  0.37944  0.67403  1.0000
  C   C350      1.0  0.18424  0.21253  0.90200  1.0000
  H   H272      1.0  0.16248  0.03305  0.72422  1.0000
  H   H273      1.0  0.18715  0.30481  0.93894  1.0000
  C   C351      1.0  0.11799  0.24547  0.51188  1.0000
  S   S78       1.0  0.04961  0.31979  0.79522  1.0000
  H   H274      1.0  0.15089  0.42622  0.89185  1.0000
  C   C352      1.0  0.11868  0.07561  0.83681  1.0000
  H   H275      1.0  0.00400  0.31136  0.77294  1.0000
  H   H276      1.0  0.18319  0.18901  0.57791  1.0000
  C   C353      1.0  0.18392  0.36550  0.54101  1.0000
  P   P10       1.0  0.17491  0.05020  0.82385  1.0000
  H   H277      1.0  0.14109  0.17453  0.86032  1.0000
  H   H278      1.0  0.10356  0.34599  0.53450  1.0000
  C   C354      1.0  0.11200  0.05529  0.64662  1.0000
  C   C355      1.0  0.16941  0.35880  0.47497  1.0000
  H   H279      1.0  0.12159  0.44707  0.91103  1.0000
  H   H280      1.0  0.17015  0.07183  0.75630  1.0000
  H   H281      1.0  0.16236  0.27157  0.50579  1.0000
  C   C356      1.0  0.14227  0.22048  0.49947  1.0000
  C   C357      1.0  0.15150  0.30378  0.84561  1.0000
  H   H282      1.0  0.10507  0.25617  0.51087  1.0000
  C   C358      1.0  0.14629  0.32245  0.83529  1.0000
  C   C359      1.0  0.12623  0.37674  0.83973  1.0000
  C   C360      1.0  0.11830  0.39535  0.83082  1.0000
  C   C361      1.0  0.10345  0.40687  0.84107  1.0000
  C   C362      1.0  0.09600  0.39968  0.86012  1.0000
  C   C363      1.0  0.10347  0.38102  0.86895  1.0000
  C   C364      1.0  0.11857  0.36958  0.85886  1.0000
  C   C365      1.0  0.11825  0.35930  0.80812  1.0000
  C   C366      1.0  0.18774  0.40901  0.69079  1.0000
  H   H283      1.0  0.02321  0.17683  0.47650  1.0000
  H   H284      1.0  0.13854  0.32469  0.82424  1.0000
  H   H285      1.0  0.15403  0.39876  0.82559  1.0000
  H   H286      1.0  0.12369  0.40103  0.81597  1.0000
  H   H287      1.0  0.09781  0.42144  0.83430  1.0000
  H   H288      1.0  0.08453  0.40861  0.86809  1.0000
  H   H289      1.0  0.09757  0.37543  0.88369  1.0000
  H   H290      1.0  0.12397  0.35518  0.86607  1.0000
  H   H291      1.0  0.10908  0.35740  0.82213  1.0000
  H   H292      1.0  0.09704  0.35723  0.79472  1.0000
  H   H293      1.0  0.05099  0.38237  0.71072  1.0000
  H   H294      1.0  0.09009  0.12819  0.62425  1.0000
  C   C367      1.0  0.18482  0.24648  0.50540  1.0000
  H   H295      1.0  0.14037  0.48347  0.72102  1.0000
  C   C368      1.0  0.18402  0.35915  0.81206  1.0000
  C   C369      1.0  0.09205  0.06843  0.67955  1.0000
  C   C370      1.0  0.03920  0.20798  0.75229  1.0000
  C   C371      1.0  0.01266  0.30950  0.71101  1.0000
  H   H296      1.0  0.00324  0.34312  0.75188  1.0000
  H   H297      1.0  0.14815  0.21170  0.48900  1.0000
  C   C372      1.0  0.18439  0.25870  0.83291  1.0000
  C   C373      1.0  0.11309  0.11841  0.65054  1.0000
  C   C374      1.0  0.08151  0.11833  0.72311  1.0000
  C   C375      1.0  0.02356  0.38481  0.72941  1.0000
  S   S79       1.0  0.01712  0.25769  0.74140  1.0000
  H   H298      1.0  0.00078  0.32695  0.80876  1.0000
  H   H299      1.0  0.16372  0.20655  0.51608  1.0000
  C   C376      1.0  0.07351  0.11738  0.65172  1.0000
  C   C377      1.0  0.17504  0.00051  0.64360  1.0000
  C   C378      1.0  0.13674  0.06870  0.82680  1.0000
  H   H300      1.0  0.03720  0.25246  0.53969  1.0000
  C   C379      1.0  0.13615  0.45979  0.96735  1.0000
  S   S80       1.0  0.00458  0.36534  0.78646  1.0000
  C   C380      1.0  0.15103  0.21756  0.51485  1.0000
  H   H301      1.0  0.11171  0.08893  0.69527  1.0000
  C   C381      1.0  0.18664  0.26267  0.93547  1.0000
  C   C382      1.0  0.16561  0.38489  0.92644  1.0000
  H   H302      1.0  0.04467  0.21857  0.53665  1.0000
  H   H303      1.0  0.12825  0.39338  0.95214  1.0000
  H   H304      1.0  0.10261  0.45023  0.72678  1.0000
  S   S81       1.0  0.05522  0.36313  0.79527  1.0000
  C   C383      1.0  0.18489  0.13232  0.74864  1.0000
  P   P11       1.0  0.09353  0.10683  0.66299  1.0000
  P   P12       1.0  0.15091  0.42230  0.93181  1.0000
  C   C384      1.0  0.11517  0.07300  0.85657  1.0000
  H   H305      1.0  0.04974  0.15136  0.48713  1.0000
  C   C385      1.0  0.09631  0.10353  0.71771  1.0000
  Fe  Fe43      1.0  0.17434  0.10841  0.71732  1.0000
  H   H306      1.0  0.13463  0.09224  0.65019  1.0000
  S   S82       1.0  0.15157  0.47573  0.76541  1.0000
  C   C386      1.0  0.16985  0.40467  0.76845  1.0000
  C   C387      1.0  0.15276  0.20315  0.72991  1.0000
  C   C388      1.0  0.17330  0.04664  0.80133  1.0000
  S   S83       1.0  0.11469  0.48067  0.79970  1.0000
  C   C389      1.0  0.17061  0.02622  0.78195  1.0000
  C   C390      1.0  0.16956  0.04183  0.76655  1.0000
  C   C391      1.0  0.17063  0.05978  0.76835  1.0000
  C   C392      1.0  0.17244  0.06223  0.78565  1.0000
  C   C393      1.0  0.16762  0.39963  0.93382  1.0000
  C   C394      1.0  0.16114  0.30044  0.86024  1.0000
  C   C395      1.0  0.11483  0.33800  0.52541  1.0000
  C   C396      1.0  0.14859  0.42026  0.97017  1.0000
  H   H307      1.0  0.03250  0.27877  0.51156  1.0000
  C   C397      1.0  0.00547  0.38084  0.73359  1.0000
  H   H308      1.0  0.17451  0.99336  0.59418  1.0000
  H   H309      1.0  0.99579  0.38388  0.74656  1.0000
  C   C398      1.0  0.18159  0.24022  0.86548  1.0000
  C   C399      1.0  0.16773  0.47546  0.67844  1.0000
  H   H310      1.0  0.17502  0.00225  0.65754  1.0000
  C   C400      1.0  0.12769  0.42001  0.93103  1.0000
  C   C401      1.0  0.07608  0.12685  0.63251  1.0000
  C   C402      1.0  0.18772  0.22137  0.91485  1.0000
  H   H311      1.0  0.16362  0.44771  0.86247  1.0000
  H   H312      1.0  0.16805  0.03997  0.75320  1.0000
  C   C403      1.0  0.17433  0.01401  0.84748  1.0000
  C   C404      1.0  0.03577  0.26397  0.51023  1.0000
  H   H313      1.0  0.17438  0.17862  0.84798  1.0000
  C   C405      1.0  0.99264  0.31758  0.76522  1.0000
  C   C406      1.0  0.18520  0.36558  0.50823  1.0000
  H   H314      1.0  0.15997  0.23036  0.72645  1.0000
  C   C407      1.0  0.10824  0.07486  0.64656  1.0000
  C   C408      1.0  0.17282  0.28088  0.90847  1.0000
  H   H315      1.0  0.15006  0.36619  0.75763  1.0000
  C   C409      1.0  0.09984  0.10006  0.69948  1.0000
  H   H316      1.0  0.16373  0.34619  0.85803  1.0000
  C   C410      1.0  0.18829  0.39327  0.68337  1.0000
  H   H317      1.0  0.16051  0.28902  0.90278  1.0000
  P   P13       1.0  0.16927  0.34116  0.49708  1.0000
  H   H318      1.0  0.17736  0.15904  0.75799  1.0000
  C   C411      1.0  0.08814  0.36433  0.67949  1.0000
  C   C412      1.0  0.14131  0.36400  0.77177  1.0000
  C   C413      1.0  0.05530  0.11490  0.66177  1.0000
  H   H319      1.0  0.17260  0.31346  0.87616  1.0000
  P   P14       1.0  0.14518  0.36201  0.82607  1.0000
  C   C414      1.0  0.17199  0.45006  0.91089  1.0000
  C   C415      1.0  0.16804  0.34456  0.53373  1.0000
  H   H320      1.0  0.17219  0.08282  0.84111  1.0000
  C   C416      1.0  0.04235  0.13247  0.63400  1.0000
  H   H321      1.0  0.13311  0.35786  0.51940  1.0000
  H   H322      1.0  0.17871  0.44983  0.74684  1.0000
  H   H323      1.0  0.14494  0.99577  0.61875  1.0000
  H   H324      1.0  0.17969  0.24101  0.49606  1.0000
  H   H325      1.0  0.17473  0.45064  0.92424  1.0000
  P   P15       1.0  0.16864  0.22598  0.88586  1.0000
  C   C417      1.0  0.08837  0.11117  0.68663  1.0000
  C   C418      1.0  0.15969  0.20980  0.87780  1.0000
  C   C419      1.0  0.13424  0.19471  0.87848  1.0000
  C   C420      1.0  0.14095  0.20731  0.88487  1.0000
  H   H326      1.0  0.14771  0.29199  0.84246  1.0000
  C   C421      1.0  0.18925  0.06778  0.81908  1.0000
  C   C422      1.0  0.07034  0.12978  0.71023  1.0000
  C   C423      1.0  0.14896  0.24218  0.89722  1.0000
  C   C424      1.0  0.14292  0.23859  0.91709  1.0000
  C   C425      1.0  0.12871  0.25196  0.92575  1.0000
  C   C426      1.0  0.11997  0.26868  0.91467  1.0000
  C   C427      1.0  0.12517  0.27187  0.89489  1.0000
  C   C428      1.0  0.13957  0.25869  0.88619  1.0000
  C   C429      1.0  0.15864  0.43634  0.89268  1.0000
  C   C430      1.0  0.09093  0.41709  0.93127  1.0000
  H   H327      1.0  0.09612  0.39078  0.95201  1.0000
  H   H328      1.0  0.00069  0.30467  0.72126  1.0000
  H   H329      1.0  0.18263  0.16421  0.71531  1.0000
  H   H330      1.0  0.11977  0.19281  0.88398  1.0000
  H   H331      1.0  0.13150  0.21499  0.89535  1.0000
  H   H332      1.0  0.10117  0.07838  0.86429  1.0000
  H   H333      1.0  0.17045  0.40321  0.78301  1.0000
  C   C431      1.0  0.16089  0.43765  0.91033  1.0000
  H   H334      1.0  0.14939  0.22572  0.92602  1.0000
  H   H335      1.0  0.12480  0.24965  0.94111  1.0000
  H   H336      1.0  0.10922  0.27922  0.92143  1.0000
  H   H337      1.0  0.11814  0.28467  0.88632  1.0000
  H   H338      1.0  0.14335  0.26159  0.87088  1.0000
  H   H339      1.0  0.17316  0.07634  0.78671  1.0000
  H   H340      1.0  0.14960  0.17465  0.73120  1.0000
  C   C432      1.0  0.12750  0.31005  0.51157  1.0000
  C   C433      1.0  0.03177  0.37116  0.70157  1.0000
  H   H341      1.0  0.10139  0.36192  0.70271  1.0000
  C   C434      1.0  0.16043  0.33441  0.85430  1.0000
  H   H342      1.0  0.02904  0.37668  0.62982  1.0000
  H   H343      1.0  0.08972  0.44396  0.91080  1.0000
  H   H344      1.0  0.08414  0.07316  0.69242  1.0000
  C   C435      1.0  0.13677  0.36180  0.80565  1.0000
  C   C436      1.0  0.09868  0.08152  0.66319  1.0000
  C   C437      1.0  0.18209  0.99684  0.85877  1.0000
  C   C438      1.0  0.14834  0.36401  0.78738  1.0000
  C   C439      1.0  0.14622  0.18443  0.86512  1.0000
  C   C440      1.0  0.03134  0.27804  0.75793  1.0000
  Fe  Fe44      1.0  0.12681  0.46133  0.77889  1.0000
  H   H345      1.0  0.11724  0.36180  0.76228  1.0000
  C   C441      1.0  0.16557  0.31578  0.86457  1.0000
  C   C442      1.0  0.16695  0.38941  0.82032  1.0000
  H   H346      1.0  0.05313  0.10705  0.67642  1.0000
  C   C443      1.0  0.09562  0.04893  0.67948  1.0000
  H   H347      1.0  0.15901  0.04936  0.86417  1.0000
  C   C444      1.0  0.12284  0.36153  0.77436  1.0000
  H   H348      1.0  0.15389  0.38680  0.91965  1.0000
  C   C445      1.0  0.12503  0.15480  0.76913  1.0000
  C   C446      1.0  0.13798  0.15755  0.77813  1.0000
  C   C447      1.0  0.13673  0.17568  0.78122  1.0000
  C   C448      1.0  0.12256  0.19112  0.77527  1.0000
  C   C449      1.0  0.10955  0.18852  0.76605  1.0000
  C   C450      1.0  0.11084  0.17015  0.76324  1.0000
  P   P16       1.0  0.09245  0.20865  0.75623  1.0000
  C   C451      1.0  0.07005  0.20186  0.76010  1.0000
  C   C452      1.0  0.08854  0.22879  0.76725  1.0000
  C   C453      1.0  0.07120  0.23429  0.77945  1.0000
  C   C454      1.0  0.06791  0.25049  0.78705  1.0000
  C   C455      1.0  0.08180  0.26136  0.78252  1.0000
  C   C456      1.0  0.09909  0.25598  0.77049  1.0000
  C   C457      1.0  0.10251  0.23972  0.76295  1.0000
  C   C458      1.0  0.05699  0.21248  0.74872  1.0000
  C   C459      1.0  0.03432  0.19284  0.76709  1.0000
  C   C460      1.0  0.99399  0.21807  0.48043  1.0000
  C   C461      1.0  0.04716  0.18233  0.77864  1.0000
  C   C462      1.0  0.06489  0.18696  0.77533  1.0000
  C   C463      1.0  0.10124  0.21563  0.73086  1.0000
  C   C464      1.0  0.09947  0.23509  0.72172  1.0000
  C   C465      1.0  0.10797  0.24039  0.70256  1.0000
  C   C466      1.0  0.11786  0.22633  0.69223  1.0000
  C   C467      1.0  0.11875  0.20697  0.70090  1.0000
  C   C468      1.0  0.11044  0.20164  0.72009  1.0000
  H   H349      1.0  0.12611  0.14082  0.76642  1.0000
  H   H350      1.0  0.14911  0.14566  0.78255  1.0000
  H   H351      1.0  0.14696  0.17778  0.78805  1.0000
  H   H352      1.0  0.12201  0.20498  0.77775  1.0000
  H   H353      1.0  0.10098  0.16770  0.75625  1.0000
  H   H354      1.0  0.05997  0.22645  0.78286  1.0000
  H   H355      1.0  0.05432  0.25498  0.79600  1.0000
  H   H356      1.0  0.07895  0.27431  0.78788  1.0000
  H   H357      1.0  0.10957  0.26482  0.76661  1.0000
  H   H358      1.0  0.11584  0.23600  0.75334  1.0000
  H   H359      1.0  0.06032  0.22449  0.73732  1.0000
  H   H360      1.0  0.02571  0.12084  0.66090  1.0000
  H   H361      1.0  0.03815  0.35753  0.65991  1.0000
  H   H362      1.0  0.04327  0.17074  0.79028  1.0000
  H   H363      1.0  0.07439  0.17904  0.78480  1.0000
  H   H364      1.0  0.09166  0.24623  0.72934  1.0000
  H   H365      1.0  0.10689  0.25544  0.69577  1.0000
  H   H366      1.0  0.12465  0.23040  0.67744  1.0000
  H   H367      1.0  0.12596  0.19600  0.69281  1.0000
  H   H368      1.0  0.11147  0.18657  0.72640  1.0000
  C   C469      1.0  0.01029  0.22286  0.48214  1.0000
  C   C470      1.0  0.17793  0.17867  0.71764  1.0000
  C   C471      1.0  0.09815  0.43297  0.91986  1.0000
  H   H369      1.0  0.15561  0.30777  0.49492  1.0000
  C   C472      1.0  0.15808  0.99971  0.63948  1.0000
  H   H370      1.0  0.09605  0.14698  0.65084  1.0000
  C   C473      1.0  0.06051  0.13455  0.62375  1.0000
  C   C474      1.0  0.11284  0.32064  0.52291  1.0000
  H   H371      1.0  0.18429  0.34473  0.81110  1.0000
  C   C475      1.0  0.10576  0.04232  0.66311  1.0000
  H   H372      1.0  0.16014  0.33318  0.53873  1.0000
  H   H373      1.0  0.06559  0.13601  0.68199  1.0000
  C   C476      1.0  0.15143  0.05903  0.83654  1.0000
  H   H374      1.0  0.18355  0.27605  0.97250  1.0000
  C   C477      1.0  0.17436  0.00586  0.71622  1.0000
  C   C478      1.0  0.12974  0.06349  0.86635  1.0000
  C   C479      1.0  0.11140  0.35905  0.79257  1.0000
  C   C480      1.0  0.00019  0.37252  0.72145  1.0000
  H   H375      1.0  0.16331  0.24174  0.84666  1.0000
  C   C481      1.0  0.03976  0.12260  0.65298  1.0000
  C   C482      1.0  0.11002  0.13852  0.64660  1.0000
  H   H376      1.0  0.02394  0.19464  0.59969  1.0000
  H   H377      1.0  0.17203  0.17525  0.61568  1.0000
  H   H378      1.0  0.10009  0.31517  0.53014  1.0000
  C   C483      1.0  0.14436  0.31655  0.50315  1.0000
  H   H379      1.0  0.06252  0.14208  0.60900  1.0000
  H   H380      1.0  0.13913  0.07096  0.81151  1.0000
  H   H381      1.0  0.15285  0.40488  0.97170  1.0000
  H   H382      1.0  0.09084  0.03879  0.69226  1.0000
  C   C484      1.0  0.03676  0.37988  0.71348  1.0000
  C   C485      1.0  0.13157  0.10773  0.64601  1.0000
  H   H383      1.0  0.18816  0.37046  0.55136  1.0000
  H   H384      1.0  0.12279  0.16326  0.63513  1.0000
  H   H385      1.0  0.10740  0.08303  0.82920  1.0000
  C   C486      1.0  0.18647  0.40405  0.75456  1.0000
  H   H386      1.0  0.17286  0.13559  0.74202  1.0000
  H   H387      1.0  0.16802  0.17243  0.67475  1.0000
  C   C487      1.0  0.18517  0.02806  0.83835  1.0000
  H   H388      1.0  0.07690  0.41571  0.93113  1.0000
  H   H389      1.0  0.02757  0.39104  0.73901  1.0000
  H   H390      1.0  0.17369  0.01609  0.81080  1.0000
  S   S84       1.0  0.17949  0.14668  0.64882  1.0000
  C   C488      1.0  0.14331  0.13712  0.63252  1.0000
  H   H391      1.0  0.01772  0.17766  0.63353  1.0000
  C   C489      1.0  0.04186  0.24059  0.49071  1.0000
  C   C490      1.0  0.15238  0.40807  0.76344  1.0000
  C   C491      1.0  0.15145  0.41125  0.74441  1.0000
  C   C492      1.0  0.16802  0.41131  0.73019  1.0000
  H   H392      1.0  0.16879  0.34543  0.56208  1.0000
  P   P17       1.0  0.16625  0.41954  0.70554  1.0000
  C   C493      1.0  0.14633  0.41251  0.70191  1.0000
  C   C494      1.0  0.16247  0.44542  0.70019  1.0000
  C   C495      1.0  0.17879  0.36748  0.92774  1.0000
  C   C496      1.0  0.13537  0.42462  0.68898  1.0000
  C   C497      1.0  0.11993  0.41911  0.68622  1.0000
  C   C498      1.0  0.11535  0.40151  0.69637  1.0000
  C   C499      1.0  0.12629  0.38933  0.70914  1.0000
  C   C500      1.0  0.14178  0.39474  0.71186  1.0000
  H   H393      1.0  0.10625  0.19322  0.47869  1.0000
  H   H394      1.0  0.12706  0.06152  0.88166  1.0000
  H   H395      1.0  0.05942  0.14179  0.71416  1.0000
  H   H396      1.0  0.15501  0.14434  0.62585  1.0000
  C   C501      1.0  0.07388  0.12639  0.69196  1.0000
  C   C502      1.0  0.12510  0.14780  0.63768  1.0000
  C   C503      1.0  0.17259  0.02854  0.79926  1.0000
  C   C504      1.0  0.04259  0.23006  0.52437  1.0000
  H   H397      1.0  0.13946  0.40888  0.77426  1.0000
  H   H398      1.0  0.13767  0.41467  0.74078  1.0000
  C   C505      1.0  0.14781  0.05655  0.85639  1.0000
  H   H399      1.0  0.17369  0.39375  0.85562  1.0000
  H   H400      1.0  0.13853  0.43842  0.68122  1.0000
  H   H401      1.0  0.11120  0.42871  0.67662  1.0000
  H   H402      1.0  0.10289  0.39762  0.69490  1.0000
  H   H403      1.0  0.12229  0.37602  0.71752  1.0000
  H   H404      1.0  0.14997  0.38521  0.72197  1.0000
  C   C506      1.0  0.16686  0.37095  0.81889  1.0000
  S   S85       1.0  0.11140  0.45819  0.75783  1.0000
  H   H405      1.0  0.18109  0.23617  0.91530  1.0000
  C   C507      1.0  0.04460  0.17879  0.63811  1.0000
  C   C508      1.0  0.03104  0.18222  0.62715  1.0000
  C   C509      1.0  0.03455  0.19185  0.60812  1.0000
  C   C510      1.0  0.05145  0.19844  0.60014  1.0000
  C   C511      1.0  0.06494  0.19546  0.61122  1.0000
  C   C512      1.0  0.06154  0.18518  0.63015  1.0000
  P   P18       1.0  0.08628  0.20499  0.60164  1.0000
  C   C513      1.0  0.09130  0.21180  0.62099  1.0000
  C   C514      1.0  0.10576  0.18707  0.59295  1.0000
  C   C515      1.0  0.12189  0.19270  0.58034  1.0000
  C   C516      1.0  0.13726  0.17895  0.57379  1.0000
  C   C517      1.0  0.13670  0.15948  0.57988  1.0000
  C   C518      1.0  0.12072  0.15376  0.59250  1.0000
  C   C519      1.0  0.10527  0.16750  0.59903  1.0000
  C   C520      1.0  0.07650  0.22197  0.63275  1.0000
  C   C521      1.0  0.07925  0.22454  0.64958  1.0000
  C   C522      1.0  0.09667  0.21688  0.65496  1.0000
  C   C523      1.0  0.11159  0.20710  0.64319  1.0000
  C   C524      1.0  0.10905  0.20476  0.62612  1.0000
  C   C525      1.0  0.08249  0.22530  0.58215  1.0000
  C   C526      1.0  0.07774  0.24419  0.58482  1.0000
  C   C527      1.0  0.07460  0.25964  0.56957  1.0000
  C   C528      1.0  0.07620  0.25638  0.55159  1.0000
  C   C529      1.0  0.08089  0.23763  0.54881  1.0000
  C   C530      1.0  0.08413  0.22216  0.56399  1.0000
  H   H406      1.0  0.04178  0.17170  0.65301  1.0000
  C   C531      1.0  0.01353  0.36751  0.70550  1.0000
  H   H407      1.0  0.04213  0.36693  0.68952  1.0000
  H   H408      1.0  0.05365  0.20625  0.58553  1.0000
  H   H409      1.0  0.07163  0.18271  0.63909  1.0000
  H   H410      1.0  0.12266  0.20773  0.57564  1.0000
  H   H411      1.0  0.14961  0.18349  0.56399  1.0000
  H   H412      1.0  0.14869  0.14886  0.57486  1.0000
  H   H413      1.0  0.12042  0.13864  0.59740  1.0000
  H   H414      1.0  0.09313  0.16282  0.60898  1.0000
  H   H415      1.0  0.06250  0.22710  0.62946  1.0000
  H   H416      1.0  0.06746  0.23150  0.65898  1.0000
  H   H417      1.0  0.09840  0.21808  0.66850  1.0000
  H   H418      1.0  0.12497  0.20088  0.64758  1.0000
  H   H419      1.0  0.12083  0.19700  0.61734  1.0000
  H   H420      1.0  0.07660  0.24719  0.59851  1.0000
  H   H421      1.0  0.07111  0.27418  0.57172  1.0000
  H   H422      1.0  0.07405  0.26840  0.53976  1.0000
  H   H423      1.0  0.08242  0.23508  0.53480  1.0000
  H   H424      1.0  0.08801  0.20773  0.56151  1.0000
  C   C532      1.0  0.06511  0.34306  0.61223  1.0000
  C   C533      1.0  0.05028  0.35913  0.61243  1.0000
  C   C534      1.0  0.04067  0.36434  0.62964  1.0000
  C   C535      1.0  0.04588  0.35348  0.64665  1.0000
  C   C536      1.0  0.06077  0.33730  0.64657  1.0000
  C   C537      1.0  0.07028  0.33209  0.62920  1.0000
  P   P19       1.0  0.06701  0.32327  0.66878  1.0000
  C   C538      1.0  0.07952  0.33531  0.67811  1.0000
  C   C539      1.0  0.04516  0.31935  0.68519  1.0000
  C   C540      1.0  0.04196  0.32053  0.70427  1.0000
  C   C541      1.0  0.03134  0.31432  0.67896  1.0000
  C   C542      1.0  0.08791  0.32536  0.69371  1.0000
  C   C543      1.0  0.09577  0.33497  0.70249  1.0000
  C   C544      1.0  0.09573  0.35447  0.69552  1.0000
  Fe  Fe45      1.0  0.03548  0.35075  0.78580  1.0000
  C   C545      1.0  0.08009  0.35478  0.67076  1.0000
  C   C546      1.0  0.08197  0.30049  0.66505  1.0000
  C   C547      1.0  0.10104  0.29961  0.65576  1.0000
  C   C548      1.0  0.11213  0.28262  0.65064  1.0000
  C   C549      1.0  0.10433  0.26638  0.65498  1.0000
  C   C550      1.0  0.08570  0.26687  0.66507  1.0000
  C   C551      1.0  0.07450  0.28383  0.67004  1.0000
  H   H425      1.0  0.07241  0.33874  0.59895  1.0000
  H   H426      1.0  0.04613  0.36738  0.59927  1.0000
  C   C552      1.0  0.04423  0.22578  0.50679  1.0000
  H   H427      1.0  0.17843  0.44790  0.67122  1.0000
  H   H428      1.0  0.08140  0.31940  0.62855  1.0000
  H   H429      1.0  0.05208  0.32454  0.70969  1.0000
  H   H430      1.0  0.03344  0.31341  0.66428  1.0000
  H   H431      1.0  0.08760  0.31035  0.69968  1.0000
  H   H432      1.0  0.10136  0.32734  0.71511  1.0000
  S   S86       1.0  0.05225  0.35328  0.75589  1.0000
  H   H433      1.0  0.07404  0.36275  0.65856  1.0000
  H   H434      1.0  0.10711  0.31226  0.65179  1.0000
  H   H435      1.0  0.12668  0.28207  0.64293  1.0000
  H   H436      1.0  0.11271  0.25342  0.65048  1.0000
  H   H437      1.0  0.07977  0.25419  0.66877  1.0000
  H   H438      1.0  0.05998  0.28383  0.67740  1.0000
  C   C553      1.0  0.01520  0.30935  0.69183  1.0000
  C   C554      1.0  0.16503  0.21591  0.72405  1.0000
  C   C555      1.0  0.17412  0.35154  0.51420  1.0000
  C   C556      1.0  0.14657  0.11709  0.63683  1.0000
  C   C557      1.0  0.15915  0.18456  0.72667  1.0000
  C   C558      1.0  0.17294  0.35150  0.54706  1.0000
  C   C559      1.0  0.15791  0.99716  0.62167  1.0000
  C   C560      1.0  0.16491  0.18680  0.85809  1.0000
  C   C561      1.0  0.17158  0.19950  0.86432  1.0000
  H   H439      1.0  0.03545  0.27145  0.48049  1.0000
  C   C562      1.0  0.18460  0.08196  0.82979  1.0000
  H   H440      1.0  0.17706  0.35614  0.92210  1.0000
  C   C563      1.0  0.17641  0.46125  0.87669  1.0000
  C   C564      1.0  0.18384  0.39612  0.81477  1.0000
  S   S87       1.0  0.18241  0.10072  0.68878  1.0000
  H   H441      1.0  0.15994  0.01623  0.84567  1.0000
  H   H442      1.0  0.17009  0.01221  0.78042  1.0000
  C   C565      1.0  0.14002  0.45213  0.95120  1.0000
  C   C566      1.0  0.18380  0.21006  0.71503  1.0000
  S   S88       1.0  0.11300  0.23687  0.48023  1.0000
  H   H443      1.0  0.17422  0.31797  0.90966  1.0000
  C   C567      1.0  0.18157  0.27039  0.52325  1.0000
  C   C568      1.0  0.14671  0.43232  0.95242  1.0000
  H   H444      1.0  0.12125  0.27328  0.47559  1.0000
  C   C569      1.0  0.03746  0.25974  0.49260  1.0000
  H   H445      1.0  0.14766  0.35564  0.96371  1.0000
  H   H446      1.0  0.01005  0.36041  0.69633  1.0000
  H   H447      1.0  0.08052  0.22154  0.48144  1.0000
  H   H448      1.0  0.18543  0.40825  0.94732  1.0000
  H   H449      1.0  0.13976  0.37209  0.48189  1.0000
  C   C570      1.0  0.18559  0.40755  0.73544  1.0000
  C   C571      1.0  0.16606  0.44834  0.87597  1.0000
  H   H450      1.0  0.13109  0.47509  0.96632  1.0000
  C   C572      1.0  0.18796  0.32062  0.49316  1.0000
  H   H451      1.0  0.18730  0.27855  0.59565  1.0000
  H   H452      1.0  0.17386  0.98584  0.86547  1.0000
  C   C573      1.0  0.18856  0.31862  0.90947  1.0000
  H   H453      1.0  0.18372  0.41055  0.81566  1.0000
  H   H454      1.0  0.18202  0.47064  0.86371  1.0000
  C   C574      1.0  0.17956  0.46196  0.89412  1.0000
  C   C575      1.0  0.05272  0.75997  0.03881  1.0000
  C   C576      1.0  0.12061  0.91996  0.46229  1.0000
  C   C577      1.0  0.14685  0.84745  0.98585  1.0000
  S   S89       1.0  0.02716  0.81677  0.31992  1.0000
  C   C578      1.0  0.05109  0.88552  0.46508  1.0000
  S   S90       1.0  0.12382  0.52199  0.18867  1.0000
  H   H455      1.0  0.12172  0.50615  0.13569  1.0000
  Fe  Fe46      1.0  0.16315  0.59692  0.21360  1.0000
  S   S91       1.0  0.13972  0.61584  0.22997  1.0000
  S   S92       1.0  0.16719  0.56467  0.22148  1.0000
  C   C579      1.0  0.09887  0.90090  0.46209  1.0000
  S   S93       1.0  0.15974  0.65191  0.20442  1.0000
  H   H456      1.0  0.04692  0.94744  0.39375  1.0000
  Fe  Fe47      1.0  0.16282  0.62945  0.23108  1.0000
  S   S94       1.0  0.16344  0.63422  0.25941  1.0000
  Fe  Fe48      1.0  0.13883  0.63635  0.20187  1.0000
  S   S95       1.0  0.11397  0.65307  0.18867  1.0000
  H   H457      1.0  0.13377  0.73941  0.18476  1.0000
  S   S96       1.0  0.16026  0.61611  0.18524  1.0000
  Fe  Fe49      1.0  0.02330  0.71948  0.21690  1.0000
  H   H458      1.0  0.11905  0.93681  0.37557  1.0000
  S   S97       1.0  0.03676  0.69233  0.23534  1.0000
  Fe  Fe50      1.0  0.02145  0.74043  0.17660  1.0000
  S   S98       1.0  0.03183  0.73834  0.14598  1.0000
  S   S99       1.0  0.04140  0.73833  0.19520  1.0000
  Fe  Fe51      1.0  0.16968  0.75753  0.07227  1.0000
  S   S100      1.0  0.14085  0.77228  0.06687  1.0000
  C   C580      1.0  0.09532  0.91566  0.29382  1.0000
  Fe  Fe52      1.0  0.15986  0.71816  0.08480  1.0000
  S   S101      1.0  0.12978  0.72984  0.08095  1.0000
  S   S102      1.0  0.16130  0.83117  0.42862  1.0000
  Fe  Fe53      1.0  0.14253  0.74786  0.05360  1.0000
  S   S103      1.0  0.13048  0.75545  0.02703  1.0000
  Fe  Fe54      1.0  0.13063  0.75317  0.09443  1.0000
  S   S104      1.0  0.10874  0.76689  0.11652  1.0000
  S   S105      1.0  0.17257  0.73472  0.05642  1.0000
  S   S106      1.0  0.15956  0.73989  0.10083  1.0000
  S   S107      1.0  0.03672  0.85759  0.32003  1.0000
  Fe  Fe55      1.0  0.14901  0.81378  0.41638  1.0000
  S   S108      1.0  0.11875  0.82636  0.42782  1.0000
  H   H459      1.0  0.04623  0.91577  0.36922  1.0000
  Fe  Fe56      1.0  0.15979  0.85238  0.40079  1.0000
  S   S109      1.0  0.13072  0.86851  0.41134  1.0000
  P   P20       1.0  0.05297  0.90536  0.40782  1.0000
  Fe  Fe57      1.0  0.13104  0.84545  0.43795  1.0000
  C   C581      1.0  0.05699  0.89079  0.43063  1.0000
  Fe  Fe58      1.0  0.12090  0.84811  0.40047  1.0000
  S   S110      1.0  0.09872  0.86136  0.38300  1.0000
  H   H460      1.0  0.07148  0.92756  0.42117  1.0000
  S   S111      1.0  0.15004  0.83375  0.38780  1.0000
  H   H461      1.0  0.09990  0.94161  0.40712  1.0000
  S   S112      1.0  0.05243  0.81376  0.36071  1.0000
  S   S113      1.0  0.07111  0.82240  0.30575  1.0000
  C   C582      1.0  0.08289  0.88864  0.29248  1.0000
  C   C583      1.0  0.07443  0.88695  0.31172  1.0000
  H   H462      1.0  0.14006  0.90470  0.29565  1.0000
  H   H463      1.0  0.06639  0.87598  0.31882  1.0000
  H   H464      1.0  0.06990  0.89796  0.33683  1.0000
  H   H465      1.0  0.08300  0.61817  0.26828  1.0000
  C   C584      1.0  0.16344  0.55329  0.15525  1.0000
  C   C585      1.0  0.04437  0.90116  0.37529  1.0000
  C   C586      1.0  0.17166  0.92616  0.34739  1.0000
  C   C587      1.0  0.15746  0.91539  0.35390  1.0000
  C   C588      1.0  0.16090  0.89698  0.36572  1.0000
  H   H466      1.0  0.07968  0.86986  0.41840  1.0000
  C   C589      1.0  0.17280  0.71064  0.17746  1.0000
  H   H467      1.0  0.14399  0.92112  0.34960  1.0000
  C   C590      1.0  0.17333  0.90942  0.22367  1.0000
  C   C591      1.0  0.08812  0.84633  0.37638  1.0000
  C   C592      1.0  0.08255  0.83020  0.38928  1.0000
  C   C593      1.0  0.07172  0.82002  0.38439  1.0000
  C   C594      1.0  0.06684  0.82575  0.36649  1.0000
  C   C595      1.0  0.07326  0.84127  0.35334  1.0000
  C   C596      1.0  0.08365  0.85169  0.35837  1.0000
  H   H468      1.0  0.08588  0.82609  0.40325  1.0000
  H   H469      1.0  0.06688  0.80791  0.39455  1.0000
  H   H470      1.0  0.06989  0.84549  0.33942  1.0000
  H   H471      1.0  0.08800  0.86412  0.34837  1.0000
  C   C597      1.0  0.14756  0.86448  0.46817  1.0000
  H   H472      1.0  0.16788  0.90340  0.25426  1.0000
  S   S114      1.0  0.02743  0.78994  0.20804  1.0000
  H   H473      1.0  0.17187  0.79068  0.12953  1.0000
  C   C598      1.0  0.04314  0.80695  0.24791  1.0000
  C   C599      1.0  0.14186  0.74384  0.00802  1.0000
  C   C600      1.0  0.15443  0.72606  0.01049  1.0000
  C   C601      1.0  0.16317  0.71736  0.99484  1.0000
  C   C602      1.0  0.03743  0.80679  0.23144  1.0000
  C   C603      1.0  0.16494  0.90064  0.24190  1.0000
  C   C604      1.0  0.13808  0.75276  0.98994  1.0000
  H   H474      1.0  0.15752  0.71910  0.02437  1.0000
  H   H475      1.0  0.10238  0.81987  0.97778  1.0000
  H   H476      1.0  0.17292  0.81908  0.01891  1.0000
  H   H477      1.0  0.12850  0.76654  0.98789  1.0000
  C   C605      1.0  0.05198  0.74841  0.13611  1.0000
  C   C606      1.0  0.05644  0.76023  0.14538  1.0000
  C   C607      1.0  0.07356  0.76657  0.13866  1.0000
  C   C608      1.0  0.08636  0.76098  0.12274  1.0000
  C   C609      1.0  0.08158  0.74984  0.11294  1.0000
  C   C610      1.0  0.06430  0.74366  0.11956  1.0000
  H   H478      1.0  0.04678  0.76434  0.15787  1.0000
  H   H479      1.0  0.07714  0.77534  0.14615  1.0000
  H   H480      1.0  0.09139  0.74552  0.10063  1.0000
  H   H481      1.0  0.06087  0.73455  0.11237  1.0000
  Fe  Fe59      1.0  0.10579  0.95187  0.31548  1.0000
  C   C611      1.0  0.18680  0.95612  0.17016  1.0000
  C   C612      1.0  0.17319  0.67956  0.12924  1.0000
  H   H482      1.0  0.14637  0.96413  0.36317  1.0000
  C   C613      1.0  0.99988  0.95385  0.41329  1.0000
  H   H483      1.0  0.10946  0.57114  0.22680  1.0000
  Fe  Fe60      1.0  0.18118  0.63053  0.18950  1.0000
  H   H484      1.0  0.16142  0.69159  0.13024  1.0000
  C   C614      1.0  0.05308  0.75924  0.00642  1.0000
  H   H485      1.0  0.09523  0.51961  0.15953  1.0000
  C   C615      1.0  0.09296  0.66376  0.20240  1.0000
  C   C616      1.0  0.08894  0.65887  0.22228  1.0000
  C   C617      1.0  0.07156  0.66755  0.23249  1.0000
  C   C618      1.0  0.05850  0.68142  0.22281  1.0000
  C   C619      1.0  0.06267  0.68627  0.20300  1.0000
  C   C620      1.0  0.07967  0.67720  0.19290  1.0000
  H   H486      1.0  0.09902  0.64821  0.22970  1.0000
  H   H487      1.0  0.06829  0.66365  0.24783  1.0000
  H   H488      1.0  0.05254  0.69661  0.19538  1.0000
  H   H489      1.0  0.08250  0.68054  0.17762  1.0000
  C   C621      1.0  0.13552  0.53397  0.19807  1.0000
  C   C622      1.0  0.14817  0.52356  0.20984  1.0000
  C   C623      1.0  0.15745  0.53318  0.21726  1.0000
  C   C624      1.0  0.15466  0.55324  0.21246  1.0000
  C   C625      1.0  0.14213  0.56372  0.20055  1.0000
  C   C626      1.0  0.13232  0.55410  0.19364  1.0000
  H   H490      1.0  0.15065  0.50808  0.21340  1.0000
  H   H491      1.0  0.16695  0.52496  0.22663  1.0000
  H   H492      1.0  0.13997  0.57918  0.19672  1.0000
  H   H493      1.0  0.12280  0.56225  0.18427  1.0000
  S   S115      1.0  0.08018  0.87318  0.27934  1.0000
  S   S116      1.0  0.05456  0.78913  0.28186  1.0000
  S   S117      1.0  0.00472  0.71970  0.19752  1.0000
  C   C627      1.0  0.12787  0.81884  0.00939  1.0000
  C   C628      1.0  0.07915  0.60789  0.24545  1.0000
  H   H494      1.0  0.10919  0.91856  0.35778  1.0000
  H   H495      1.0  0.03612  0.81965  0.22036  1.0000
  H   H496      1.0  0.99427  0.84519  0.18431  1.0000
  H   H497      1.0  0.01840  0.97303  0.39675  1.0000
  H   H498      1.0  0.16487  0.71166  0.15123  1.0000
  C   C629      1.0  0.04096  0.77365  0.26003  1.0000
  H   H499      1.0  0.12154  0.92676  0.15903  1.0000
  H   H500      1.0  0.00665  0.72575  0.29949  1.0000
  C   C630      1.0  0.07533  0.86320  0.44879  1.0000
  S   S118      1.0  0.00181  0.76654  0.18524  1.0000
  C   C631      1.0  0.03371  0.79000  0.22916  1.0000
  H   H501      1.0  0.04212  0.76085  0.27115  1.0000
  C   C632      1.0  0.11832  0.83801  0.00648  1.0000
  Fe  Fe61      1.0  0.02022  0.76284  0.20585  1.0000
  C   C633      1.0  0.10364  0.58158  0.23566  1.0000
  C   C634      1.0  0.15829  0.97290  0.19703  1.0000
  C   C635      1.0  0.18298  0.80797  0.32266  1.0000
  C   C636      1.0  0.17867  0.88932  0.37065  1.0000
  C   C637      1.0  0.08674  0.59493  0.23332  1.0000
  P   P21       1.0  0.07483  0.59406  0.21551  1.0000
  C   C638      1.0  0.05375  0.61268  0.21378  1.0000
  C   C639      1.0  0.08993  0.59830  0.19224  1.0000
  C   C640      1.0  0.10476  0.60793  0.18881  1.0000
  C   C641      1.0  0.11562  0.61231  0.17047  1.0000
  C   C642      1.0  0.11178  0.60714  0.15543  1.0000
  C   C643      1.0  0.09695  0.59767  0.15869  1.0000
  C   C644      1.0  0.08591  0.59347  0.17698  1.0000
  C   C645      1.0  0.03671  0.60838  0.21315  1.0000
  C   C646      1.0  0.02063  0.62300  0.21122  1.0000
  C   C647      1.0  0.02151  0.64202  0.20961  1.0000
  C   C648      1.0  0.03852  0.64647  0.20966  1.0000
  C   C649      1.0  0.05464  0.63192  0.21151  1.0000
  C   C650      1.0  0.06944  0.57039  0.22259  1.0000
  C   C651      1.0  0.08034  0.55567  0.21332  1.0000
  C   C652      1.0  0.07668  0.53716  0.21967  1.0000
  C   C653      1.0  0.06226  0.53313  0.23542  1.0000
  C   C654      1.0  0.05158  0.54759  0.24497  1.0000
  C   C655      1.0  0.05528  0.56611  0.23871  1.0000
  H   H502      1.0  0.06586  0.61797  0.24448  1.0000
  H   H503      1.0  0.10780  0.61244  0.20016  1.0000
  H   H504      1.0  0.12678  0.62009  0.16789  1.0000
  H   H505      1.0  0.12012  0.61074  0.14122  1.0000
  H   H506      1.0  0.09386  0.59379  0.14699  1.0000
  H   H507      1.0  0.07421  0.58649  0.17922  1.0000
  H   H508      1.0  0.03579  0.59385  0.21389  1.0000
  H   H509      1.0  0.00748  0.61961  0.21092  1.0000
  S   S119      1.0  0.11730  0.85041  0.46741  1.0000
  H   H510      1.0  0.03917  0.66126  0.20821  1.0000
  H   H511      1.0  0.06783  0.63571  0.21109  1.0000
  H   H512      1.0  0.09195  0.55818  0.20146  1.0000
  C   C656      1.0  0.16878  0.90682  0.20758  1.0000
  H   H513      1.0  0.06610  0.50614  0.17084  1.0000
  H   H514      1.0  0.04061  0.54436  0.25739  1.0000
  H   H515      1.0  0.04722  0.57705  0.24653  1.0000
  C   C657      1.0  0.16319  0.97069  0.24377  1.0000
  C   C658      1.0  0.12693  0.88200  0.34154  1.0000
  C   C659      1.0  0.12988  0.89695  0.32583  1.0000
  C   C660      1.0  0.13820  0.89301  0.30788  1.0000
  C   C661      1.0  0.14382  0.87406  0.30571  1.0000
  C   C662      1.0  0.14043  0.85895  0.32141  1.0000
  C   C663      1.0  0.13207  0.86304  0.33937  1.0000
  P   P22       1.0  0.14923  0.83451  0.31880  1.0000
  C   C664      1.0  0.14824  0.83439  0.29485  1.0000
  H   H516      1.0  0.14529  0.88254  0.25827  1.0000
  H   H517      1.0  0.16654  0.77027  0.37576  1.0000
  P   P23       1.0  0.14799  0.93190  0.43043  1.0000
  C   C665      1.0  0.16214  0.92947  0.46205  1.0000
  C   C666      1.0  0.16433  0.82683  0.28229  1.0000
  C   C667      1.0  0.16343  0.82769  0.26358  1.0000
  C   C668      1.0  0.14652  0.83619  0.25723  1.0000
  C   C669      1.0  0.13059  0.84413  0.26948  1.0000
  C   C670      1.0  0.13148  0.84343  0.28811  1.0000
  C   C671      1.0  0.13477  0.81904  0.33624  1.0000
  C   C672      1.0  0.11932  0.81463  0.33211  1.0000
  C   C673      1.0  0.10841  0.80265  0.34586  1.0000
  C   C674      1.0  0.11265  0.79516  0.36389  1.0000
  C   C675      1.0  0.12790  0.79953  0.36819  1.0000
  C   C676      1.0  0.13898  0.81131  0.35441  1.0000
  H   H518      1.0  0.12032  0.88514  0.35540  1.0000
  H   H519      1.0  0.12541  0.91160  0.32757  1.0000
  H   H520      1.0  0.12952  0.85169  0.35175  1.0000
  C   C677      1.0  0.13921  0.95028  0.41151  1.0000
  C   C678      1.0  0.12337  0.96468  0.41603  1.0000
  H   H521      1.0  0.17764  0.82048  0.28673  1.0000
  C   C679      1.0  0.10584  0.91039  0.47176  1.0000
  H   H522      1.0  0.14572  0.83671  0.24282  1.0000
  H   H523      1.0  0.11744  0.85091  0.26461  1.0000
  H   H524      1.0  0.11901  0.85012  0.29721  1.0000
  H   H525      1.0  0.11529  0.82054  0.31853  1.0000
  H   H526      1.0  0.09615  0.79975  0.34279  1.0000
  H   H527      1.0  0.10371  0.78646  0.37470  1.0000
  H   H528      1.0  0.13087  0.79414  0.38237  1.0000
  C   C680      1.0  0.07242  0.75982  0.00117  1.0000
  Fe  Fe62      1.0  0.04751  0.82624  0.33093  1.0000
  Fe  Fe63      1.0  0.01837  0.84779  0.30652  1.0000
  C   C681      1.0  0.15457  0.63912  0.13470  1.0000
  C   C682      1.0  0.16090  0.62715  0.12173  1.0000
  C   C683      1.0  0.15068  0.62932  0.10781  1.0000
  C   C684      1.0  0.13441  0.64380  0.10658  1.0000
  C   C685      1.0  0.12855  0.65653  0.11895  1.0000
  C   C686      1.0  0.13835  0.65365  0.13348  1.0000
  P   P24       1.0  0.10740  0.67499  0.11731  1.0000
  C   C687      1.0  0.10671  0.68788  0.09313  1.0000
  C   C688      1.0  0.08804  0.66287  0.12861  1.0000
  C   C689      1.0  0.07592  0.66069  0.11817  1.0000
  C   C690      1.0  0.06107  0.65109  0.12736  1.0000
  C   C691      1.0  0.05841  0.64345  0.14693  1.0000
  C   C692      1.0  0.07068  0.64526  0.15729  1.0000
  C   C693      1.0  0.08551  0.65481  0.14817  1.0000
  C   C694      1.0  0.09014  0.70099  0.08910  1.0000
  C   C695      1.0  0.08978  0.71220  0.07077  1.0000
  C   C696      1.0  0.10602  0.71055  0.05636  1.0000
  C   C697      1.0  0.12263  0.69769  0.06028  1.0000
  C   C698      1.0  0.12309  0.68660  0.07864  1.0000
  C   C699      1.0  0.10642  0.69321  0.12961  1.0000
  C   C700      1.0  0.12226  0.70131  0.12623  1.0000
  C   C701      1.0  0.12162  0.71569  0.13540  1.0000
  C   C702      1.0  0.10521  0.72199  0.14809  1.0000
  C   C703      1.0  0.08920  0.71433  0.15116  1.0000
  C   C704      1.0  0.08965  0.70028  0.14164  1.0000
  H   H529      1.0  0.16246  0.63746  0.14550  1.0000
  H   H530      1.0  0.17379  0.61632  0.12236  1.0000
  H   H531      1.0  0.15552  0.61997  0.09780  1.0000
  H   H532      1.0  0.12658  0.64530  0.09576  1.0000
  H   H533      1.0  0.13366  0.66264  0.14383  1.0000
  H   H534      1.0  0.07791  0.66631  0.10299  1.0000
  H   H535      1.0  0.05160  0.64962  0.11931  1.0000
  H   H536      1.0  0.04686  0.63610  0.15408  1.0000
  H   H537      1.0  0.06882  0.63923  0.17239  1.0000
  H   H538      1.0  0.09500  0.65598  0.15639  1.0000
  H   H539      1.0  0.07765  0.70292  0.10029  1.0000
  H   H540      1.0  0.07707  0.72255  0.06787  1.0000
  H   H541      1.0  0.10599  0.71971  0.04232  1.0000
  H   H542      1.0  0.13543  0.69699  0.04930  1.0000
  H   H543      1.0  0.13650  0.67781  0.08158  1.0000
  H   H544      1.0  0.13499  0.69667  0.11624  1.0000
  H   H545      1.0  0.13373  0.72218  0.13249  1.0000
  H   H546      1.0  0.10462  0.73346  0.15481  1.0000
  H   H547      1.0  0.07617  0.71977  0.16037  1.0000
  H   H548      1.0  0.07680  0.69518  0.14366  1.0000
  H   H549      1.0  0.99965  0.83793  0.36136  1.0000
  C   C705      1.0  0.15361  0.56091  0.33011  1.0000
  C   C706      1.0  0.13627  0.56957  0.32466  1.0000
  C   C707      1.0  0.13473  0.58652  0.31074  1.0000
  H   H550      1.0  0.09710  0.48864  0.09883  1.0000
  H   H551      1.0  0.08555  0.79340  0.99129  1.0000
  H   H552      1.0  0.16884  0.76361  0.00629  1.0000
  Fe  Fe64      1.0  0.13797  0.49076  0.18900  1.0000
  H   H553      1.0  0.00890  0.81525  0.28165  1.0000
  C   C708      1.0  0.04704  0.89656  0.44763  1.0000
  H   H554      1.0  0.15156  0.94513  0.20831  1.0000
  H   H555      1.0  0.16724  0.90729  0.31483  1.0000
  H   H556      1.0  0.08649  0.85043  0.44925  1.0000
  H   H557      1.0  0.15448  0.54791  0.34111  1.0000
  H   H558      1.0  0.12400  0.56318  0.33128  1.0000
  H   H559      1.0  0.12131  0.59331  0.30654  1.0000
  H   H560      1.0  0.17497  0.91609  0.12011  1.0000
  C   C709      1.0  0.17537  0.94477  0.18426  1.0000
  H   H561      1.0  0.17887  0.74358  0.43085  1.0000
  H   H562      1.0  0.15697  0.89000  0.43341  1.0000
  H   H563      1.0  0.04513  0.76004  0.05332  1.0000
  C   C710      1.0  0.09365  0.90286  0.28361  1.0000
  C   C711      1.0  0.08638  0.91412  0.31301  1.0000
  H   H564      1.0  0.08796  0.89285  0.46963  1.0000
  C   C712      1.0  0.15052  0.59483  0.30233  1.0000
  C   C713      1.0  0.99854  0.93477  0.42149  1.0000
  H   H565      1.0  0.99251  0.68229  0.30521  1.0000
  H   H566      1.0  0.17049  0.87678  0.46863  1.0000
  C   C714      1.0  0.16850  0.95125  0.25187  1.0000
  C   C715      1.0  0.17288  0.82671  0.32360  1.0000
  H   H567      1.0  0.08531  0.52584  0.21252  1.0000
  C   C716      1.0  0.14642  0.92343  0.17005  1.0000
  C   C717      1.0  0.17752  0.58157  0.37558  1.0000
  H   H568      1.0  0.10316  0.92689  0.28680  1.0000
  C   C718      1.0  0.08873  0.60788  0.25924  1.0000
  S   S120      1.0  0.13601  0.94485  0.30006  1.0000
  H   H569      1.0  0.15005  0.88854  0.37053  1.0000
  H   H570      1.0  0.04548  0.75876  0.99611  1.0000
  C   C719      1.0  0.12339  0.86119  0.16424  1.0000
  C   C720      1.0  0.16518  0.57225  0.15242  1.0000
  H   H571      1.0  0.00763  0.84613  0.25819  1.0000
  C   C721      1.0  0.14638  0.82697  0.15546  1.0000
  C   C722      1.0  0.12745  0.83190  0.15340  1.0000
  C   C723      1.0  0.11594  0.84904  0.15800  1.0000
  P   P25       1.0  0.11869  0.81662  0.14395  1.0000
  C   C724      1.0  0.12808  0.81916  0.11868  1.0000
  C   C725      1.0  0.12566  0.79223  0.15650  1.0000
  C   C726      1.0  0.13218  0.77713  0.14685  1.0000
  C   C727      1.0  0.13524  0.75813  0.15701  1.0000
  C   C728      1.0  0.13195  0.75410  0.17685  1.0000
  C   C729      1.0  0.12614  0.76907  0.18652  1.0000
  C   C730      1.0  0.12310  0.78809  0.17639  1.0000
  C   C731      1.0  0.14434  0.82683  0.10981  1.0000
  C   C732      1.0  0.15192  0.82763  0.09045  1.0000
  C   C733      1.0  0.14327  0.82093  0.07976  1.0000
  C   C734      1.0  0.12679  0.81382  0.08835  1.0000
  C   C735      1.0  0.11921  0.81296  0.10770  1.0000
  C   C736      1.0  0.09309  0.82270  0.14744  1.0000
  C   C737      1.0  0.08176  0.81068  0.16083  1.0000
  C   C738      1.0  0.06205  0.81542  0.16296  1.0000
  C   C739      1.0  0.05347  0.83207  0.15169  1.0000
  C   C740      1.0  0.06459  0.84402  0.13821  1.0000
  C   C741      1.0  0.08432  0.83934  0.13605  1.0000
  H   H572      1.0  0.11449  0.87446  0.16764  1.0000
  H   H573      1.0  0.12616  0.69238  0.20228  1.0000
  H   H574      1.0  0.10130  0.89342  0.43554  1.0000
  H   H575      1.0  0.15558  0.81393  0.15176  1.0000
  H   H576      1.0  0.10127  0.85317  0.15672  1.0000
  H   H577      1.0  0.13443  0.77987  0.13152  1.0000
  H   H578      1.0  0.13970  0.74661  0.14940  1.0000
  C   C742      1.0  0.17636  0.57424  0.36056  1.0000
  H   H579      1.0  0.12352  0.76592  0.20191  1.0000
  H   H580      1.0  0.11798  0.79956  0.18409  1.0000
  H   H581      1.0  0.15166  0.83169  0.11775  1.0000
  H   H582      1.0  0.16490  0.83284  0.08389  1.0000
  H   H583      1.0  0.14953  0.82097  0.06492  1.0000
  H   H584      1.0  0.12008  0.80849  0.08018  1.0000
  H   H585      1.0  0.10668  0.80695  0.11419  1.0000
  H   H586      1.0  0.08791  0.79749  0.16951  1.0000
  H   H587      1.0  0.05341  0.80604  0.17328  1.0000
  H   H588      1.0  0.03819  0.83557  0.15332  1.0000
  H   H589      1.0  0.05793  0.85683  0.12933  1.0000
  H   H590      1.0  0.09279  0.84861  0.12539  1.0000
  H   H591      1.0  0.17760  0.49325  0.25109  1.0000
  H   H592      1.0  0.15060  0.81463  0.35813  1.0000
  C   C743      1.0  0.09958  0.75250  0.28102  1.0000
  C   C744      1.0  0.11778  0.74297  0.28365  1.0000
  C   C745      1.0  0.12564  0.72523  0.27863  1.0000
  C   C746      1.0  0.11529  0.71699  0.27101  1.0000
  C   C747      1.0  0.09689  0.72643  0.26841  1.0000
  C   C748      1.0  0.08922  0.74430  0.27342  1.0000
  P   P26       1.0  0.08320  0.71604  0.25857  1.0000
  C   C749      1.0  0.08393  0.72780  0.23380  1.0000
  C   C750      1.0  0.09276  0.69052  0.26106  1.0000
  C   C751      1.0  0.10978  0.68396  0.24907  1.0000
  C   C752      1.0  0.11782  0.66440  0.25130  1.0000
  C   C753      1.0  0.10891  0.65114  0.26553  1.0000
  C   C754      1.0  0.09184  0.65746  0.27746  1.0000
  C   C755      1.0  0.08377  0.67709  0.27526  1.0000
  C   C756      1.0  0.08627  0.71716  0.22004  1.0000
  C   C757      1.0  0.08700  0.72630  0.20095  1.0000
  C   C758      1.0  0.08460  0.74625  0.19548  1.0000
  C   C759      1.0  0.08150  0.75704  0.20915  1.0000
  C   C760      1.0  0.08131  0.74788  0.22820  1.0000
  C   C761      1.0  0.05892  0.71962  0.27147  1.0000
  C   C762      1.0  0.05461  0.72019  0.29083  1.0000
  C   C763      1.0  0.03579  0.72259  0.30084  1.0000
  C   C764      1.0  0.02121  0.72401  0.29173  1.0000
  C   C765      1.0  0.02542  0.72315  0.27258  1.0000
  C   C766      1.0  0.04418  0.72111  0.26244  1.0000
  H   H593      1.0  0.09332  0.76623  0.28499  1.0000
  H   H594      1.0  0.12569  0.74931  0.28970  1.0000
  H   H595      1.0  0.13971  0.71776  0.28080  1.0000
  H   H596      1.0  0.12171  0.70318  0.26749  1.0000
  H   H597      1.0  0.07508  0.75187  0.27175  1.0000
  H   H598      1.0  0.11688  0.69410  0.23813  1.0000
  H   H599      1.0  0.13108  0.65948  0.24211  1.0000
  H   H600      1.0  0.11535  0.63600  0.26729  1.0000
  H   H601      1.0  0.08488  0.64719  0.28848  1.0000
  H   H602      1.0  0.07059  0.68165  0.28469  1.0000
  H   H603      1.0  0.08711  0.70184  0.22397  1.0000
  H   H604      1.0  0.08861  0.71791  0.19055  1.0000
  H   H605      1.0  0.08442  0.75340  0.18078  1.0000
  H   H606      1.0  0.07873  0.77257  0.20510  1.0000
  H   H607      1.0  0.07856  0.75661  0.23851  1.0000
  H   H608      1.0  0.06573  0.71887  0.29820  1.0000
  H   H609      1.0  0.03253  0.72340  0.31566  1.0000
  H   H610      1.0  0.01416  0.72401  0.26557  1.0000
  H   H611      1.0  0.04716  0.72066  0.24755  1.0000
  H   H612      1.0  0.10274  0.72895  0.00674  1.0000
  H   H613      1.0  0.07935  0.76117  0.04418  1.0000
  H   H614      1.0  0.04639  0.81981  0.24940  1.0000
  C   C767      1.0  0.15516  0.96152  0.44277  1.0000
  H   H615      1.0  0.10028  0.90427  0.26872  1.0000
  C   C768      1.0  0.18545  0.92220  0.41182  1.0000
  H   H616      1.0  0.18973  0.80060  0.41226  1.0000
  C   C769      1.0  0.15659  0.89440  0.20995  1.0000
  H   H617      1.0  0.12641  0.57137  0.25084  1.0000
  H   H618      1.0  0.18729  0.74047  0.36726  1.0000
  C   C770      1.0  0.15539  0.94183  0.44625  1.0000
  H   H619      1.0  0.99283  0.69779  0.24544  1.0000
  C   C771      1.0  0.13892  0.69794  0.19543  1.0000
  S   S121      1.0  0.04000  0.84640  0.27925  1.0000
  C   C772      1.0  0.14421  0.70206  0.17563  1.0000
  H   H620      1.0  0.11520  0.48926  0.06593  1.0000
  C   C773      1.0  0.03526  0.77350  0.24360  1.0000
  C   C774      1.0  0.09493  0.79370  0.97755  1.0000
  C   C775      1.0  0.14732  0.94995  0.39233  1.0000
  C   C776      1.0  0.03934  0.86351  0.39032  1.0000
  C   C777      1.0  0.03622  0.87273  0.37213  1.0000
  C   C778      1.0  0.11614  0.97892  0.40161  1.0000
  Fe  Fe65      1.0  0.14210  0.95905  0.32011  1.0000
  C   C779      1.0  0.15386  0.83925  0.16144  1.0000
  C   C780      1.0  0.04499  0.87306  0.40104  1.0000
  C   C781      1.0  0.03244  0.92453  0.41043  1.0000
  P   P27       1.0  0.08543  0.75944  0.97704  1.0000
  C   C782      1.0  0.07629  0.89953  0.32191  1.0000
  H   H621      1.0  0.13559  0.69945  0.16737  1.0000
  C   C783      1.0  0.07408  0.91498  0.39733  1.0000
  C   C784      1.0  0.08503  0.91229  0.37951  1.0000
  C   C785      1.0  0.10112  0.92026  0.37173  1.0000
  C   C786      1.0  0.10656  0.93069  0.38170  1.0000
  C   C787      1.0  0.09577  0.93338  0.39946  1.0000
  C   C788      1.0  0.07967  0.92545  0.40733  1.0000
  H   H622      1.0  0.03777  0.84878  0.39593  1.0000
  H   H623      1.0  0.03234  0.86510  0.36367  1.0000
  S   S122      1.0  0.00363  0.74387  0.22925  1.0000
  H   H624      1.0  0.15845  0.94402  0.26269  1.0000
  H   H625      1.0  0.04719  0.86557  0.41510  1.0000
  S   S123      1.0  0.08695  0.93022  0.32649  1.0000
  C   C789      1.0  0.17964  0.66840  0.14576  1.0000
  H   H626      1.0  0.08132  0.90407  0.37151  1.0000
  C   C790      1.0  0.11311  0.58149  0.24951  1.0000
  C   C791      1.0  0.04522  0.79026  0.26212  1.0000
  Fe  Fe66      1.0  0.04970  0.81575  0.29346  1.0000
  H   H627      1.0  0.99846  0.77073  0.27237  1.0000
  H   H628      1.0  0.03226  0.76058  0.24199  1.0000
  S   S124      1.0  0.16868  0.94871  0.33183  1.0000
  C   C792      1.0  0.16091  0.96875  0.45537  1.0000
  C   C793      1.0  0.09383  0.50825  0.15368  1.0000
  H   H629      1.0  0.15287  0.58380  0.15125  1.0000
  C   C794      1.0  0.12138  0.91058  0.43337  1.0000
  H   H630      1.0  0.15067  0.87130  0.29178  1.0000
  Fe  Fe67      1.0  0.05937  0.85340  0.29401  1.0000
  S   S125      1.0  0.11246  0.96389  0.33716  1.0000
  H   H631      1.0  0.14702  0.69622  0.22163  1.0000
  C   C795      1.0  0.10873  0.50073  0.14022  1.0000
  C   C796      1.0  0.10777  0.72483  0.99324  1.0000
  S   S126      1.0  0.09869  0.98065  0.29621  1.0000
  C   C797      1.0  0.01739  0.95829  0.40346  1.0000
  C   C798      1.0  0.18659  0.94095  0.24539  1.0000
  H   H632      1.0  0.17295  0.70366  0.99678  1.0000
  C   C799      1.0  0.13689  0.92387  0.15606  1.0000
  C   C800      1.0  0.18613  0.88291  0.42017  1.0000
  C   C801      1.0  0.10654  0.90110  0.44288  1.0000
  C   C802      1.0  0.14006  0.96427  0.37796  1.0000
  C   C803      1.0  0.16690  0.91796  0.13411  1.0000
  H   H633      1.0  0.14829  0.86604  0.17013  1.0000
  H   H634      1.0  0.12495  0.69834  0.00536  1.0000
  C   C804      1.0  0.03858  0.89159  0.36469  1.0000
  C   C805      1.0  0.15651  0.82822  0.98870  1.0000
  H   H635      1.0  0.13981  0.92136  0.12726  1.0000
  S   S127      1.0  0.17284  0.68648  0.09086  1.0000
  S   S128      1.0  0.18444  0.86580  0.38382  1.0000
  C   C806      1.0  0.12780  0.85230  0.99473  1.0000
  H   H636      1.0  0.16859  0.75663  0.46595  1.0000
  H   H637      1.0  0.18297  0.91871  0.22206  1.0000
  H   H638      1.0  0.09662  0.76113  0.01128  1.0000
  C   C807      1.0  0.10569  0.59468  0.26128  1.0000
  H   H639      1.0  0.15904  0.93862  0.38831  1.0000
  H   H640      1.0  0.10360  0.84180  0.01340  1.0000
  H   H641      1.0  0.17276  0.67176  0.15945  1.0000
  H   H642      1.0  0.01349  0.90536  0.42603  1.0000
  C   C808      1.0  0.12873  0.91986  0.44306  1.0000
  H   H643      1.0  0.12742  0.91030  0.41854  1.0000
  H   H644      1.0  0.11326  0.59478  0.27177  1.0000
  C   C809      1.0  0.07749  0.50058  0.16011  1.0000
  H   H645      1.0  0.18169  0.96408  0.28524  1.0000
  C   C810      1.0  0.18028  0.78361  0.10188  1.0000
  C   C811      1.0  0.12031  0.70717  0.99262  1.0000
  H   H646      1.0  0.17584  0.82179  0.25397  1.0000
  H   H647      1.0  0.16269  0.91419  0.46489  1.0000
  P   P28       1.0  0.17844  0.91974  0.18431  1.0000
  H   H648      1.0  0.00906  0.65338  0.20817  1.0000
  H   H649      1.0  0.17710  0.52365  0.16084  1.0000
  C   C812      1.0  0.16892  0.91540  0.42169  1.0000
  C   C813      1.0  0.14823  0.88563  0.22819  1.0000
  C   C814      1.0  0.16963  0.56902  0.32149  1.0000
  H   H650      1.0  0.17293  0.85276  0.33184  1.0000
  H   H651      1.0  0.17473  0.55546  0.28167  1.0000
  C   C815      1.0  0.99418  0.68815  0.27504  1.0000
  C   C816      1.0  0.04780  0.89191  0.39351  1.0000
  H   H652      1.0  0.11663  0.96490  0.43074  1.0000
  H   H653      1.0  0.16473  0.58806  0.38434  1.0000
  C   C817      1.0  0.16089  0.95338  0.19753  1.0000
  C   C818      1.0  0.16632  0.91958  0.16636  1.0000
  C   C819      1.0  0.07194  0.76062  0.03369  1.0000
  C   C820      1.0  0.03362  0.94370  0.40192  1.0000
  C   C821      1.0  0.99709  0.82097  0.27446  1.0000
  C   C822      1.0  0.99635  0.83839  0.26124  1.0000
  C   C823      1.0  0.14239  0.85638  0.16579  1.0000
  C   C824      1.0  0.12451  0.97874  0.38259  1.0000
  C   C825      1.0  0.18114  0.79290  0.11568  1.0000
  H   H654      1.0  0.12064  0.80767  0.01852  1.0000
  H   H655      1.0  0.18627  0.86770  0.42319  1.0000
  H   H656      1.0  0.17873  0.63041  0.29217  1.0000
  H   H657      1.0  0.17671  0.79821  0.31891  1.0000
  C   C826      1.0  0.16745  0.70635  0.19736  1.0000
  C   C827      1.0  0.18840  0.55608  0.27225  1.0000
  C   C828      1.0  0.15225  0.88890  0.24417  1.0000
  C   C829      1.0  0.01474  0.92014  0.41995  1.0000
  S   S129      1.0  0.15815  0.78183  0.42002  1.0000
  H   H658      1.0  0.18575  0.86127  0.20507  1.0000
  H   H659      1.0  0.15392  0.86081  0.45452  1.0000
  H   H660      1.0  0.14930  0.60807  0.29165  1.0000
  C   C830      1.0  0.16790  0.58617  0.30768  1.0000
  Fe  Fe68      1.0  0.12951  0.97459  0.28248  1.0000
  C   C831      1.0  0.16706  0.95640  0.47138  1.0000
  C   C832      1.0  0.14714  0.92094  0.13815  1.0000
  C   C833      1.0  0.06521  0.86881  0.46564  1.0000
  C   C834      1.0  0.17607  0.97988  0.22930  1.0000
  H   H661      1.0  0.14985  0.55008  0.15614  1.0000
  H   H662      1.0  0.12041  0.86717  0.99253  1.0000
  C   C835      1.0  0.18247  0.90502  0.31003  1.0000
  H   H663      1.0  0.13827  0.92626  0.18369  1.0000
  H   H664      1.0  0.16759  0.74472  0.18817  1.0000
  H   H665      1.0  0.15333  0.89161  0.19779  1.0000
  C   C836      1.0  0.04329  0.75930  0.02518  1.0000
  C   C837      1.0  0.18599  0.63524  0.26159  1.0000
  C   C838      1.0  0.15057  0.70009  0.20629  1.0000
  H   H666      1.0  0.03627  0.89868  0.35051  1.0000
  C   C839      1.0  0.16940  0.89567  0.42580  1.0000
  C   C840      1.0  0.18071  0.83861  0.32993  1.0000
  H   H667      1.0  0.03642  0.90969  0.44750  1.0000
  H   H668      1.0  0.15408  0.79903  0.00303  1.0000
  C   C841      1.0  0.07140  0.87422  0.43135  1.0000
  H   H669      1.0  0.13826  0.87664  0.23000  1.0000
  C   C842      1.0  0.16095  0.70869  0.16660  1.0000
  C   C843      1.0  0.17641  0.91763  0.14803  1.0000
  C   C844      1.0  0.08171  0.76060  0.01498  1.0000
  C   C845      1.0  0.14689  0.81396  0.00058  1.0000
  H   H670      1.0  0.05959  0.51871  0.24036  1.0000
  H   H671      1.0  0.16256  0.57521  0.35792  1.0000
  C   C846      1.0  0.17903  0.53826  0.15777  1.0000
  H   H672      1.0  0.02837  0.75885  0.02914  1.0000
  H   H673      1.0  0.17032  0.77435  0.10510  1.0000
  S   S130      1.0  0.16678  0.48501  0.17046  1.0000
  H   H674      1.0  0.15062  0.97134  0.43042  1.0000
  H   H675      1.0  0.16872  0.83566  0.16213  1.0000
  H   H676      1.0  0.00662  0.67692  0.27252  1.0000
  H   H677      1.0  0.17987  0.59295  0.30093  1.0000
  C   C847      1.0  0.16983  0.78467  0.46811  1.0000
  C   C848      1.0  0.12734  0.70116  0.97547  1.0000
  H   H678      1.0  0.17712  0.97712  0.38441  1.0000
  H   H679      1.0  0.18423  0.49634  0.32034  1.0000
  H   H680      1.0  0.17657  0.70742  0.20601  1.0000
  H   H681      1.0  0.18136  0.53141  0.31216  1.0000
  H   H682      1.0  0.16272  0.79197  0.45641  1.0000
  C   C849      1.0  0.18167  0.67464  0.11162  1.0000
  H   H683      1.0  0.99268  0.79091  0.24127  1.0000
  H   H684      1.0  0.12568  0.92711  0.47023  1.0000
  C   C850      1.0  0.18916  0.76930  0.01869  1.0000
  S   S131      1.0  0.18637  0.60938  0.21645  1.0000
  H   H685      1.0  0.17283  0.81069  0.47335  1.0000
  C   C851      1.0  0.18753  0.52305  0.32420  1.0000
  C   C852      1.0  0.17773  0.77083  0.17935  1.0000
  C   C853      1.0  0.17894  0.75162  0.17944  1.0000
  C   C854      1.0  0.18804  0.81719  0.01357  1.0000
  H   H686      1.0  0.18131  0.92980  0.28708  1.0000
  C   C855      1.0  0.18181  0.76870  0.37259  1.0000
  H   H687      1.0  0.16557  0.77850  0.18785  1.0000
  C   C856      1.0  0.18308  0.75919  0.00891  1.0000
  H   H688      1.0  0.18398  0.59088  0.14972  1.0000
  C   C857      1.0  0.18203  0.77296  0.42156  1.0000
  H   H689      1.0  0.15396  0.85869  0.97684  1.0000
  C   C858      1.0  0.10230  0.73681  0.97660  1.0000
  H   H690      1.0  0.18043  0.79585  0.37882  1.0000
  C   C859      1.0  0.18859  0.75318  0.42714  1.0000
  H   H691      1.0  0.14734  0.97939  0.20758  1.0000
  C   C860      1.0  0.15953  0.72644  0.97666  1.0000
  H   H692      1.0  0.17944  0.78112  0.02425  1.0000
  H   H693      1.0  0.18542  0.93737  0.40878  1.0000
  H   H694      1.0  0.18426  0.58684  0.26754  1.0000
  C   C861      1.0  0.18269  0.57622  0.15154  1.0000
  H   H695      1.0  0.18787  0.88059  0.33269  1.0000
  C   C862      1.0  0.18425  0.97561  0.16982  1.0000
  C   C863      1.0  0.10744  0.48538  0.13340  1.0000
  C   C864      1.0  0.17304  0.76469  0.47357  1.0000
  P   P29       1.0  0.18107  0.82149  0.97741  1.0000
  C   C865      1.0  0.07608  0.48534  0.15314  1.0000
  S   S132      1.0  0.14024  0.98334  0.25106  1.0000
  C   C866      1.0  0.18909  0.91868  0.35287  1.0000
  C   C867      1.0  0.18964  0.78314  0.37437  1.0000
  H   H696      1.0  0.13745  0.68771  0.97486  1.0000
  C   C868      1.0  0.17008  0.98398  0.18331  1.0000
  H   H697      1.0  0.16051  0.98397  0.45278  1.0000
  C   C869      1.0  0.16773  0.93676  0.47467  1.0000
  C   C870      1.0  0.18903  0.50318  0.32885  1.0000
  C   C871      1.0  0.18977  0.97349  0.35580  1.0000
  C   C872      1.0  0.18970  0.63299  0.27963  1.0000
  C   C873      1.0  0.18141  0.98424  0.36975  1.0000
  Fe  Fe69      1.0  0.13813  0.75554  0.90336  1.0000
  S   S133      1.0  0.14984  0.72387  0.91055  1.0000
  S   S134      1.0  0.10762  0.76986  0.90224  1.0000
  Fe  Fe70      1.0  0.16658  0.73159  0.92755  1.0000
  S   S135      1.0  0.15325  0.76282  0.92190  1.0000
  S   S136      1.0  0.16070  0.76146  0.87737  1.0000
  H   H698      1.0  0.12747  0.81924  0.56131  1.0000
  C   C874      1.0  0.18014  0.80406  0.64015  1.0000
  Fe  Fe71      1.0  0.14098  0.49290  0.78807  1.0000
  S   S137      1.0  0.14077  0.52478  0.77856  1.0000
  Fe  Fe72      1.0  0.13400  0.64111  0.80231  1.0000
  S   S138      1.0  0.13146  0.62334  0.83198  1.0000
  S   S139      1.0  0.11247  0.65313  0.78394  1.0000
  C   C875      1.0  0.06993  0.76037  0.96165  1.0000
  C   C876      1.0  0.04952  0.92953  0.74352  1.0000
  H   H699      1.0  0.17025  0.87840  0.62177  1.0000
  Fe  Fe73      1.0  0.03788  0.73435  0.86752  1.0000
  S   S140      1.0  0.05200  0.74348  0.83691  1.0000
  S   S141      1.0  0.05451  0.72141  0.89082  1.0000
  C   C877      1.0  0.18181  0.75519  0.48890  1.0000
  S   S142      1.0  0.00927  0.75400  0.82797  1.0000
  Fe  Fe74      1.0  0.03267  0.72806  0.83108  1.0000
  S   S143      1.0  0.03748  0.71164  0.80843  1.0000
  Fe  Fe75      1.0  0.02719  0.76845  0.83681  1.0000
  S   S144      1.0  0.02731  0.79933  0.82265  1.0000
  S   S145      1.0  0.02043  0.71679  0.86158  1.0000
  S   S146      1.0  0.01445  0.76054  0.86788  1.0000
  Fe  Fe76      1.0  0.04505  0.83381  0.71566  1.0000
  S   S147      1.0  0.02374  0.86027  0.72190  1.0000
  S   S148      1.0  0.06272  0.81153  0.73481  1.0000
  Fe  Fe77      1.0  0.04231  0.84331  0.67426  1.0000
  S   S149      1.0  0.02076  0.87047  0.67682  1.0000
  S   S150      1.0  0.05530  0.83232  0.64736  1.0000
  Fe  Fe78      1.0  0.03886  0.87533  0.69407  1.0000
  S   S151      1.0  0.04605  0.90433  0.68876  1.0000
  H   H700      1.0  0.02220  0.81315  0.66666  1.0000
  S   S152      1.0  0.06149  0.84953  0.68926  1.0000
  S   S153      1.0  0.02739  0.82537  0.70036  1.0000
  Fe  Fe79      1.0  0.15286  0.88437  0.53638  1.0000
  S   S154      1.0  0.13521  0.86370  0.55552  1.0000
  S   S155      1.0  0.16139  0.88807  0.50443  1.0000
  Fe  Fe80      1.0  0.15959  0.89685  0.56965  1.0000
  S   S156      1.0  0.14290  0.87679  0.59163  1.0000
  H   H701      1.0  0.10800  0.86189  0.50299  1.0000
  Fe  Fe81      1.0  0.15731  0.85534  0.57323  1.0000
  Fe  Fe82      1.0  0.12213  0.88670  0.57211  1.0000
  S   S157      1.0  0.09053  0.89539  0.58228  1.0000
  C   C878      1.0  0.17223  0.80571  0.52302  1.0000
  S   S158      1.0  0.13786  0.90839  0.55135  1.0000
  H   H702      1.0  0.10976  0.88921  0.75743  1.0000
  H   H703      1.0  0.18085  0.83370  0.62763  1.0000
  S   S159      1.0  0.17580  0.91701  0.57351  1.0000
  C   C879      1.0  0.18324  0.80040  0.96857  1.0000
  H   H704      1.0  0.02405  0.90116  0.83117  1.0000
  H   H705      1.0  0.15570  0.80985  0.96091  1.0000
  C   C880      1.0  0.99037  0.82562  0.62979  1.0000
  C   C881      1.0  0.11848  0.72745  0.80096  1.0000
  C   C882      1.0  0.14908  0.87747  0.49431  1.0000
  C   C883      1.0  0.13142  0.87327  0.50394  1.0000
  H   H706      1.0  0.07075  0.93105  0.67848  1.0000
  H   H707      1.0  0.12505  0.87677  0.51768  1.0000
  C   C884      1.0  0.06421  0.84985  0.62850  1.0000
  C   C885      1.0  0.07858  0.84431  0.61347  1.0000
  C   C886      1.0  0.08644  0.85823  0.59884  1.0000
  C   C887      1.0  0.07961  0.87773  0.59903  1.0000
  C   C888      1.0  0.06454  0.88324  0.61350  1.0000
  C   C889      1.0  0.05713  0.86933  0.62842  1.0000
  H   H708      1.0  0.08401  0.82925  0.61344  1.0000
  H   H709      1.0  0.09804  0.85391  0.58765  1.0000
  H   H710      1.0  0.05924  0.89829  0.61371  1.0000
  H   H711      1.0  0.04602  0.87374  0.63988  1.0000
  C   C890      1.0  0.06658  0.90370  0.69641  1.0000
  C   C891      1.0  0.07611  0.91895  0.68893  1.0000
  C   C892      1.0  0.08988  0.88784  0.71594  1.0000
  C   C893      1.0  0.07371  0.88796  0.70967  1.0000
  H   H712      1.0  0.09487  0.87604  0.72675  1.0000
  H   H713      1.0  0.06654  0.87607  0.71537  1.0000
  C   C894      1.0  0.03664  0.80224  0.79819  1.0000
  C   C895      1.0  0.02883  0.81834  0.78564  1.0000
  C   C896      1.0  0.03644  0.82102  0.76606  1.0000
  C   C897      1.0  0.05240  0.80806  0.75912  1.0000
  C   C898      1.0  0.06053  0.79226  0.77176  1.0000
  C   C899      1.0  0.05230  0.78901  0.79120  1.0000
  H   H714      1.0  0.01676  0.82863  0.79104  1.0000
  H   H715      1.0  0.03016  0.83329  0.75644  1.0000
  H   H716      1.0  0.07305  0.78234  0.76651  1.0000
  H   H717      1.0  0.05842  0.77660  0.80086  1.0000
  H   H718      1.0  0.10585  0.70104  0.76888  1.0000
  C   C900      1.0  0.09154  0.66845  0.79236  1.0000
  C   C901      1.0  0.08896  0.67549  0.80872  1.0000
  C   C902      1.0  0.07233  0.68886  0.81406  1.0000
  C   C903      1.0  0.05842  0.69493  0.80303  1.0000
  C   C904      1.0  0.06094  0.68748  0.78702  1.0000
  C   C905      1.0  0.07747  0.67439  0.78165  1.0000
  H   H719      1.0  0.09996  0.67106  0.81688  1.0000
  H   H720      1.0  0.07036  0.69455  0.82652  1.0000
  H   H721      1.0  0.05019  0.69210  0.77854  1.0000
  H   H722      1.0  0.07945  0.66900  0.76901  1.0000
  C   C906      1.0  0.14481  0.53749  0.79358  1.0000
  C   C907      1.0  0.14270  0.55750  0.78790  1.0000
  C   C908      1.0  0.14657  0.56803  0.79904  1.0000
  C   C909      1.0  0.15238  0.55862  0.81613  1.0000
  C   C910      1.0  0.15417  0.53863  0.82200  1.0000
  C   C911      1.0  0.15048  0.52808  0.81073  1.0000
  H   H723      1.0  0.13801  0.56489  0.77483  1.0000
  H   H724      1.0  0.14513  0.58339  0.79438  1.0000
  C   C912      1.0  0.17188  0.71736  0.63169  1.0000
  H   H725      1.0  0.15203  0.51269  0.81532  1.0000
  Fe  Fe83      1.0  0.13398  0.92756  0.70657  1.0000
  S   S160      1.0  0.11919  0.90254  0.71743  1.0000
  H   H726      1.0  0.02582  0.95935  0.80151  1.0000
  C   C913      1.0  0.09306  0.75622  0.89899  1.0000
  C   C914      1.0  0.09372  0.73712  0.90873  1.0000
  C   C915      1.0  0.08177  0.72660  0.90617  1.0000
  C   C916      1.0  0.06927  0.73502  0.89369  1.0000
  C   C917      1.0  0.06853  0.75414  0.88401  1.0000
  C   C918      1.0  0.08027  0.76477  0.88681  1.0000
  H   H727      1.0  0.10347  0.73042  0.91817  1.0000
  H   H728      1.0  0.08236  0.71183  0.91371  1.0000
  H   H729      1.0  0.05880  0.76076  0.87450  1.0000
  H   H730      1.0  0.07960  0.77957  0.87935  1.0000
  C   C919      1.0  0.17026  0.79120  0.65395  1.0000
  Fe  Fe84      1.0  0.17357  0.73026  0.88567  1.0000
  S   S161      1.0  0.15229  0.65867  0.80623  1.0000
  C   C920      1.0  0.18742  0.93738  0.59195  1.0000
  C   C921      1.0  0.04467  0.90466  0.80490  1.0000
  H   H731      1.0  0.13552  0.69404  0.64159  1.0000
  H   H732      1.0  0.99018  0.63333  0.84953  1.0000
  C   C922      1.0  0.15916  0.67119  0.87859  1.0000
  H   H733      1.0  0.04902  0.73067  0.94967  1.0000
  C   C923      1.0  0.04564  0.93747  0.78817  1.0000
  C   C924      1.0  0.06118  0.86144  0.76029  1.0000
  H   H734      1.0  0.06817  0.83206  0.77505  1.0000
  C   C925      1.0  0.17626  0.69196  0.84414  1.0000
  H   H735      1.0  0.99364  0.79508  0.63367  1.0000
  C   C926      1.0  0.07129  0.88485  0.77084  1.0000
  C   C927      1.0  0.16690  0.59651  0.74212  1.0000
  H   H736      1.0  0.12733  0.70805  0.94567  1.0000
  H   H737      1.0  0.99717  0.79126  0.77421  1.0000
  C   C928      1.0  0.12177  0.86490  0.49560  1.0000
  C   C929      1.0  0.09264  0.91851  0.69479  1.0000
  H   H738      1.0  0.15018  0.92886  0.63887  1.0000
  C   C930      1.0  0.12775  0.77184  0.65109  1.0000
  C   C931      1.0  0.17705  0.87818  0.64837  1.0000
  H   H739      1.0  0.12228  0.79248  0.70762  1.0000
  H   H740      1.0  0.08932  0.74320  0.80302  1.0000
  C   C932      1.0  0.12991  0.91388  0.77629  1.0000
  H   H741      1.0  0.12632  0.79827  0.92687  1.0000
  H   H742      1.0  0.12232  0.83667  0.63684  1.0000
  C   C933      1.0  0.04964  0.75986  0.93505  1.0000
  H   H743      1.0  0.04251  0.75941  0.92431  1.0000
  C   C934      1.0  0.17677  0.53187  0.73155  1.0000
  C   C935      1.0  0.09934  0.90311  0.70862  1.0000
  S   S162      1.0  0.14835  0.64804  0.86221  1.0000
  H   H744      1.0  0.18740  0.84216  0.67173  1.0000
  H   H745      1.0  0.10569  0.73947  0.94630  1.0000
  C   C936      1.0  0.99772  0.66085  0.83741  1.0000
  S   S163      1.0  0.13740  0.94322  0.72702  1.0000
  S   S164      1.0  0.12762  0.95410  0.68398  1.0000
  H   H746      1.0  0.14964  0.91617  0.61106  1.0000
  C   C937      1.0  0.16039  0.92385  0.61019  1.0000
  C   C938      1.0  0.13977  0.81518  0.55059  1.0000
  S   S165      1.0  0.16691  0.82346  0.58335  1.0000
  C   C939      1.0  0.18321  0.97023  0.75724  1.0000
  C   C940      1.0  0.06342  0.74388  0.96264  1.0000
  H   H747      1.0  0.11092  0.77064  0.94078  1.0000
  C   C941      1.0  0.05950  0.95329  0.71575  1.0000
  S   S166      1.0  0.15794  0.57123  0.83028  1.0000
  H   H748      1.0  0.12880  0.83574  0.52757  1.0000
  C   C942      1.0  0.03010  0.91132  0.81918  1.0000
  C   C943      1.0  0.07844  0.85093  0.78574  1.0000
  H   H749      1.0  0.17676  0.75702  0.76097  1.0000
  H   H750      1.0  0.18418  0.73969  0.49319  1.0000
  H   H751      1.0  0.15739  0.74947  0.59323  1.0000
  H   H752      1.0  0.15779  0.78096  0.94969  1.0000
  C   C944      1.0  0.18536  0.74429  0.59916  1.0000
  C   C945      1.0  0.06718  0.92588  0.74855  1.0000
  H   H753      1.0  0.01618  0.72006  0.77827  1.0000
  C   C946      1.0  0.09576  0.72287  0.78538  1.0000
  H   H754      1.0  0.11472  0.93534  0.79243  1.0000
  Fe  Fe85      1.0  0.13362  0.96941  0.70348  1.0000
  C   C947      1.0  0.99443  0.84045  0.63551  1.0000
  Fe  Fe86      1.0  0.15235  0.63885  0.83480  1.0000
  C   C948      1.0  0.17247  0.74761  0.58734  1.0000
  C   C949      1.0  0.17411  0.92660  0.59336  1.0000
  H   H755      1.0  0.18979  0.83797  0.51055  1.0000
  H   H756      1.0  0.12277  0.82256  0.94545  1.0000
  C   C950      1.0  0.16942  0.78225  0.95500  1.0000
  C   C951      1.0  0.13200  0.71269  0.79353  1.0000
  C   C952      1.0  0.18874  0.83989  0.93901  1.0000
  S   S167      1.0  0.17629  0.95103  0.64301  1.0000
  Fe  Fe87      1.0  0.15707  0.60313  0.82006  1.0000
  H   H757      1.0  0.01376  0.78711  0.65757  1.0000
  C   C953      1.0  0.14345  0.75720  0.64710  1.0000
  C   C954      1.0  0.16481  0.88035  0.63618  1.0000
  H   H758      1.0  0.14521  0.74373  0.65740  1.0000
  H   H759      1.0  0.06868  0.86035  0.47907  1.0000
  C   C955      1.0  0.10022  0.73229  0.79703  1.0000
  C   C956      1.0  0.06921  0.84671  0.77381  1.0000
  H   H760      1.0  0.10969  0.86631  0.61587  1.0000
  S   S168      1.0  0.16515  0.92074  0.69431  1.0000
  H   H761      1.0  0.05414  0.85813  0.75094  1.0000
  C   C957      1.0  0.16836  0.67665  0.84431  1.0000
  C   C958      1.0  0.99710  0.80644  0.63790  1.0000
  C   C959      1.0  0.06572  0.77678  0.94748  1.0000
  C   C960      1.0  0.00227  0.71726  0.78010  1.0000
  C   C961      1.0  0.17325  0.82375  0.63840  1.0000
  H   H762      1.0  0.08645  0.87290  0.79384  1.0000
  H   H763      1.0  0.09104  0.89465  0.62871  1.0000
  C   C962      1.0  0.17535  0.69709  0.86116  1.0000
  C   C963      1.0  0.09408  0.91032  0.77409  1.0000
  C   C964      1.0  0.17573  0.79518  0.47768  1.0000
  H   H764      1.0  0.14394  0.88980  0.68688  1.0000
  H   H765      1.0  0.01201  0.93612  0.82904  1.0000
  C   C965      1.0  0.14676  0.74407  0.97439  1.0000
  H   H766      1.0  0.05577  0.89149  0.74826  1.0000
  C   C966      1.0  0.00614  0.83581  0.64869  1.0000
  C   C967      1.0  0.01399  0.75879  0.75961  1.0000
  C   C968      1.0  0.02579  0.75369  0.77277  1.0000
  C   C969      1.0  0.04448  0.75616  0.76696  1.0000
  C   C970      1.0  0.05138  0.76436  0.74804  1.0000
  C   C971      1.0  0.03959  0.77001  0.73493  1.0000
  C   C972      1.0  0.02102  0.76708  0.74060  1.0000
  C   C973      1.0  0.01303  0.81661  0.65662  1.0000
  C   C974      1.0  0.15460  0.77794  0.61728  1.0000
  S   S169      1.0  0.17809  0.61748  0.82485  1.0000
  H   H767      1.0  0.15714  0.82750  0.50314  1.0000
  C   C975      1.0  0.04586  0.94289  0.72698  1.0000
  C   C976      1.0  0.08080  0.93645  0.73716  1.0000
  H   H768      1.0  0.18645  0.75490  0.95024  1.0000
  C   C977      1.0  0.09690  0.88176  0.63812  1.0000
  H   H769      1.0  0.08550  0.89338  0.66310  1.0000
  H   H770      1.0  0.04959  0.88936  0.80616  1.0000
  C   C978      1.0  0.18086  0.95869  0.74617  1.0000
  C   C979      1.0  0.07686  0.95023  0.72096  1.0000
  C   C980      1.0  0.03108  0.94407  0.80248  1.0000
  H   H771      1.0  0.00617  0.91875  0.63702  1.0000
  C   C981      1.0  0.10962  0.73064  0.95938  1.0000
  H   H772      1.0  0.09933  0.86437  0.68451  1.0000
  H   H773      1.0  0.02042  0.74804  0.78763  1.0000
  H   H774      1.0  0.05334  0.75226  0.77735  1.0000
  H   H775      1.0  0.06563  0.76702  0.74368  1.0000
  H   H776      1.0  0.04463  0.77723  0.72050  1.0000
  H   H777      1.0  0.01216  0.77189  0.73018  1.0000
  H   H778      1.0  0.14161  0.72676  0.63317  1.0000
  H   H779      1.0  0.15137  0.84398  0.68400  1.0000
  C   C982      1.0  0.18041  0.74399  0.80735  1.0000
  C   C983      1.0  0.99739  0.90810  0.64242  1.0000
  H   H780      1.0  0.13778  0.69178  0.77630  1.0000
  H   H781      1.0  0.01021  0.84694  0.65271  1.0000
  S   S170      1.0  0.17102  0.71546  0.95713  1.0000
  H   H782      1.0  0.17901  0.61895  0.74508  1.0000
  H   H783      1.0  0.15445  0.79380  0.57062  1.0000
  P   P30       1.0  0.07132  0.90942  0.77059  1.0000
  C   C984      1.0  0.17436  0.94162  0.62433  1.0000
  H   H784      1.0  0.15125  0.84593  0.64860  1.0000
  C   C985      1.0  0.17267  0.75254  0.77625  1.0000
  C   C986      1.0  0.15433  0.74945  0.78457  1.0000
  C   C987      1.0  0.14878  0.74382  0.80440  1.0000
  C   C988      1.0  0.16211  0.74091  0.81569  1.0000
  P   P31       1.0  0.12481  0.74035  0.81495  1.0000
  C   C989      1.0  0.12359  0.72715  0.83919  1.0000
  C   C990      1.0  0.10813  0.76304  0.81503  1.0000
  C   C991      1.0  0.09216  0.76476  0.82994  1.0000
  C   C992      1.0  0.07849  0.78180  0.82938  1.0000
  C   C993      1.0  0.08048  0.79719  0.81389  1.0000
  C   C994      1.0  0.09623  0.79559  0.79894  1.0000
  C   C995      1.0  0.11003  0.77862  0.79952  1.0000
  C   C996      1.0  0.12094  0.70818  0.84470  1.0000
  C   C997      1.0  0.12003  0.69841  0.86366  1.0000
  C   C998      1.0  0.12198  0.70736  0.87708  1.0000
  C   C999      1.0  0.12483  0.72612  0.87159  1.0000
  C   C1000     1.0  0.12521  0.73613  0.85286  1.0000
  C   C1001     1.0  0.11061  0.89899  0.76551  1.0000
  C   C1002     1.0  0.05337  0.74364  0.94935  1.0000
  H   H785      1.0  0.09892  0.82696  0.71545  1.0000
  H   H786      1.0  0.14444  0.75143  0.77554  1.0000
  H   H787      1.0  0.11736  0.76960  0.66422  1.0000
  H   H788      1.0  0.08990  0.75284  0.84185  1.0000
  H   H789      1.0  0.06600  0.78290  0.84071  1.0000
  H   H790      1.0  0.06943  0.81007  0.81329  1.0000
  H   H791      1.0  0.09753  0.80733  0.78669  1.0000
  H   H792      1.0  0.12188  0.77762  0.78766  1.0000
  H   H793      1.0  0.11968  0.70082  0.83453  1.0000
  H   H794      1.0  0.11839  0.68366  0.86793  1.0000
  H   H795      1.0  0.12158  0.69964  0.89168  1.0000
  H   H796      1.0  0.12671  0.73302  0.88181  1.0000
  H   H797      1.0  0.12708  0.75082  0.84902  1.0000
  H   H798      1.0  0.14377  0.91559  0.77670  1.0000
  C   C1003     1.0  0.05258  0.91770  0.78927  1.0000
  H   H799      1.0  0.10178  0.83736  0.74295  1.0000
  H   H800      1.0  0.16644  0.69027  0.89160  1.0000
  C   C1004     1.0  0.15497  0.80081  0.55582  1.0000
  H   H801      1.0  0.03857  0.92202  0.75235  1.0000
  Fe  Fe88      1.0  0.99833  0.74396  0.85891  1.0000
  C   C1005     1.0  0.10944  0.70858  0.77762  1.0000
  C   C1006     1.0  0.11575  0.81056  0.95163  1.0000
  C   C1007     1.0  0.13769  0.88941  0.66056  1.0000
  C   C1008     1.0  0.16694  0.68659  0.87840  1.0000
  C   C1009     1.0  0.09764  0.77927  0.96749  1.0000
  S   S171      1.0  0.15800  0.61965  0.79014  1.0000
  C   C1010     1.0  0.15675  0.81992  0.51780  1.0000
  H   H802      1.0  0.09992  0.93028  0.68893  1.0000
  H   H803      1.0  0.14596  0.70828  0.79692  1.0000
  C   C1011     1.0  0.11352  0.92505  0.78509  1.0000
  H   H804      1.0  0.14974  0.57822  0.73933  1.0000
  H   H805      1.0  0.16607  0.54925  0.75225  1.0000
  H   H806      1.0  0.08153  0.72626  0.78277  1.0000
  H   H807      1.0  0.15242  0.66325  0.89194  1.0000
  C   C1012     1.0  0.13896  0.79255  0.62135  1.0000
  C   C1013     1.0  0.15335  0.71464  0.63466  1.0000
  S   S172      1.0  0.17604  0.87433  0.55292  1.0000
  H   H808      1.0  0.16670  0.52259  0.73836  1.0000
  H   H809      1.0  0.07665  0.77138  0.70110  1.0000
  H   H810      1.0  0.02699  0.86375  0.61495  1.0000
  H   H811      1.0  0.03251  0.94508  0.72278  1.0000
  H   H812      1.0  0.15859  0.53127  0.83523  1.0000
  C   C1014     1.0  0.18566  0.74996  0.78766  1.0000
  C   C1015     1.0  0.14986  0.69609  0.63919  1.0000
  C   C1016     1.0  0.09389  0.88104  0.65750  1.0000
  C   C1017     1.0  0.02331  0.93100  0.81798  1.0000
  C   C1018     1.0  0.16060  0.93121  0.62581  1.0000
  H   H813      1.0  0.17734  0.72152  0.73905  1.0000
  C   C1019     1.0  0.07951  0.86988  0.78426  1.0000
  H   H814      1.0  0.17238  0.92710  0.48714  1.0000
  H   H815      1.0  0.07108  0.79881  0.67407  1.0000
  C   C1020     1.0  0.16630  0.61492  0.74446  1.0000
  H   H816      1.0  0.13582  0.88791  0.63274  1.0000
  H   H817      1.0  0.14113  0.89255  0.75926  1.0000
  C   C1021     1.0  0.18837  0.84033  0.95780  1.0000
  H   H818      1.0  0.08751  0.95821  0.71221  1.0000
  H   H819      1.0  0.05152  0.94782  0.77626  1.0000
  C   C1022     1.0  0.18695  0.70132  0.63240  1.0000
  C   C1023     1.0  0.10170  0.86449  0.66956  1.0000
  C   C1024     1.0  0.13282  0.60529  0.74379  1.0000
  C   C1025     1.0  0.13236  0.62333  0.74658  1.0000
  C   C1026     1.0  0.14914  0.62824  0.74661  1.0000
  H   H820      1.0  0.16504  0.78085  0.60433  1.0000
  C   C1027     1.0  0.15699  0.87332  0.47628  1.0000
  C   C1028     1.0  0.15000  0.59199  0.74142  1.0000
  C   C1029     1.0  0.12541  0.78943  0.63810  1.0000
  C   C1030     1.0  0.09566  0.92334  0.78397  1.0000
  H   H821      1.0  0.10207  0.76847  0.71799  1.0000
  P   P32       1.0  0.17691  0.74111  0.62455  1.0000
  H   H822      1.0  0.11979  0.60144  0.74384  1.0000
  H   H823      1.0  0.11901  0.63345  0.74905  1.0000
  H   H824      1.0  0.14869  0.64214  0.74913  1.0000
  H   H825      1.0  0.09455  0.93412  0.74054  1.0000
  C   C1031     1.0  0.15965  0.66634  0.86155  1.0000
  S   S173      1.0  0.16457  0.96598  0.69059  1.0000
  C   C1032     1.0  0.99990  0.69830  0.78661  1.0000
  C   C1033     1.0  0.15669  0.75996  0.62988  1.0000
  Fe  Fe89      1.0  0.17630  0.63609  0.79583  1.0000
  C   C1034     1.0  0.18756  0.76567  0.49865  1.0000
  C   C1035     1.0  0.14975  0.88696  0.67282  1.0000
  Fe  Fe90      1.0  0.17704  0.76558  0.89666  1.0000
  H   H826      1.0  0.00934  0.68643  0.82639  1.0000
  C   C1036     1.0  0.14060  0.82461  0.53158  1.0000
  C   C1037     1.0  0.11217  0.84833  0.66227  1.0000
  H   H827      1.0  0.05028  0.86754  0.58470  1.0000
  H   H828      1.0  0.05328  0.78883  0.92276  1.0000
  H   H829      1.0  0.08457  0.83958  0.79634  1.0000
  Fe  Fe91      1.0  0.15918  0.94818  0.67310  1.0000
  C   C1038     1.0  0.15706  0.48558  0.69241  1.0000
  C   C1039     1.0  0.17637  0.54716  0.73938  1.0000
  C   C1040     1.0  0.01189  0.67135  0.83327  1.0000
  C   C1041     1.0  0.01867  0.63261  0.85145  1.0000
  C   C1042     1.0  0.03284  0.64318  0.84766  1.0000
  C   C1043     1.0  0.02943  0.66252  0.83818  1.0000
  P   P33       1.0  0.05546  0.63205  0.85433  1.0000
  C   C1044     1.0  0.06427  0.64974  0.86033  1.0000
  C   C1045     1.0  0.05252  0.61256  0.87482  1.0000
  C   C1046     1.0  0.05099  0.61506  0.89320  1.0000
  C   C1047     1.0  0.04922  0.59970  0.90885  1.0000
  C   C1048     1.0  0.04897  0.58175  0.90629  1.0000
  C   C1049     1.0  0.05040  0.57915  0.88807  1.0000
  C   C1050     1.0  0.05214  0.59448  0.87241  1.0000
  C   C1051     1.0  0.08367  0.64988  0.85550  1.0000
  C   C1052     1.0  0.09047  0.66346  0.86032  1.0000
  C   C1053     1.0  0.07789  0.67700  0.87005  1.0000
  C   C1054     1.0  0.05857  0.67684  0.87508  1.0000
  C   C1055     1.0  0.05174  0.66331  0.87023  1.0000
  C   C1056     1.0  0.07214  0.62245  0.83509  1.0000
  C   C1057     1.0  0.06987  0.62982  0.81625  1.0000
  C   C1058     1.0  0.08281  0.62219  0.80149  1.0000
  C   C1059     1.0  0.09819  0.60733  0.80538  1.0000
  C   C1060     1.0  0.10060  0.59997  0.82407  1.0000
  C   C1061     1.0  0.08769  0.60755  0.83887  1.0000
  H   H830      1.0  0.02098  0.61762  0.85843  1.0000
  H   H831      1.0  0.04021  0.67092  0.83478  1.0000
  H   H832      1.0  0.05136  0.62874  0.89556  1.0000
  H   H833      1.0  0.04827  0.60170  0.92295  1.0000
  H   H834      1.0  0.04782  0.56981  0.91840  1.0000
  H   H835      1.0  0.05039  0.56519  0.88605  1.0000
  H   H836      1.0  0.05339  0.59217  0.85836  1.0000
  H   H837      1.0  0.09360  0.63964  0.84790  1.0000
  H   H838      1.0  0.10551  0.66339  0.85647  1.0000
  H   H839      1.0  0.08299  0.68766  0.87377  1.0000
  H   H840      1.0  0.04890  0.68728  0.88274  1.0000
  H   H841      1.0  0.03670  0.66347  0.87426  1.0000
  H   H842      1.0  0.05843  0.64174  0.81283  1.0000
  H   H843      1.0  0.08137  0.62834  0.78692  1.0000
  H   H844      1.0  0.10853  0.60184  0.79387  1.0000
  H   H845      1.0  0.11278  0.58870  0.82703  1.0000
  H   H846      1.0  0.09010  0.60197  0.85321  1.0000
  H   H847      1.0  0.16875  0.67300  0.83114  1.0000
  C   C1062     1.0  0.03555  0.86857  0.58460  1.0000
  C   C1063     1.0  0.02989  0.87171  0.56743  1.0000
  C   C1064     1.0  0.01096  0.87266  0.56741  1.0000
  C   C1065     1.0  0.99760  0.87080  0.58455  1.0000
  C   C1066     1.0  0.00308  0.86832  0.60181  1.0000
  C   C1067     1.0  0.02227  0.86662  0.60172  1.0000
  C   C1068     1.0  0.00839  0.80194  0.65137  1.0000
  C   C1069     1.0  0.11792  0.79675  0.94123  1.0000
  C   C1070     1.0  0.00116  0.64146  0.84638  1.0000
  H   H848      1.0  0.18494  0.82815  0.93580  1.0000
  H   H849      1.0  0.12881  0.85194  0.74100  1.0000
  C   C1071     1.0  0.10426  0.80903  0.96979  1.0000
  H   H850      1.0  0.09087  0.82291  0.66363  1.0000
  H   H851      1.0  0.10017  0.90985  0.48678  1.0000
  C   C1072     1.0  0.06209  0.88045  0.75887  1.0000
  C   C1073     1.0  0.10733  0.86575  0.63085  1.0000
  H   H852      1.0  0.07070  0.78965  0.94615  1.0000
  Fe  Fe92      1.0  0.00724  0.85321  0.70425  1.0000
  H   H853      1.0  0.00609  0.89741  0.61694  1.0000
  H   H854      1.0  0.14556  0.78780  0.67578  1.0000
  Fe  Fe93      1.0  0.16808  0.93882  0.71274  1.0000
  H   H855      1.0  0.11319  0.80075  0.64098  1.0000
  C   C1074     1.0  0.16488  0.68018  0.64037  1.0000
  C   C1075     1.0  0.14519  0.88584  0.64234  1.0000
  S   S174      1.0  0.18561  0.71611  0.86060  1.0000
  H   H856      1.0  0.05675  0.96351  0.70284  1.0000
  H   H857      1.0  0.04027  0.87315  0.55419  1.0000
  H   H858      1.0  0.00669  0.87466  0.55411  1.0000
  H   H859      1.0  0.01186  0.68696  0.78991  1.0000
  C   C1076     1.0  0.12748  0.70337  0.78182  1.0000
  H   H860      1.0  0.16896  0.75087  0.55880  1.0000
  C   C1077     1.0  0.16828  0.79860  0.96149  1.0000
  H   H861      1.0  0.15346  0.85523  0.71152  1.0000
  C   C1078     1.0  0.11139  0.83227  0.71462  1.0000
  C   C1079     1.0  0.18343  0.68281  0.63684  1.0000
  C   C1080     1.0  0.12844  0.90083  0.76654  1.0000
  H   H862      1.0  0.15509  0.50105  0.68953  1.0000
  H   H863      1.0  0.16217  0.66582  0.64380  1.0000
  H   H864      1.0  0.08322  0.93248  0.79047  1.0000
  H   H865      1.0  0.14334  0.75094  0.96073  1.0000
  C   C1081     1.0  0.11460  0.84899  0.64285  1.0000
  C   C1082     1.0  0.10912  0.78107  0.94918  1.0000
  H   H866      1.0  0.13739  0.80637  0.61149  1.0000
  H   H867      1.0  0.12258  0.89436  0.66515  1.0000
  C   C1083     1.0  0.08250  0.79723  0.68118  1.0000
  C   C1084     1.0  0.08560  0.78183  0.69642  1.0000
  C   C1085     1.0  0.10002  0.78013  0.70584  1.0000
  C   C1086     1.0  0.11137  0.79381  0.69998  1.0000
  C   C1087     1.0  0.10832  0.80939  0.68469  1.0000
  C   C1088     1.0  0.09381  0.81096  0.67530  1.0000
  P   P34       1.0  0.12304  0.82704  0.67732  1.0000
  C   C1089     1.0  0.12549  0.83379  0.69792  1.0000
  C   C1090     1.0  0.14601  0.81785  0.66376  1.0000
  C   C1091     1.0  0.15644  0.83062  0.65032  1.0000
  H   H868      1.0  0.15871  0.73606  0.83095  1.0000
  H   H869      1.0  0.16801  0.96202  0.74077  1.0000
  C   C1092     1.0  0.05571  0.77645  0.93420  1.0000
  C   C1093     1.0  0.15321  0.79804  0.66564  1.0000
  C   C1094     1.0  0.14077  0.84194  0.69695  1.0000
  C   C1095     1.0  0.14203  0.84829  0.71253  1.0000
  C   C1096     1.0  0.12813  0.84643  0.72919  1.0000
  C   C1097     1.0  0.11289  0.83828  0.73027  1.0000
  C   C1098     1.0  0.12186  0.71281  0.95892  1.0000
  C   C1099     1.0  0.16928  0.88121  0.66688  1.0000
  H   H870      1.0  0.18287  0.69999  0.83081  1.0000
  C   C1100     1.0  0.99752  0.89569  0.63116  1.0000
  C   C1101     1.0  0.17897  0.74827  0.56786  1.0000
  H   H871      1.0  0.17558  0.77592  0.65533  1.0000
  C   C1102     1.0  0.17111  0.79604  0.54210  1.0000
  H   H872      1.0  0.17130  0.96200  0.48128  1.0000
  H   H873      1.0  0.18271  0.78500  0.54652  1.0000
  P   P35       1.0  0.18905  0.57893  0.74140  1.0000
  C   C1103     1.0  0.18761  0.94474  0.60729  1.0000
  C   C1104     1.0  0.18517  0.78571  0.49269  1.0000
  H   H874      1.0  0.18479  0.48651  0.77266  1.0000
  H   H875      1.0  0.04348  0.89002  0.47815  1.0000
  H   H876      1.0  0.17829  0.87953  0.67670  1.0000
  C   C1105     1.0  0.18555  0.76759  0.95534  1.0000
  H   H877      1.0  0.17218  0.98246  0.76023  1.0000
  C   C1106     1.0  0.18940  0.55923  0.73102  1.0000
  C   C1107     1.0  0.12984  0.86048  0.47772  1.0000
  H   H878      1.0  0.06673  0.73096  0.97324  1.0000
  H   H879      1.0  0.37282  0.28075  0.23155  1.0000
  H   H880      1.0  0.30471  0.28546  0.41961  1.0000
  S   S175      1.0  0.34776  0.27485  0.36008  1.0000
  Fe  Fe94      1.0  0.25052  0.29951  0.43884  1.0000
  S   S176      1.0  0.22845  0.32672  0.43864  1.0000
  S   S177      1.0  0.24373  0.27017  0.44555  1.0000
  Fe  Fe95      1.0  0.28281  0.32007  0.43175  1.0000
  S   S178      1.0  0.26353  0.34899  0.43100  1.0000
  S   S179      1.0  0.31422  0.31724  0.42778  1.0000
  Fe  Fe96      1.0  0.24496  0.33385  0.45608  1.0000
  C   C1108     1.0  0.20252  0.46149  0.22326  1.0000
  Fe  Fe97      1.0  0.24890  0.33946  0.41366  1.0000
  S   S180      1.0  0.24100  0.35581  0.38583  1.0000
  S   S181      1.0  0.26543  0.30561  0.45821  1.0000
  S   S182      1.0  0.26972  0.31159  0.41230  1.0000
  C   C1109     1.0  0.20467  0.47488  0.25446  1.0000
  Fe  Fe98      1.0  0.26599  0.43772  0.29285  1.0000
  S   S183      1.0  0.23513  0.43995  0.30678  1.0000
  S   S184      1.0  0.28138  0.40983  0.28379  1.0000
  H   H881      1.0  0.34802  0.31865  0.39879  1.0000
  C   C1110     1.0  0.32510  0.15830  0.10711  1.0000
  Fe  Fe99      1.0  0.24210  0.45373  0.32669  1.0000
  S   S185      1.0  0.23118  0.44585  0.35839  1.0000
  Fe  Fe100     1.0  0.23076  0.46935  0.28808  1.0000
  H   H882      1.0  0.34933  0.20173  0.01939  1.0000
  S   S186      1.0  0.27325  0.44970  0.31403  1.0000
  S   S187      1.0  0.26095  0.46612  0.27231  1.0000
  Fe  Fe101     1.0  0.30991  0.22640  0.08374  1.0000
  S   S188      1.0  0.28282  0.22729  0.10556  1.0000
  S   S189      1.0  0.34030  0.21637  0.08763  1.0000
  Fe  Fe102     1.0  0.28920  0.23959  0.05024  1.0000
  S   S190      1.0  0.26036  0.24184  0.06925  1.0000
  S   S191      1.0  0.29566  0.24688  0.01816  1.0000
  Fe  Fe103     1.0  0.27221  0.25501  0.08621  1.0000
  S   S192      1.0  0.25791  0.28231  0.09642  1.0000
  Fe  Fe104     1.0  0.27328  0.21413  0.08680  1.0000
  S   S193      1.0  0.25995  0.18838  0.09661  1.0000
  S   S194      1.0  0.30011  0.25513  0.06565  1.0000
  S   S195      1.0  0.30125  0.21078  0.06648  1.0000
  C   C1111     1.0  0.34375  0.12844  0.01334  1.0000
  Fe  Fe105     1.0  0.27296  0.12866  0.22384  1.0000
  S   S196      1.0  0.24209  0.14123  0.23071  1.0000
  S   S197      1.0  0.29370  0.13777  0.23512  1.0000
  Fe  Fe106     1.0  0.26685  0.10109  0.20260  1.0000
  S   S198      1.0  0.23537  0.11219  0.20737  1.0000
  S   S199      1.0  0.28225  0.07491  0.19036  1.0000
  Fe  Fe107     1.0  0.24284  0.14120  0.20056  1.0000
  S   S200      1.0  0.22842  0.16931  0.18495  1.0000
  Fe  Fe108     1.0  0.23771  0.11122  0.23696  1.0000
  S   S201      1.0  0.22005  0.09593  0.26283  1.0000
  S   S202      1.0  0.27427  0.13036  0.19312  1.0000
  S   S203      1.0  0.26865  0.09839  0.23273  1.0000
  H   H883      1.0  0.22845  0.00329  0.32594  1.0000
  H   H884      1.0  0.21316  0.28340  0.16013  1.0000
  H   H885      1.0  0.29819  0.32643  0.46816  1.0000
  P   P36       1.0  0.33018  0.14671  0.08732  1.0000
  H   H886      1.0  0.33658  0.40292  0.31106  1.0000
  C   C1112     1.0  0.36886  0.37676  0.25737  1.0000
  C   C1113     1.0  0.20231  0.25425  0.43124  1.0000
  S   S204      1.0  0.23507  0.02608  0.16959  1.0000
  C   C1114     1.0  0.33207  0.17740  0.27968  1.0000
  C   C1115     1.0  0.28366  0.18289  0.03128  1.0000
  H   H887      1.0  0.32304  0.99922  0.11019  1.0000
  C   C1116     1.0  0.34619  0.19090  0.03214  1.0000
  C   C1117     1.0  0.33624  0.16861  0.12983  1.0000
  H   H888      1.0  0.36142  0.30166  0.37213  1.0000
  C   C1118     1.0  0.31546  0.42129  0.44225  1.0000
  C   C1119     1.0  0.20294  0.11093  0.27630  1.0000
  H   H889      1.0  0.23985  0.19610  0.05751  1.0000
  C   C1120     1.0  0.21780  0.40067  0.26329  1.0000
  C   C1121     1.0  0.31103  0.18548  0.98342  1.0000
  S   S205      1.0  0.38112  0.20005  0.15692  1.0000
  C   C1122     1.0  0.30878  0.41351  0.46136  1.0000
  C   C1123     1.0  0.32513  0.21303  0.97852  1.0000
  Fe  Fe109     1.0  0.24629  0.99400  0.17548  1.0000
  C   C1124     1.0  0.37171  0.27084  0.26165  1.0000
  H   H890      1.0  0.20759  0.13724  0.25650  1.0000
  C   C1125     1.0  0.26860  0.06145  0.18526  1.0000
  C   C1126     1.0  0.25145  0.07020  0.17947  1.0000
  C   C1127     1.0  0.24144  0.05934  0.17439  1.0000
  C   C1128     1.0  0.24814  0.03953  0.17564  1.0000
  C   C1129     1.0  0.26521  0.03074  0.18165  1.0000
  C   C1130     1.0  0.27551  0.04172  0.18620  1.0000
  H   H891      1.0  0.24612  0.08544  0.17844  1.0000
  H   H892      1.0  0.22852  0.06638  0.16938  1.0000
  H   H893      1.0  0.27054  0.01550  0.18271  1.0000
  H   H894      1.0  0.28874  0.03483  0.19071  1.0000
  C   C1131     1.0  0.23415  0.29113  0.09415  1.0000
  C   C1132     1.0  0.22627  0.31071  0.09297  1.0000
  H   H895      1.0  0.22406  0.00987  0.27119  1.0000
  S   S206      1.0  0.30143  0.22491  0.21362  1.0000
  H   H896      1.0  0.32203  0.19034  0.23444  1.0000
  C   C1133     1.0  0.22288  0.27881  0.09398  1.0000
  H   H897      1.0  0.23490  0.32029  0.09314  1.0000
  C   C1134     1.0  0.22654  0.27569  0.99268  1.0000
  Fe  Fe110     1.0  0.36655  0.33294  0.31078  1.0000
  H   H898      1.0  0.22875  0.26363  0.09527  1.0000
  C   C1135     1.0  0.28092  0.24125  0.00647  1.0000
  C   C1136     1.0  0.28585  0.24352  0.98668  1.0000
  H   H899      1.0  0.26254  0.02971  0.22952  1.0000
  C   C1137     1.0  0.25933  0.23020  0.98717  1.0000
  C   C1138     1.0  0.25365  0.22915  0.00678  1.0000
  C   C1139     1.0  0.26468  0.23422  0.01651  1.0000
  H   H900      1.0  0.24082  0.22419  0.01447  1.0000
  H   H901      1.0  0.26058  0.23269  0.03175  1.0000
  C   C1140     1.0  0.23830  0.17435  0.16062  1.0000
  C   C1141     1.0  0.24619  0.15955  0.15076  1.0000
  C   C1142     1.0  0.25276  0.16394  0.13100  1.0000
  C   C1143     1.0  0.25211  0.18307  0.12128  1.0000
  C   C1144     1.0  0.24493  0.19781  0.13125  1.0000
  C   C1145     1.0  0.23771  0.19346  0.15087  1.0000
  H   H902      1.0  0.24659  0.14478  0.15827  1.0000
  H   H903      1.0  0.25833  0.15254  0.12327  1.0000
  H   H904      1.0  0.24430  0.21260  0.12373  1.0000
  H   H905      1.0  0.23154  0.20490  0.15850  1.0000
  C   C1146     1.0  0.34895  0.21298  0.14065  1.0000
  C   C1147     1.0  0.33971  0.21635  0.12537  1.0000
  C   C1148     1.0  0.35001  0.21157  0.10805  1.0000
  C   C1149     1.0  0.36925  0.20292  0.10637  1.0000
  H   H906      1.0  0.34108  0.21690  0.15387  1.0000
  H   H907      1.0  0.32483  0.22304  0.12679  1.0000
  H   H908      1.0  0.38046  0.35627  0.17169  1.0000
  C   C1150     1.0  0.31400  0.20013  0.99029  1.0000
  C   C1151     1.0  0.29461  0.16225  0.22999  1.0000
  C   C1152     1.0  0.28163  0.17655  0.22069  1.0000
  C   C1153     1.0  0.28333  0.19588  0.21626  1.0000
  H   H909      1.0  0.27048  0.17267  0.21665  1.0000
  H   H910      1.0  0.27332  0.20687  0.20902  1.0000
  H   H911      1.0  0.31081  0.14161  0.15897  1.0000
  C   C1154     1.0  0.21964  0.46134  0.24700  1.0000
  C   C1155     1.0  0.35981  0.15876  0.17205  1.0000
  S   S207      1.0  0.24648  0.22199  0.97549  1.0000
  H   H912      1.0  0.23201  0.45597  0.25327  1.0000
  C   C1156     1.0  0.27520  0.47174  0.37019  1.0000
  C   C1157     1.0  0.22563  0.27005  0.43466  1.0000
  C   C1158     1.0  0.27568  0.43762  0.37901  1.0000
  C   C1159     1.0  0.37700  0.38948  0.26187  1.0000
  H   H913      1.0  0.22164  0.24186  0.45045  1.0000
  H   H914      1.0  0.26775  0.28096  0.03682  1.0000
  H   H915      1.0  0.34109  0.11635  0.21451  1.0000
  H   H916      1.0  0.22585  0.29840  0.41722  1.0000
  H   H917      1.0  0.28974  0.13996  0.03413  1.0000
  C   C1160     1.0  0.20621  0.22072  0.06787  1.0000
  H   H918      1.0  0.33625  0.27464  0.32361  1.0000
  C   C1161     1.0  0.27880  0.17817  0.01642  1.0000
  H   H919      1.0  0.21007  0.34528  0.38100  1.0000
  H   H920      1.0  0.20701  0.44014  0.42863  1.0000
  C   C1162     1.0  0.24555  0.18590  0.03166  1.0000
  C   C1163     1.0  0.30483  0.13697  0.02824  1.0000
  C   C1164     1.0  0.34988  0.25900  0.11146  1.0000
  C   C1165     1.0  0.21606  0.30961  0.03764  1.0000
  C   C1166     1.0  0.38681  0.36837  0.35023  1.0000
  C   C1167     1.0  0.20591  0.25697  0.04337  1.0000
  C   C1168     1.0  0.23907  0.38079  0.37920  1.0000
  C   C1169     1.0  0.24650  0.38887  0.36039  1.0000
  C   C1170     1.0  0.24445  0.40876  0.35411  1.0000
  C   C1171     1.0  0.23453  0.42082  0.36656  1.0000
  C   C1172     1.0  0.22709  0.41282  0.38550  1.0000
  C   C1173     1.0  0.22947  0.39277  0.39190  1.0000
  H   H921      1.0  0.25388  0.37969  0.35059  1.0000
  H   H922      1.0  0.25048  0.41471  0.33956  1.0000
  H   H923      1.0  0.21930  0.42215  0.39509  1.0000
  H   H924      1.0  0.22369  0.38664  0.40646  1.0000
  C   C1174     1.0  0.33650  0.37695  0.30325  1.0000
  C   C1175     1.0  0.32690  0.36817  0.29535  1.0000
  C   C1176     1.0  0.31010  0.37846  0.28925  1.0000
  C   C1177     1.0  0.30262  0.39745  0.29134  1.0000
  C   C1178     1.0  0.31223  0.40622  0.29921  1.0000
  H   H925      1.0  0.33244  0.35350  0.29386  1.0000
  H   H926      1.0  0.30277  0.37160  0.28312  1.0000
  C   C1179     1.0  0.34027  0.28465  0.38038  1.0000
  C   C1180     1.0  0.32459  0.27966  0.39411  1.0000
  C   C1181     1.0  0.31705  0.28911  0.40922  1.0000
  C   C1182     1.0  0.32525  0.30347  0.41066  1.0000
  C   C1183     1.0  0.34162  0.30764  0.39762  1.0000
  C   C1184     1.0  0.34906  0.29826  0.38244  1.0000
  H   H927      1.0  0.31781  0.26904  0.39266  1.0000
  H   H928      1.0  0.22927  0.98755  0.25026  1.0000
  C   C1185     1.0  0.37185  0.33443  0.19571  1.0000
  H   H929      1.0  0.24961  0.31274  0.97613  1.0000
  H   H930      1.0  0.31302  0.99896  0.17859  1.0000
  C   C1186     1.0  0.27481  0.21716  0.16212  1.0000
  H   H931      1.0  0.33307  0.08099  0.16221  1.0000
  C   C1187     1.0  0.38726  0.26508  0.39481  1.0000
  H   H932      1.0  0.36180  0.33136  0.18936  1.0000
  C   C1188     1.0  0.26959  0.18971  0.04574  1.0000
  C   C1189     1.0  0.19663  0.34246  0.38963  1.0000
  C   C1190     1.0  0.19108  0.29525  0.14418  1.0000
  C   C1191     1.0  0.20002  0.24271  0.03853  1.0000
  H   H933      1.0  0.26453  0.26187  0.13488  1.0000
  C   C1192     1.0  0.31702  0.29171  0.15546  1.0000
  H   H934      1.0  0.27249  0.39597  0.24786  1.0000
  C   C1193     1.0  0.19760  0.20527  0.32722  1.0000
  H   H935      1.0  0.24227  0.01257  0.22169  1.0000
  H   H936      1.0  0.33841  0.30451  0.45981  1.0000
  C   C1194     1.0  0.28257  0.30905  0.11918  1.0000
  C   C1195     1.0  0.26510  0.24083  0.34295  1.0000
  H   H937      1.0  0.22448  0.33040  0.04735  1.0000
  S   S208      1.0  0.20112  0.45194  0.20454  1.0000
  H   H938      1.0  0.31649  0.41291  0.47201  1.0000
  H   H939      1.0  0.35611  0.20356  0.04959  1.0000
  H   H940      1.0  0.19157  0.42144  0.30061  1.0000
  Fe  Fe111     1.0  0.36922  0.21493  0.18147  1.0000
  C   C1196     1.0  0.32868  0.26857  0.08955  1.0000
  H   H941      1.0  0.20081  0.29805  0.40139  1.0000
  H   H942      1.0  0.29902  0.27657  0.10149  1.0000
  P   P37       1.0  0.29617  0.27393  0.14210  1.0000
  C   C1197     1.0  0.24041  0.28163  0.03193  1.0000
  C   C1198     1.0  0.35849  0.14050  0.17133  1.0000
  H   H943      1.0  0.19964  0.35214  0.41309  1.0000
  C   C1199     1.0  0.27168  0.25014  0.14445  1.0000
  H   H944      1.0  0.36030  0.24728  0.33578  1.0000
  C   C1200     1.0  0.28745  0.15954  0.98344  1.0000
  C   C1201     1.0  0.22911  0.38531  0.25512  1.0000
  H   H945      1.0  0.34503  0.10533  0.03806  1.0000
  H   H946      1.0  0.23847  0.23202  0.34900  1.0000
  H   H947      1.0  0.27340  0.19403  0.05674  1.0000
  H   H948      1.0  0.25521  0.17627  0.00557  1.0000
  C   C1202     1.0  0.19267  0.06043  0.18926  1.0000
  C   C1203     1.0  0.27935  0.33059  0.27200  1.0000
  C   C1204     1.0  0.29831  0.32107  0.26841  1.0000
  C   C1205     1.0  0.30869  0.31552  0.28275  1.0000
  C   C1206     1.0  0.30020  0.31976  0.30060  1.0000
  C   C1207     1.0  0.28135  0.32987  0.30419  1.0000
  C   C1208     1.0  0.27083  0.33487  0.28985  1.0000
  P   P38       1.0  0.27052  0.33543  0.32729  1.0000
  C   C1209     1.0  0.26113  0.31534  0.34305  1.0000
  C   C1210     1.0  0.28834  0.34056  0.33652  1.0000
  C   C1211     1.0  0.30127  0.32545  0.34518  1.0000
  C   C1212     1.0  0.31587  0.32927  0.35111  1.0000
  C   C1213     1.0  0.31755  0.34814  0.34878  1.0000
  C   C1214     1.0  0.30436  0.36326  0.34086  1.0000
  C   C1215     1.0  0.29004  0.35953  0.33443  1.0000
  C   C1216     1.0  0.25998  0.31197  0.36271  1.0000
  C   C1217     1.0  0.25176  0.29706  0.37503  1.0000
  C   C1218     1.0  0.24415  0.28576  0.36794  1.0000
  C   C1219     1.0  0.24505  0.28916  0.34840  1.0000
  C   C1220     1.0  0.25360  0.30384  0.33597  1.0000
  C   C1221     1.0  0.25135  0.35619  0.32532  1.0000
  C   C1222     1.0  0.25352  0.37223  0.31041  1.0000
  C   C1223     1.0  0.23938  0.38888  0.30983  1.0000
  C   C1224     1.0  0.22285  0.38964  0.32390  1.0000
  C   C1225     1.0  0.22039  0.37363  0.33857  1.0000
  C   C1226     1.0  0.23458  0.35696  0.33932  1.0000
  H   H949      1.0  0.27130  0.33476  0.26088  1.0000
  H   H950      1.0  0.30505  0.31804  0.25451  1.0000
  H   H951      1.0  0.32341  0.30808  0.27998  1.0000
  H   H952      1.0  0.30849  0.31527  0.31147  1.0000
  H   H953      1.0  0.25613  0.34222  0.29237  1.0000
  H   H954      1.0  0.30045  0.31065  0.34693  1.0000
  H   H955      1.0  0.32614  0.31755  0.35710  1.0000
  H   H956      1.0  0.32919  0.35105  0.35290  1.0000
  H   H957      1.0  0.30562  0.37794  0.33903  1.0000
  H   H958      1.0  0.28074  0.37158  0.32745  1.0000
  H   H959      1.0  0.26511  0.32104  0.36862  1.0000
  H   H960      1.0  0.25115  0.29439  0.39014  1.0000
  H   H961      1.0  0.23742  0.27449  0.37766  1.0000
  H   H962      1.0  0.23899  0.28050  0.34294  1.0000
  H   H963      1.0  0.25402  0.30638  0.32091  1.0000
  H   H964      1.0  0.26652  0.37224  0.29971  1.0000
  H   H965      1.0  0.24169  0.40146  0.29885  1.0000
  H   H966      1.0  0.21226  0.40283  0.32375  1.0000
  H   H967      1.0  0.20785  0.37441  0.34982  1.0000
  H   H968      1.0  0.23277  0.34507  0.35129  1.0000
  P   P39       1.0  0.30925  0.23589  0.29703  1.0000
  S   S209      1.0  0.37976  0.31391  0.33483  1.0000
  Fe  Fe112     1.0  0.36818  0.21784  0.22218  1.0000
  C   C1227     1.0  0.29789  0.27153  0.17977  1.0000
  H   H969      1.0  0.33323  0.22448  0.26202  1.0000
  C   C1228     1.0  0.22905  0.31696  0.04265  1.0000
  H   H970      1.0  0.33831  0.15221  0.99018  1.0000
  C   C1229     1.0  0.34967  0.12641  0.08989  1.0000
  C   C1230     1.0  0.27533  0.23764  0.97707  1.0000
  C   C1231     1.0  0.28209  0.40721  0.45312  1.0000
  C   C1232     1.0  0.31257  0.14844  0.01112  1.0000
  C   C1233     1.0  0.27696  0.45423  0.40238  1.0000
  H   H971      1.0  0.37217  0.25623  0.29070  1.0000
  C   C1234     1.0  0.38894  0.07095  0.17304  1.0000
  H   H972      1.0  0.31796  0.16543  0.30779  1.0000
  C   C1235     1.0  0.30727  0.25470  0.27594  1.0000
  C   C1236     1.0  0.21735  0.03503  0.22455  1.0000
  H   H973      1.0  0.30746  0.20217  0.00450  1.0000
  H   H974      1.0  0.26929  0.40160  0.45787  1.0000
  H   H975      1.0  0.31450  0.26999  0.30616  1.0000
  C   C1237     1.0  0.29091  0.21864  0.16737  1.0000
  H   H976      1.0  0.20625  0.20679  0.07741  1.0000
  C   C1238     1.0  0.21744  0.02431  0.30284  1.0000
  C   C1239     1.0  0.23082  0.01543  0.31436  1.0000
  C   C1240     1.0  0.24748  0.02218  0.31098  1.0000
  C   C1241     1.0  0.25096  0.03771  0.29600  1.0000
  C   C1242     1.0  0.23782  0.04647  0.28437  1.0000
  C   C1243     1.0  0.22111  0.03986  0.28774  1.0000
  P   P40       1.0  0.33906  0.11091  0.17755  1.0000
  H   H977      1.0  0.37321  0.35417  0.24298  1.0000
  H   H978      1.0  0.23994  0.44293  0.41388  1.0000
  H   H979      1.0  0.27715  0.45443  0.41677  1.0000
  C   C1244     1.0  0.37588  0.23615  0.27293  1.0000
  C   C1245     1.0  0.19897  0.29196  0.16005  1.0000
  C   C1246     1.0  0.29735  0.11052  0.14175  1.0000
  H   H980      1.0  0.33761  0.16368  0.27559  1.0000
  H   H981      1.0  0.29829  0.18130  0.03183  1.0000
  C   C1247     1.0  0.24606  0.41268  0.25982  1.0000
  H   H982      1.0  0.19944  0.34996  0.46408  1.0000
  C   C1248     1.0  0.33599  0.11730  0.03053  1.0000
  C   C1249     1.0  0.32192  0.36271  0.45548  1.0000
  H   H983      1.0  0.25768  0.01538  0.31999  1.0000
  H   H984      1.0  0.26381  0.04302  0.29338  1.0000
  H   H985      1.0  0.24055  0.05849  0.27276  1.0000
  H   H986      1.0  0.21111  0.04688  0.27851  1.0000
  H   H987      1.0  0.30979  0.23671  0.16559  1.0000
  C   C1250     1.0  0.32285  0.26310  0.26601  1.0000
  H   H988      1.0  0.21822  0.42631  0.27183  1.0000
  C   C1251     1.0  0.20520  0.28586  0.41219  1.0000
  H   H989      1.0  0.29690  0.30839  0.11099  1.0000
  C   C1252     1.0  0.37866  0.32488  0.41750  1.0000
  H   H990      1.0  0.33704  0.25979  0.14045  1.0000
  C   C1253     1.0  0.25725  0.39723  0.25202  1.0000
  H   H991      1.0  0.32945  0.10047  0.24737  1.0000
  S   S210      1.0  0.20536  0.48289  0.27445  1.0000
  C   C1254     1.0  0.30550  0.27467  0.19365  1.0000
  Fe  Fe113     1.0  0.37198  0.30004  0.29147  1.0000
  H   H992      1.0  0.31786  0.07959  0.19449  1.0000
  C   C1255     1.0  0.27305  0.22771  0.30937  1.0000
  C   C1256     1.0  0.21684  0.48409  0.16106  1.0000
  C   C1257     1.0  0.19106  0.00287  0.33148  1.0000
  H   H993      1.0  0.25263  0.42337  0.26154  1.0000
  C   C1258     1.0  0.38404  0.33629  0.36791  1.0000
  H   H994      1.0  0.20160  0.31766  0.03863  1.0000
  H   H995      1.0  0.19507  0.27651  0.09264  1.0000
  Fe  Fe114     1.0  0.36253  0.25330  0.19192  1.0000
  C   C1259     1.0  0.19610  0.30575  0.09086  1.0000
  C   C1260     1.0  0.35076  0.24510  0.32822  1.0000
  H   H996      1.0  0.37840  0.24875  0.22531  1.0000
  C   C1261     1.0  0.19650  0.27009  0.41732  1.0000
  H   H997      1.0  0.20727  0.34466  0.32090  1.0000
  C   C1262     1.0  0.25948  0.29618  0.14573  1.0000
  C   C1263     1.0  0.31652  0.12152  0.03793  1.0000
  H   H998      1.0  0.34777  0.16946  0.13565  1.0000
  H   H999      1.0  0.37645  0.22368  0.28449  1.0000
  H   H1000     1.0  0.27839  0.25421  0.27595  1.0000
  C   C1264     1.0  0.37661  0.25021  0.23968  1.0000
  H   H1001     1.0  0.27178  0.33559  0.10106  1.0000
  H   H1002     1.0  0.36396  0.25308  0.11441  1.0000
  C   C1265     1.0  0.34251  0.27564  0.45717  1.0000
  H   H1003     1.0  0.29849  0.20649  0.17613  1.0000
  H   H1004     1.0  0.21727  0.23163  0.08580  1.0000
  H   H1005     1.0  0.20083  0.21413  0.33487  1.0000
  Fe  Fe115     1.0  0.36303  0.29306  0.33439  1.0000
  H   H1006     1.0  0.20551  0.46226  0.13196  1.0000
  C   C1266     1.0  0.19278  0.40534  0.23273  1.0000
  P   P41       1.0  0.19246  0.40247  0.27071  1.0000
  C   C1267     1.0  0.19970  0.13086  0.26996  1.0000
  C   C1268     1.0  0.27626  0.47142  0.38868  1.0000
  H   H1007     1.0  0.36188  0.99012  0.11916  1.0000
  C   C1269     1.0  0.33806  0.17607  0.03175  1.0000
  C   C1270     1.0  0.33324  0.16262  0.04844  1.0000
  C   C1271     1.0  0.30946  0.13877  0.08656  1.0000
  C   C1272     1.0  0.29434  0.15211  0.07961  1.0000
  C   C1273     1.0  0.27801  0.14628  0.07954  1.0000
  C   C1274     1.0  0.27672  0.12706  0.08613  1.0000
  C   C1275     1.0  0.29184  0.11357  0.09271  1.0000
  C   C1276     1.0  0.30815  0.11936  0.09292  1.0000
  C   C1277     1.0  0.31789  0.17839  0.13616  1.0000
  C   C1278     1.0  0.30312  0.17810  0.12811  1.0000
  C   C1279     1.0  0.30672  0.16823  0.11357  1.0000
  H   H1008     1.0  0.33521  0.17523  0.01856  1.0000
  H   H1009     1.0  0.32674  0.15139  0.04796  1.0000
  H   H1010     1.0  0.29490  0.16717  0.07480  1.0000
  H   H1011     1.0  0.26606  0.15684  0.07497  1.0000
  H   H1012     1.0  0.26387  0.12270  0.08642  1.0000
  C   C1280     1.0  0.31097  0.18659  0.23027  1.0000
  H   H1013     1.0  0.19224  0.40947  0.20326  1.0000
  H   H1014     1.0  0.31522  0.18652  0.14702  1.0000
  H   H1015     1.0  0.28889  0.18585  0.13285  1.0000
  H   H1016     1.0  0.29510  0.16860  0.10737  1.0000
  C   C1281     1.0  0.35004  0.19194  0.04911  1.0000
  C   C1282     1.0  0.20820  0.27885  0.00392  1.0000
  S   S211      1.0  0.34668  0.24133  0.17743  1.0000
  H   H1017     1.0  0.30671  0.42090  0.30065  1.0000
  C   C1283     1.0  0.30409  0.27953  0.16049  1.0000
  H   H1018     1.0  0.31945  0.10860  0.09832  1.0000
  C   C1284     1.0  0.29725  0.23589  0.16141  1.0000
  H   H1019     1.0  0.31243  0.07400  0.25400  1.0000
  H   H1020     1.0  0.36961  0.31488  0.46583  1.0000
  C   C1285     1.0  0.24878  0.38357  0.24959  1.0000
  C   C1286     1.0  0.24978  0.32597  0.12400  1.0000
  C   C1287     1.0  0.29840  0.20088  0.22052  1.0000
  C   C1288     1.0  0.28651  0.23551  0.31322  1.0000
  H   H1021     1.0  0.29901  0.12932  0.99305  1.0000
  H   H1022     1.0  0.37337  0.16304  0.16725  1.0000
  H   H1023     1.0  0.19513  0.24551  0.02544  1.0000
  H   H1024     1.0  0.23001  0.44384  0.22601  1.0000
  C   C1289     1.0  0.37990  0.36404  0.24595  1.0000
  H   H1025     1.0  0.21546  0.36791  0.29125  1.0000
  C   C1290     1.0  0.21434  0.41055  0.44283  1.0000
  H   H1026     1.0  0.37132  0.13094  0.16622  1.0000
  H   H1027     1.0  0.27341  0.45523  0.35126  1.0000
  H   H1028     1.0  0.27486  0.42494  0.37494  1.0000
  C   C1291     1.0  0.31390  0.19618  0.30296  1.0000
  C   C1292     1.0  0.19637  0.35646  0.31594  1.0000
  C   C1293     1.0  0.35210  0.22689  0.32528  1.0000
  C   C1294     1.0  0.32637  0.16579  0.18573  1.0000
  C   C1295     1.0  0.32083  0.08420  0.20571  1.0000
  H   H1029     1.0  0.32175  0.29830  0.14071  1.0000
  C   C1296     1.0  0.30905  0.16742  0.23505  1.0000
  C   C1297     1.0  0.29052  0.26061  0.26886  1.0000
  C   C1298     1.0  0.28937  0.27481  0.25224  1.0000
  C   C1299     1.0  0.30490  0.28320  0.24258  1.0000
  C   C1300     1.0  0.32163  0.27736  0.24948  1.0000
  C   C1301     1.0  0.21216  0.25280  0.06048  1.0000
  H   H1030     1.0  0.35397  0.37664  0.26290  1.0000
  C   C1302     1.0  0.33208  0.14387  0.00357  1.0000
  H   H1031     1.0  0.36277  0.21499  0.33051  1.0000
  H   H1032     1.0  0.34109  0.20982  0.31351  1.0000
  H   H1033     1.0  0.26215  0.24563  0.35612  1.0000
  H   H1034     1.0  0.29247  0.24793  0.33374  1.0000
  H   H1035     1.0  0.27651  0.27914  0.24670  1.0000
  H   H1036     1.0  0.30405  0.29411  0.22965  1.0000
  H   H1037     1.0  0.33384  0.28359  0.24186  1.0000
  C   C1303     1.0  0.33648  0.16397  0.06569  1.0000
  H   H1038     1.0  0.20296  0.04765  0.19326  1.0000
  H   H1039     1.0  0.34395  0.24597  0.45812  1.0000
  C   C1304     1.0  0.37460  0.32398  0.21370  1.0000
  Fe  Fe116     1.0  0.33215  0.22788  0.20660  1.0000
  C   C1305     1.0  0.32604  0.23952  0.30860  1.0000
  H   H1040     1.0  0.19900  0.47656  0.34734  1.0000
  C   C1306     1.0  0.36839  0.20461  0.13865  1.0000
  C   C1307     1.0  0.29101  0.13994  0.98340  1.0000
  H   H1041     1.0  0.20138  0.33319  0.09023  1.0000
  H   H1042     1.0  0.25584  0.28532  0.15826  1.0000
  H   H1043     1.0  0.25751  0.31211  0.04684  1.0000
  S   S212      1.0  0.34778  0.31322  0.31220  1.0000
  C   C1308     1.0  0.32466  0.29473  0.16935  1.0000
  H   H1044     1.0  0.37731  0.19915  0.09310  1.0000
  C   C1309     1.0  0.34374  0.17147  0.17910  1.0000
  C   C1310     1.0  0.20272  0.19443  0.22557  1.0000
  H   H1045     1.0  0.34483  0.18562  0.17969  1.0000
  C   C1311     1.0  0.23626  0.02645  0.22525  1.0000
  H   H1046     1.0  0.21615  0.07729  0.23543  1.0000
  C   C1312     1.0  0.26522  0.23292  0.15065  1.0000
  C   C1313     1.0  0.32100  0.17842  0.29778  1.0000
  C   C1314     1.0  0.25575  0.22657  0.32216  1.0000
  H   H1047     1.0  0.25745  0.37176  0.24325  1.0000
  H   H1048     1.0  0.30679  0.06373  0.22725  1.0000
  C   C1315     1.0  0.29213  0.40644  0.46678  1.0000
  C   C1316     1.0  0.34543  0.17839  0.06576  1.0000
  H   H1049     1.0  0.26192  0.22994  0.46797  1.0000
  S   S213      1.0  0.34448  0.24371  0.22046  1.0000
  C   C1317     1.0  0.25058  0.19098  0.04610  1.0000
  H   H1050     1.0  0.29073  0.09867  0.09802  1.0000
  H   H1051     1.0  0.28766  0.26238  0.18412  1.0000
  C   C1318     1.0  0.31320  0.27216  0.10437  1.0000
  C   C1319     1.0  0.37332  0.25457  0.27649  1.0000
  C   C1320     1.0  0.32500  0.14746  0.18528  1.0000
  S   S214      1.0  0.37137  0.28204  0.18275  1.0000
  H   H1052     1.0  0.20495  0.41191  0.22942  1.0000
  C   C1321     1.0  0.19996  0.99944  0.29080  1.0000
  H   H1053     1.0  0.30138  0.26762  0.20837  1.0000
  C   C1322     1.0  0.31553  0.99904  0.16359  1.0000
  C   C1323     1.0  0.33042  0.09925  0.20178  1.0000
  C   C1324     1.0  0.31395  0.36699  0.40166  1.0000
  C   C1325     1.0  0.30397  0.36031  0.39227  1.0000
  C   C1326     1.0  0.28640  0.37100  0.38870  1.0000
  C   C1327     1.0  0.27832  0.38788  0.39542  1.0000
  C   C1328     1.0  0.28789  0.39436  0.40551  1.0000
  C   C1329     1.0  0.30609  0.38409  0.40802  1.0000
  P   P42       1.0  0.27650  0.41522  0.41568  1.0000
  C   C1330     1.0  0.25209  0.41357  0.42621  1.0000
  C   C1331     1.0  0.28866  0.41503  0.43383  1.0000
  C   C1332     1.0  0.30550  0.42199  0.42853  1.0000
  C   C1333     1.0  0.21948  0.28600  0.42107  1.0000
  H   H1054     1.0  0.30946  0.08034  0.14489  1.0000
  H   H1055     1.0  0.33542  0.30329  0.16530  1.0000
  H   H1056     1.0  0.31902  0.15648  0.24240  1.0000
  H   H1057     1.0  0.19921  0.28941  0.13193  1.0000
  C   C1334     1.0  0.21841  0.42790  0.43132  1.0000
  H   H1058     1.0  0.36424  0.07609  0.19481  1.0000
  C   C1335     1.0  0.22905  0.39472  0.44605  1.0000
  C   C1336     1.0  0.24782  0.39623  0.43776  1.0000
  H   H1059     1.0  0.32757  0.35858  0.40440  1.0000
  H   H1060     1.0  0.30973  0.34667  0.38804  1.0000
  H   H1061     1.0  0.27875  0.36584  0.38126  1.0000
  H   H1062     1.0  0.26446  0.39568  0.39305  1.0000
  H   H1063     1.0  0.31409  0.38892  0.41523  1.0000
  H   H1064     1.0  0.31102  0.42781  0.41372  1.0000
  H   H1065     1.0  0.30558  0.19668  0.31713  1.0000
  C   C1337     1.0  0.33986  0.15857  0.11541  1.0000
  H   H1066     1.0  0.24929  0.06227  0.23604  1.0000
  H   H1067     1.0  0.23091  0.31295  0.14813  1.0000
  C   C1338     1.0  0.31786  0.21308  0.29003  1.0000
  H   H1068     1.0  0.22596  0.38127  0.45507  1.0000
  H   H1069     1.0  0.25909  0.38397  0.44064  1.0000
  H   H1070     1.0  0.20004  0.37437  0.43432  1.0000
  H   H1071     1.0  0.32650  0.27049  0.07535  1.0000
  C   C1339     1.0  0.37097  0.08103  0.18020  1.0000
  C   C1340     1.0  0.31608  0.26991  0.12274  1.0000
  C   C1341     1.0  0.32921  0.39604  0.30501  1.0000
  C   C1342     1.0  0.37830  0.19932  0.12155  1.0000
  H   H1072     1.0  0.34844  0.17963  0.07872  1.0000
  C   C1343     1.0  0.31779  0.08075  0.23948  1.0000
  C   C1344     1.0  0.25957  0.17972  0.01674  1.0000
  H   H1073     1.0  0.27603  0.22226  0.29658  1.0000
  H   H1074     1.0  0.30077  0.35635  0.44454  1.0000
  H   H1075     1.0  0.32289  0.37604  0.44519  1.0000
  H   H1076     1.0  0.24488  0.26758  0.02861  1.0000
  C   C1345     1.0  0.27481  0.45487  0.36543  1.0000
  C   C1346     1.0  0.33721  0.26056  0.32128  1.0000
  H   H1077     1.0  0.21672  0.26355  0.06456  1.0000
  S   S215      1.0  0.36663  0.29439  0.26535  1.0000
  C   C1347     1.0  0.22136  0.06303  0.23270  1.0000
  C   C1348     1.0  0.31109  0.12817  0.15577  1.0000
  C   C1349     1.0  0.31462  0.07497  0.22445  1.0000
  H   H1078     1.0  0.35882  0.12506  0.00750  1.0000
  C   C1350     1.0  0.32355  0.09422  0.15742  1.0000
  C   C1351     1.0  0.32362  0.11128  0.16230  1.0000
  H   H1079     1.0  0.26987  0.20378  0.16676  1.0000
  C   C1352     1.0  0.37122  0.10328  0.14969  1.0000
  C   C1353     1.0  0.31209  0.01578  0.13167  1.0000
  C   C1354     1.0  0.30940  0.01584  0.15087  1.0000
  H   H1080     1.0  0.31152  0.14308  0.19117  1.0000
  P   P43       1.0  0.20441  0.28078  0.02839  1.0000
  H   H1081     1.0  0.24552  0.22038  0.31916  1.0000
  C   C1355     1.0  0.26840  0.32465  0.11361  1.0000
  C   C1356     1.0  0.32745  0.09558  0.23574  1.0000
  C   C1357     1.0  0.20733  0.31805  0.09117  1.0000
  H   H1082     1.0  0.19803  0.19675  0.21240  1.0000
  H   H1083     1.0  0.30699  0.02874  0.12193  1.0000
  H   H1084     1.0  0.30231  0.02884  0.15594  1.0000
  C   C1358     1.0  0.26215  0.21517  0.25946  1.0000
  C   C1359     1.0  0.27820  0.20426  0.26638  1.0000
  C   C1360     1.0  0.27744  0.18652  0.27890  1.0000
  C   C1361     1.0  0.26075  0.17948  0.28426  1.0000
  C   C1362     1.0  0.24480  0.18998  0.27673  1.0000
  C   C1363     1.0  0.24542  0.20816  0.26476  1.0000
  P   P44       1.0  0.22393  0.17994  0.28171  1.0000
  C   C1364     1.0  0.23135  0.15397  0.28634  1.0000
  C   C1365     1.0  0.20656  0.18810  0.30151  1.0000
  H   H1085     1.0  0.32839  0.42676  0.43803  1.0000
  Fe  Fe117     1.0  0.26543  0.47850  0.29489  1.0000
  H   H1086     1.0  0.28649  0.11006  0.13480  1.0000
  C   C1366     1.0  0.33975  0.22405  0.31559  1.0000
  C   C1367     1.0  0.21053  0.19999  0.31119  1.0000
  C   C1368     1.0  0.22198  0.14208  0.30208  1.0000
  C   C1369     1.0  0.22726  0.12212  0.30456  1.0000
  C   C1370     1.0  0.24219  0.11379  0.29167  1.0000
  C   C1371     1.0  0.25214  0.12540  0.27649  1.0000
  C   C1372     1.0  0.24675  0.14536  0.27380  1.0000
  C   C1373     1.0  0.21522  0.18663  0.25981  1.0000
  C   C1374     1.0  0.22827  0.18625  0.24244  1.0000
  C   C1375     1.0  0.22205  0.19026  0.22544  1.0000
  C   C1376     1.0  0.21237  0.23473  0.07264  1.0000
  C   C1377     1.0  0.37718  0.23402  0.25447  1.0000
  C   C1378     1.0  0.33628  0.19410  0.26689  1.0000
  H   H1087     1.0  0.26299  0.22866  0.24932  1.0000
  H   H1088     1.0  0.29138  0.20935  0.26161  1.0000
  H   H1089     1.0  0.28999  0.17786  0.28388  1.0000
  H   H1090     1.0  0.26058  0.16553  0.29370  1.0000
  H   H1091     1.0  0.23327  0.21656  0.25885  1.0000
  H   H1092     1.0  0.21586  0.45485  0.16260  1.0000
  C   C1379     1.0  0.24766  0.30667  0.04235  1.0000
  C   C1380     1.0  0.24536  0.31183  0.14014  1.0000
  C   C1381     1.0  0.36202  0.09732  0.16856  1.0000
  H   H1093     1.0  0.22373  0.20492  0.30666  1.0000
  H   H1094     1.0  0.21039  0.14785  0.31240  1.0000
  H   H1095     1.0  0.21936  0.11311  0.31621  1.0000
  H   H1096     1.0  0.24582  0.09835  0.29323  1.0000
  H   H1097     1.0  0.26379  0.11898  0.26648  1.0000
  H   H1098     1.0  0.25462  0.15397  0.26177  1.0000
  H   H1099     1.0  0.24334  0.18257  0.24197  1.0000
  H   H1100     1.0  0.23227  0.18947  0.21219  1.0000
  H   H1101     1.0  0.31043  0.11285  0.05119  1.0000
  C   C1382     1.0  0.31034  0.09382  0.14737  1.0000
  P   P45       1.0  0.29727  0.16808  0.99854  1.0000
  C   C1383     1.0  0.32493  0.25784  0.31143  1.0000
  C   C1384     1.0  0.27695  0.43710  0.39758  1.0000
  C   C1385     1.0  0.25178  0.23311  0.33896  1.0000
  H   H1102     1.0  0.36515  0.13320  0.06083  1.0000
  C   C1386     1.0  0.21854  0.45460  0.23149  1.0000
  H   H1103     1.0  0.31404  0.17550  0.19156  1.0000
  C   C1387     1.0  0.31909  0.28603  0.18840  1.0000
  C   C1388     1.0  0.33385  0.10473  0.21699  1.0000
  H   H1104     1.0  0.34535  0.19326  0.25308  1.0000
  C   C1389     1.0  0.32929  0.21186  0.27203  1.0000
  C   C1390     1.0  0.24772  0.03612  0.22962  1.0000
  C   C1391     1.0  0.24028  0.05445  0.23325  1.0000
  S   S216      1.0  0.35458  0.20110  0.21028  1.0000
  H   H1105     1.0  0.36638  0.31320  0.22142  1.0000
  C   C1392     1.0  0.25338  0.28909  0.03681  1.0000
  C   C1393     1.0  0.28237  0.24210  0.33014  1.0000
  C   C1394     1.0  0.36379  0.09666  0.10918  1.0000
  H   H1106     1.0  0.23075  0.18731  0.03168  1.0000
  C   C1395     1.0  0.33450  0.26283  0.12625  1.0000
  C   C1396     1.0  0.20019  0.22465  0.05074  1.0000
  H   H1107     1.0  0.33611  0.25843  0.27081  1.0000
  S   S217      1.0  0.35757  0.36450  0.31107  1.0000
  C   C1397     1.0  0.21701  0.25417  0.43981  1.0000
  H   H1108     1.0  0.36457  0.11593  0.14060  1.0000
  H   H1109     1.0  0.28770  0.14061  0.14155  1.0000
  C   C1398     1.0  0.34096  0.13479  0.17761  1.0000
  C   C1399     1.0  0.22645  0.41429  0.26567  1.0000
  C   C1400     1.0  0.23720  0.42942  0.42297  1.0000
  H   H1110     1.0  0.35879  0.25836  0.08175  1.0000
  H   H1111     1.0  0.19976  0.40347  0.12088  1.0000
  C   C1401     1.0  0.29795  0.12772  0.14566  1.0000
  S   S218      1.0  0.19284  0.39598  0.08763  1.0000
  H   H1112     1.0  0.22268  0.37475  0.25298  1.0000
  S   S219      1.0  0.37834  0.21157  0.24966  1.0000
  H   H1113     1.0  0.37610  0.32502  0.37261  1.0000
  H   H1114     1.0  0.38117  0.38172  0.34131  1.0000
  H   H1115     1.0  0.25303  0.23167  0.14613  1.0000
  H   H1116     1.0  0.33813  0.11557  0.11943  1.0000
  H   H1117     1.0  0.32573  0.28773  0.19895  1.0000
  H   H1118     1.0  0.37875  0.25607  0.40573  1.0000
  C   C1402     1.0  0.27811  0.29441  0.13499  1.0000
  C   C1403     1.0  0.34697  0.26190  0.09310  1.0000
  H   H1119     1.0  0.23876  0.33790  0.11944  1.0000
  C   C1404     1.0  0.36463  0.12318  0.07443  1.0000
  C   C1405     1.0  0.19576  0.19163  0.25967  1.0000
  C   C1406     1.0  0.28748  0.25190  0.15020  1.0000
  H   H1120     1.0  0.35429  0.15170  0.11026  1.0000
  H   H1121     1.0  0.26612  0.35634  0.47027  1.0000
  C   C1407     1.0  0.20094  0.36969  0.29900  1.0000
  C   C1408     1.0  0.34955  0.11322  0.10737  1.0000
  H   H1122     1.0  0.36837  0.39903  0.27107  1.0000
  H   H1123     1.0  0.34879  0.27886  0.44213  1.0000
  C   C1409     1.0  0.32102  0.99895  0.12514  1.0000
  C   C1410     1.0  0.37866  0.09353  0.09376  1.0000
  H   H1124     1.0  0.38845  0.28177  0.41361  1.0000
  H   H1125     1.0  0.36325  0.08623  0.12255  1.0000
  C   C1411     1.0  0.38244  0.34838  0.18575  1.0000
  C   C1412     1.0  0.30941  0.35176  0.45520  1.0000
  C   C1413     1.0  0.21415  0.46939  0.15416  1.0000
  H   H1126     1.0  0.29816  0.24936  0.97879  1.0000
  C   C1414     1.0  0.21475  0.99991  0.27462  1.0000
  H   H1127     1.0  0.19564  0.24202  0.43523  1.0000
  C   C1415     1.0  0.20383  0.28609  0.09253  1.0000
  H   H1128     1.0  0.23881  0.27501  0.99807  1.0000
  H   H1129     1.0  0.19483  0.29755  0.18785  1.0000
  P   P46       1.0  0.19619  0.01528  0.30683  1.0000
  C   C1416     1.0  0.37695  0.35348  0.35621  1.0000
  C   C1417     1.0  0.37735  0.31478  0.45139  1.0000
  H   H1130     1.0  0.35425  0.33312  0.43874  1.0000
  C   C1418     1.0  0.33655  0.29024  0.46733  1.0000
  H   H1131     1.0  0.38717  0.38502  0.30778  1.0000
  C   C1419     1.0  0.37355  0.26848  0.24326  1.0000
  C   C1420     1.0  0.19558  0.27602  0.97807  1.0000
  C   C1421     1.0  0.20962  0.05344  0.22838  1.0000
  C   C1422     1.0  0.22163  0.29180  0.03227  1.0000
  C   C1423     1.0  0.20832  0.47355  0.13692  1.0000
  H   H1132     1.0  0.34309  0.36481  0.46916  1.0000
  C   C1424     1.0  0.38791  0.32742  0.22179  1.0000
  H   H1133     1.0  0.38980  0.08078  0.09523  1.0000
  H   H1134     1.0  0.20892  0.02734  0.22074  1.0000
  C   C1425     1.0  0.19278  0.27868  0.99651  1.0000
  H   H1135     1.0  0.19485  0.08736  0.29849  1.0000
  H   H1136     1.0  0.22044  0.48047  0.17487  1.0000
  H   H1137     1.0  0.19980  0.40935  0.44928  1.0000
  C   C1426     1.0  0.36875  0.32514  0.43615  1.0000
  H   H1138     1.0  0.27660  0.28484  0.97590  1.0000
  H   H1139     1.0  0.36385  0.35522  0.35164  1.0000
  H   H1140     1.0  0.32702  0.22447  0.98394  1.0000
  C   C1427     1.0  0.33962  0.25716  0.46615  1.0000
  H   H1141     1.0  0.20617  0.29102  0.46195  1.0000
  S   S220      1.0  0.38619  0.22772  0.19379  1.0000
  S   S221      1.0  0.38569  0.27826  0.31372  1.0000
  H   H1142     1.0  0.37156  0.33275  0.40599  1.0000
  C   C1428     1.0  0.37914  0.10685  0.07643  1.0000
  C   C1429     1.0  0.30791  0.33472  0.46874  1.0000
  H   H1143     1.0  0.19553  0.21375  0.04695  1.0000
  H   H1144     1.0  0.19819  0.05636  0.16072  1.0000
  H   H1145     1.0  0.38762  0.25117  0.37275  1.0000
  H   H1146     1.0  0.38967  0.31927  0.23586  1.0000
  H   H1147     1.0  0.19423  0.10343  0.21078  1.0000
  C   C1430     1.0  0.19230  0.10276  0.29357  1.0000
  C   C1431     1.0  0.21777  0.98730  0.26261  1.0000
  S   S222      1.0  0.23491  0.48355  0.30930  1.0000
  C   C1432     1.0  0.33327  0.35640  0.46904  1.0000
  H   H1148     1.0  0.27858  0.19578  0.47427  1.0000
  C   C1433     1.0  0.38929  0.09331  0.14265  1.0000
  S   S223      1.0  0.38977  0.32142  0.28826  1.0000
  C   C1434     1.0  0.19068  0.34628  0.40783  1.0000
  C   C1435     1.0  0.18991  0.06534  0.17061  1.0000
  H   H1149     1.0  0.19033  0.33127  0.36877  1.0000
  C   C1436     1.0  0.20443  0.29686  0.47425  1.0000
  Fe  Fe118     1.0  0.26237  0.36192  0.59773  1.0000
  S   S224      1.0  0.27001  0.33173  0.61364  1.0000
  S   S225      1.0  0.24900  0.38495  0.61456  1.0000
  Fe  Fe119     1.0  0.27577  0.35067  0.55954  1.0000
  S   S226      1.0  0.28471  0.31944  0.57257  1.0000
  Fe  Fe120     1.0  0.25713  0.32406  0.59344  1.0000
  S   S227      1.0  0.23900  0.30173  0.60528  1.0000
  Fe  Fe121     1.0  0.29679  0.32985  0.59152  1.0000
  S   S228      1.0  0.32447  0.31401  0.60040  1.0000
  S   S229      1.0  0.24717  0.35463  0.57914  1.0000
  S   S230      1.0  0.29016  0.36076  0.57679  1.0000
  S   S231      1.0  0.37880  0.32965  0.67452  1.0000
  H   H1150     1.0  0.31618  0.33161  0.52360  1.0000
  H   H1151     1.0  0.35102  0.46467  0.64462  1.0000
  Fe  Fe122     1.0  0.29756  0.43219  0.65965  1.0000
  S   S232      1.0  0.28122  0.42016  0.68814  1.0000
  S   S233      1.0  0.30980  0.41389  0.63813  1.0000
  C   C1437     1.0  0.33289  0.21185  0.95960  1.0000
  Fe  Fe123     1.0  0.29767  0.43457  0.69908  1.0000
  S   S234      1.0  0.30799  0.41913  0.72583  1.0000
  H   H1152     1.0  0.21786  0.26376  0.85343  1.0000
  S   S235      1.0  0.31599  0.44431  0.67077  1.0000
  Fe  Fe124     1.0  0.36456  0.23901  0.76752  1.0000
  C   C1438     1.0  0.28488  0.47095  0.59804  1.0000
  S   S236      1.0  0.35583  0.25033  0.73936  1.0000
  Fe  Fe125     1.0  0.36017  0.25106  0.80420  1.0000
  S   S237      1.0  0.37464  0.22216  0.81837  1.0000
  S   S238      1.0  0.34961  0.27687  0.81722  1.0000
  C   C1439     1.0  0.25384  0.19860  0.51915  1.0000
  Fe  Fe126     1.0  0.35747  0.21082  0.80491  1.0000
  S   S239      1.0  0.34270  0.18673  0.82158  1.0000
  C   C1440     1.0  0.25983  0.22116  0.48229  1.0000
  S   S240      1.0  0.34113  0.23974  0.79332  1.0000
  C   C1441     1.0  0.21672  0.28860  0.48682  1.0000
  S   S241      1.0  0.26079  0.25399  0.92519  1.0000
  Fe  Fe127     1.0  0.27433  0.20452  0.91150  1.0000
  S   S242      1.0  0.27823  0.23143  0.88967  1.0000
  S   S243      1.0  0.28074  0.17610  0.90324  1.0000
  Fe  Fe128     1.0  0.28912  0.23894  0.91138  1.0000
  S   S244      1.0  0.31332  0.25394  0.90451  1.0000
  Fe  Fe129     1.0  0.24978  0.24399  0.90527  1.0000
  S   S245      1.0  0.28803  0.21073  0.93204  1.0000
  S   S246      1.0  0.24488  0.21650  0.92548  1.0000
  Fe  Fe130     1.0  0.26830  0.15000  0.79659  1.0000
  S   S247      1.0  0.24069  0.17105  0.80058  1.0000
  S   S248      1.0  0.29301  0.16299  0.77808  1.0000
  Fe  Fe131     1.0  0.25049  0.11629  0.82024  1.0000
  S   S249      1.0  0.22164  0.13519  0.82661  1.0000
  S   S250      1.0  0.25248  0.08467  0.83383  1.0000
  Fe  Fe132     1.0  0.22800  0.14896  0.79565  1.0000
  S   S251      1.0  0.20504  0.15812  0.77848  1.0000
  Fe  Fe133     1.0  0.23699  0.15539  0.83106  1.0000
  S   S252      1.0  0.22519  0.17398  0.85280  1.0000
  S   S253      1.0  0.25601  0.12905  0.78884  1.0000
  S   S254      1.0  0.26542  0.13543  0.82748  1.0000
  C   C1442     1.0  0.20967  0.01325  0.71479  1.0000
  S   S255      1.0  0.26935  0.02250  0.78401  1.0000
  C   C1443     1.0  0.38484  0.47788  0.65855  1.0000
  H   H1153     1.0  0.23594  0.33754  0.71027  1.0000
  C   C1444     1.0  0.20266  0.14131  0.76683  1.0000
  C   C1445     1.0  0.21325  0.11070  0.75719  1.0000
  C   C1446     1.0  0.21566  0.12388  0.76642  1.0000
  H   H1154     1.0  0.22339  0.09726  0.75687  1.0000
  H   H1155     1.0  0.22758  0.12052  0.77321  1.0000
  C   C1447     1.0  0.26356  0.03990  0.79789  1.0000
  C   C1448     1.0  0.26968  0.05727  0.78992  1.0000
  C   C1449     1.0  0.26591  0.07130  0.80066  1.0000
  C   C1450     1.0  0.25612  0.06797  0.81955  1.0000
  C   C1451     1.0  0.24978  0.05067  0.82749  1.0000
  C   C1452     1.0  0.25340  0.03669  0.81666  1.0000
  H   H1156     1.0  0.27754  0.05981  0.77540  1.0000
  H   H1157     1.0  0.27094  0.08450  0.79445  1.0000
  H   H1158     1.0  0.24219  0.04802  0.84211  1.0000
  H   H1159     1.0  0.24871  0.02330  0.82291  1.0000
  C   C1453     1.0  0.26536  0.17558  0.88912  1.0000
  C   C1454     1.0  0.24102  0.17449  0.86641  1.0000
  C   C1455     1.0  0.23899  0.19099  0.87320  1.0000
  C   C1456     1.0  0.25120  0.19160  0.88437  1.0000
  H   H1160     1.0  0.22795  0.20335  0.86982  1.0000
  H   H1161     1.0  0.24963  0.20450  0.88929  1.0000
  C   C1457     1.0  0.28145  0.42952  0.58261  1.0000
  C   C1458     1.0  0.33566  0.20386  0.89428  1.0000
  C   C1459     1.0  0.33841  0.27077  0.84117  1.0000
  C   C1460     1.0  0.33161  0.25376  0.84834  1.0000
  C   C1461     1.0  0.32305  0.24897  0.86764  1.0000
  C   C1462     1.0  0.32214  0.26064  0.87996  1.0000
  C   C1463     1.0  0.32881  0.27769  0.87271  1.0000
  C   C1464     1.0  0.33644  0.28300  0.85326  1.0000
  H   H1162     1.0  0.33292  0.24433  0.83902  1.0000
  H   H1163     1.0  0.31770  0.23594  0.87308  1.0000
  H   H1164     1.0  0.32793  0.28687  0.88213  1.0000
  H   H1165     1.0  0.34138  0.29630  0.84770  1.0000
  C   C1465     1.0  0.32878  0.18042  0.80944  1.0000
  C   C1466     1.0  0.31922  0.16539  0.81845  1.0000
  C   C1467     1.0  0.30778  0.16034  0.80915  1.0000
  C   C1468     1.0  0.30651  0.16971  0.79044  1.0000
  C   C1469     1.0  0.31663  0.18428  0.78120  1.0000
  C   C1470     1.0  0.32732  0.19000  0.79083  1.0000
  H   H1166     1.0  0.32037  0.15787  0.83282  1.0000
  H   H1167     1.0  0.30037  0.14884  0.81631  1.0000
  H   H1168     1.0  0.31612  0.19120  0.76659  1.0000
  H   H1169     1.0  0.33466  0.20161  0.78376  1.0000
  C   C1471     1.0  0.23308  0.44121  0.72824  1.0000
  H   H1170     1.0  0.24825  0.43850  0.72309  1.0000
  H   H1171     1.0  0.25838  0.31127  0.54842  1.0000
  H   H1172     1.0  0.24789  0.23131  0.65018  1.0000
  C   C1472     1.0  0.36837  0.27226  0.70500  1.0000
  C   C1473     1.0  0.37355  0.25878  0.72090  1.0000
  H   H1173     1.0  0.37821  0.28990  0.67795  1.0000
  H   H1174     1.0  0.35358  0.27740  0.70429  1.0000
  C   C1474     1.0  0.35883  0.36989  0.71877  1.0000
  C   C1475     1.0  0.34999  0.37352  0.73678  1.0000
  C   C1476     1.0  0.33419  0.38853  0.73883  1.0000
  C   C1477     1.0  0.32725  0.39997  0.72288  1.0000
  C   C1478     1.0  0.33596  0.39622  0.70487  1.0000
  C   C1479     1.0  0.35161  0.38096  0.70285  1.0000
  H   H1175     1.0  0.35555  0.36494  0.74910  1.0000
  H   H1176     1.0  0.32756  0.39152  0.75273  1.0000
  H   H1177     1.0  0.33061  0.40502  0.69253  1.0000
  H   H1178     1.0  0.35826  0.37793  0.68897  1.0000
  C   C1480     1.0  0.22219  0.30194  0.59248  1.0000
  C   C1481     1.0  0.22164  0.31391  0.57452  1.0000
  H   H1179     1.0  0.24459  0.99324  0.65480  1.0000
  H   H1180     1.0  0.25402  0.04575  0.71411  1.0000
  C   C1482     1.0  0.24440  0.21790  0.51568  1.0000
  C   C1483     1.0  0.27972  0.28530  0.94624  1.0000
  H   H1181     1.0  0.23098  0.32395  0.56870  1.0000
  C   C1484     1.0  0.32752  0.28652  0.48660  1.0000
  Fe  Fe134     1.0  0.26141  0.44876  0.68456  1.0000
  H   H1182     1.0  0.21048  0.21301  0.83561  1.0000
  C   C1485     1.0  0.33544  0.32784  0.60842  1.0000
  C   C1486     1.0  0.33339  0.34755  0.60097  1.0000
  C   C1487     1.0  0.22079  0.21012  0.55485  1.0000
  C   C1488     1.0  0.35632  0.32989  0.62773  1.0000
  C   C1489     1.0  0.34714  0.31897  0.62165  1.0000
  H   H1183     1.0  0.36495  0.32311  0.63825  1.0000
  H   H1184     1.0  0.34902  0.30369  0.62730  1.0000
  C   C1490     1.0  0.26570  0.39164  0.62283  1.0000
  C   C1491     1.0  0.25993  0.40638  0.63287  1.0000
  C   C1492     1.0  0.27333  0.41299  0.63817  1.0000
  C   C1493     1.0  0.29259  0.40498  0.63314  1.0000
  C   C1494     1.0  0.29828  0.38986  0.62366  1.0000
  C   C1495     1.0  0.28486  0.38296  0.61878  1.0000
  H   H1185     1.0  0.24515  0.41297  0.63618  1.0000
  H   H1186     1.0  0.31311  0.38355  0.62007  1.0000
  H   H1187     1.0  0.28944  0.37122  0.61153  1.0000
  C   C1496     1.0  0.25466  0.30304  0.52434  1.0000
  C   C1497     1.0  0.19587  0.31132  0.92598  1.0000
  C   C1498     1.0  0.20748  0.24260  0.52498  1.0000
  C   C1499     1.0  0.26732  0.15903  0.88244  1.0000
  C   C1500     1.0  0.21449  0.29608  0.50273  1.0000
  H   H1188     1.0  0.24040  0.44373  0.58917  1.0000
  C   C1501     1.0  0.38084  0.27906  0.85110  1.0000
  C   C1502     1.0  0.21785  0.44744  0.63425  1.0000
  C   C1503     1.0  0.35453  0.34955  0.61989  1.0000
  H   H1189     1.0  0.34130  0.33439  0.49244  1.0000
  C   C1504     1.0  0.28140  0.45380  0.55348  1.0000
  H   H1190     1.0  0.24032  0.24396  0.49405  1.0000
  H   H1191     1.0  0.22153  0.10441  0.80859  1.0000
  H   H1192     1.0  0.27967  0.23876  0.96188  1.0000
  C   C1505     1.0  0.35711  0.40708  0.64348  1.0000
  C   C1506     1.0  0.35871  0.41434  0.62397  1.0000
  H   H1193     1.0  0.32059  0.47920  0.62330  1.0000
  H   H1194     1.0  0.20960  0.18993  0.73865  1.0000
  H   H1195     1.0  0.35243  0.40828  0.61599  1.0000
  C   C1507     1.0  0.21714  0.14117  0.67353  1.0000
  H   H1196     1.0  0.29780  0.28312  0.63044  1.0000
  H   H1197     1.0  0.20401  0.35102  0.93764  1.0000
  C   C1508     1.0  0.27122  0.36679  0.67431  1.0000
  C   C1509     1.0  0.28405  0.30889  0.52713  1.0000
  P   P47       1.0  0.22789  0.22836  0.53448  1.0000
  H   H1198     1.0  0.25155  0.18956  0.53323  1.0000
  C   C1510     1.0  0.27706  0.17286  0.97065  1.0000
  C   C1511     1.0  0.33201  0.33919  0.48242  1.0000
  C   C1512     1.0  0.19383  0.44794  0.74177  1.0000
  C   C1513     1.0  0.36956  0.13859  0.77836  1.0000
  H   H1199     1.0  0.26238  0.38609  0.69343  1.0000
  C   C1514     1.0  0.26510  0.30782  0.53470  1.0000
  H   H1200     1.0  0.32471  0.35449  0.59056  1.0000
  H   H1201     1.0  0.23306  0.26257  0.58062  1.0000
  H   H1202     1.0  0.27865  0.42543  0.59794  1.0000
  H   H1203     1.0  0.26879  0.42462  0.64560  1.0000
  S   S256      1.0  0.36599  0.36387  0.62659  1.0000
  H   H1204     1.0  0.20240  0.24197  0.88012  1.0000
  Fe  Fe135     1.0  0.25869  0.22523  0.94416  1.0000
  H   H1205     1.0  0.21254  0.03527  0.83414  1.0000
  H   H1206     1.0  0.21406  0.35686  0.80104  1.0000
  C   C1515     1.0  0.30479  0.47422  0.73105  1.0000
  H   H1207     1.0  0.23979  0.36728  0.71636  1.0000
  C   C1516     1.0  0.30042  0.45629  0.60233  1.0000
  C   C1517     1.0  0.22281  0.23355  0.78884  1.0000
  C   C1518     1.0  0.19677  0.29991  0.57149  1.0000
  H   H1208     1.0  0.23500  0.43317  0.75778  1.0000
  H   H1209     1.0  0.20982  0.28024  0.61413  1.0000
  Fe  Fe136     1.0  0.25845  0.99483  0.79388  1.0000
  S   S257      1.0  0.37955  0.20905  0.77814  1.0000
  C   C1519     1.0  0.32337  0.99698  0.82212  1.0000
  H   H1210     1.0  0.29283  0.99988  0.82884  1.0000
  C   C1520     1.0  0.24948  0.35323  0.52463  1.0000
  H   H1211     1.0  0.20488  0.01333  0.67146  1.0000
  C   C1521     1.0  0.19199  0.99862  0.62996  1.0000
  H   H1212     1.0  0.31975  0.24355  0.73693  1.0000
  H   H1213     1.0  0.35697  0.17893  0.76378  1.0000
  H   H1214     1.0  0.27660  0.21840  0.77889  1.0000
  H   H1215     1.0  0.32616  0.28208  0.64214  1.0000
  S   S258      1.0  0.28222  0.36166  0.52776  1.0000
  C   C1522     1.0  0.33074  0.25328  0.48532  1.0000
  C   C1523     1.0  0.37280  0.36626  0.55180  1.0000
  H   H1216     1.0  0.23438  0.38575  0.66008  1.0000
  C   C1524     1.0  0.20465  0.22384  0.65114  1.0000
  H   H1217     1.0  0.26285  0.17717  0.94770  1.0000
  H   H1218     1.0  0.30245  0.44230  0.59938  1.0000
  C   C1525     1.0  0.23050  0.24849  0.55993  1.0000
  H   H1219     1.0  0.26963  0.14274  0.94731  1.0000
  H   H1220     1.0  0.21370  0.38998  0.80309  1.0000
  H   H1221     1.0  0.19874  0.31750  0.51840  1.0000
  H   H1222     1.0  0.35840  0.14865  0.75256  1.0000
  H   H1223     1.0  0.22106  0.05998  0.69931  1.0000
  C   C1526     1.0  0.32039  0.34311  0.67093  1.0000
  C   C1527     1.0  0.32185  0.36231  0.66424  1.0000
  C   C1528     1.0  0.31783  0.37424  0.67702  1.0000
  C   C1529     1.0  0.31225  0.36710  0.69646  1.0000
  C   C1530     1.0  0.31035  0.34794  0.70336  1.0000
  C   C1531     1.0  0.31483  0.33589  0.69044  1.0000
  P   P48       1.0  0.30488  0.33815  0.72867  1.0000
  C   C1532     1.0  0.28721  0.32376  0.73378  1.0000
  C   C1533     1.0  0.32617  0.32263  0.73553  1.0000
  C   C1534     1.0  0.32494  0.30833  0.75232  1.0000
  C   C1535     1.0  0.34128  0.29543  0.75699  1.0000
  C   C1536     1.0  0.35887  0.29668  0.74490  1.0000
  C   C1537     1.0  0.36027  0.31111  0.72845  1.0000
  C   C1538     1.0  0.34402  0.32418  0.72384  1.0000
  C   C1539     1.0  0.29265  0.30491  0.73086  1.0000
  C   C1540     1.0  0.27927  0.29337  0.73558  1.0000
  C   C1541     1.0  0.26038  0.30048  0.74333  1.0000
  C   C1542     1.0  0.25479  0.31922  0.74616  1.0000
  C   C1543     1.0  0.26812  0.33081  0.74143  1.0000
  C   C1544     1.0  0.29606  0.35711  0.74183  1.0000
  C   C1545     1.0  0.30302  0.35617  0.75787  1.0000
  C   C1546     1.0  0.29614  0.37091  0.76791  1.0000
  C   C1547     1.0  0.28245  0.38678  0.76190  1.0000
  C   C1548     1.0  0.27541  0.38783  0.74600  1.0000
  C   C1549     1.0  0.28209  0.37303  0.73607  1.0000
  H   H1224     1.0  0.32396  0.33384  0.66093  1.0000
  H   H1225     1.0  0.32639  0.36794  0.64918  1.0000
  H   H1226     1.0  0.31933  0.38901  0.67189  1.0000
  H   H1227     1.0  0.30992  0.37655  0.70598  1.0000
  H   H1228     1.0  0.31466  0.32083  0.69543  1.0000
  H   H1229     1.0  0.31137  0.30703  0.76171  1.0000
  H   H1230     1.0  0.34033  0.28426  0.76984  1.0000
  H   H1231     1.0  0.23757  0.32903  0.94678  1.0000
  H   H1232     1.0  0.37400  0.31217  0.71923  1.0000
  H   H1233     1.0  0.34554  0.33538  0.71109  1.0000
  H   H1234     1.0  0.30733  0.29894  0.72531  1.0000
  H   H1235     1.0  0.24013  0.32474  0.75215  1.0000
  H   H1236     1.0  0.26340  0.34515  0.74400  1.0000
  H   H1237     1.0  0.31401  0.34433  0.76250  1.0000
  H   H1238     1.0  0.30186  0.37031  0.78001  1.0000
  H   H1239     1.0  0.27766  0.39855  0.76922  1.0000
  H   H1240     1.0  0.26520  0.40043  0.74106  1.0000
  H   H1241     1.0  0.27667  0.37422  0.72363  1.0000
  C   C1550     1.0  0.22090  0.44782  0.71540  1.0000
  H   H1242     1.0  0.28699  0.40027  0.48162  1.0000
  C   C1551     1.0  0.31036  0.29616  0.66501  1.0000
  C   C1552     1.0  0.29242  0.30483  0.67386  1.0000
  H   H1243     1.0  0.20494  0.17267  0.60029  1.0000
  H   H1244     1.0  0.32285  0.29581  0.66999  1.0000
  H   H1245     1.0  0.29110  0.31100  0.68585  1.0000
  H   H1246     1.0  0.22468  0.34545  0.52172  1.0000
  C   C1553     1.0  0.31938  0.18409  0.96448  1.0000
  H   H1247     1.0  0.31859  0.47456  0.72187  1.0000
  C   C1554     1.0  0.36497  0.41477  0.65404  1.0000
  C   C1555     1.0  0.19619  0.09521  0.82593  1.0000
  C   C1556     1.0  0.21626  0.31524  0.64761  1.0000
  H   H1248     1.0  0.21406  0.43330  0.61417  1.0000
  C   C1557     1.0  0.23540  0.22509  0.65504  1.0000
  H   H1249     1.0  0.28609  0.03357  0.83167  1.0000
  H   H1250     1.0  0.35507  0.18380  0.85584  1.0000
  C   C1558     1.0  0.28583  0.19172  0.84191  1.0000
  C   C1559     1.0  0.29750  0.19689  0.85069  1.0000
  C   C1560     1.0  0.30028  0.21569  0.84580  1.0000
  C   C1561     1.0  0.29088  0.22949  0.83258  1.0000
  C   C1562     1.0  0.27846  0.22453  0.82434  1.0000
  C   C1563     1.0  0.27667  0.20534  0.82849  1.0000
  P   P49       1.0  0.26642  0.24220  0.80718  1.0000
  C   C1564     1.0  0.24500  0.23569  0.80650  1.0000
  C   C1565     1.0  0.25880  0.26531  0.81355  1.0000
  C   C1566     1.0  0.25433  0.26664  0.83269  1.0000
  C   C1567     1.0  0.24783  0.28458  0.83755  1.0000
  C   C1568     1.0  0.24571  0.30128  0.82341  1.0000
  C   C1569     1.0  0.24987  0.30007  0.80434  1.0000
  C   C1570     1.0  0.25619  0.28214  0.79944  1.0000
  C   C1571     1.0  0.23419  0.34281  0.65044  1.0000
  C   C1572     1.0  0.24929  0.31677  0.94649  1.0000
  C   C1573     1.0  0.20938  0.18302  0.58756  1.0000
  C   C1574     1.0  0.28303  0.24291  0.78474  1.0000
  C   C1575     1.0  0.28481  0.22956  0.77379  1.0000
  C   C1576     1.0  0.29765  0.23014  0.75635  1.0000
  C   C1577     1.0  0.30931  0.24353  0.75012  1.0000
  C   C1578     1.0  0.30810  0.25638  0.76130  1.0000
  C   C1579     1.0  0.29513  0.25600  0.77862  1.0000
  H   H1251     1.0  0.28420  0.17701  0.84523  1.0000
  H   H1252     1.0  0.30471  0.18612  0.86091  1.0000
  H   H1253     1.0  0.30990  0.21945  0.85210  1.0000
  H   H1254     1.0  0.29337  0.24394  0.82880  1.0000
  H   H1255     1.0  0.26824  0.20072  0.82148  1.0000
  H   H1256     1.0  0.27858  0.46858  0.54594  1.0000
  H   H1257     1.0  0.24421  0.28550  0.85236  1.0000
  H   H1258     1.0  0.24073  0.31512  0.82731  1.0000
  H   H1259     1.0  0.24817  0.31303  0.79339  1.0000
  H   H1260     1.0  0.25907  0.28140  0.78465  1.0000
  H   H1261     1.0  0.20787  0.22237  0.50852  1.0000
  C   C1580     1.0  0.26144  0.35549  0.48538  1.0000
  H   H1262     1.0  0.23831  0.22390  0.83680  1.0000
  C   C1581     1.0  0.24817  0.45915  0.60594  1.0000
  H   H1263     1.0  0.24490  0.35205  0.53980  1.0000
  C   C1582     1.0  0.27294  0.29439  0.92959  1.0000
  H   H1264     1.0  0.31768  0.26625  0.75678  1.0000
  H   H1265     1.0  0.29495  0.26556  0.78742  1.0000
  C   C1583     1.0  0.23893  0.24281  0.54260  1.0000
  C   C1584     1.0  0.23960  0.25827  0.56724  1.0000
  C   C1585     1.0  0.25716  0.26249  0.55739  1.0000
  C   C1586     1.0  0.26562  0.25699  0.54008  1.0000
  C   C1587     1.0  0.25653  0.24727  0.53264  1.0000
  H   H1266     1.0  0.26405  0.27021  0.56311  1.0000
  H   H1267     1.0  0.27913  0.26050  0.53235  1.0000
  H   H1268     1.0  0.26340  0.24313  0.51926  1.0000
  C   C1588     1.0  0.31225  0.28830  0.64940  1.0000
  C   C1589     1.0  0.27268  0.35962  0.49558  1.0000
  C   C1590     1.0  0.35891  0.47367  0.64732  1.0000
  C   C1591     1.0  0.21387  0.27287  0.96704  1.0000
  C   C1592     1.0  0.21714  0.08020  0.80090  1.0000
  C   C1593     1.0  0.28361  0.45673  0.75580  1.0000
  C   C1594     1.0  0.30150  0.45739  0.74417  1.0000
  H   H1269     1.0  0.19697  0.07120  0.61971  1.0000
  H   H1270     1.0  0.24350  0.26973  0.96589  1.0000
  H   H1271     1.0  0.24672  0.20438  0.56507  1.0000
  C   C1595     1.0  0.20064  0.99366  0.86122  1.0000
  H   H1272     1.0  0.28102  0.37508  0.66429  1.0000
  H   H1273     1.0  0.24354  0.06729  0.63935  1.0000
  C   C1596     1.0  0.27827  0.29732  0.65176  1.0000
  H   H1274     1.0  0.25553  0.25386  0.84396  1.0000
  H   H1275     1.0  0.28100  0.44349  0.76559  1.0000
  H   H1276     1.0  0.31275  0.44474  0.74519  1.0000
  C   C1597     1.0  0.20448  0.25947  0.92341  1.0000
  H   H1277     1.0  0.24217  0.02379  0.61419  1.0000
  H   H1278     1.0  0.20828  0.37729  0.95000  1.0000
  C   C1598     1.0  0.25526  0.15852  0.87101  1.0000
  C   C1599     1.0  0.36140  0.44035  0.69467  1.0000
  C   C1600     1.0  0.28446  0.13387  0.97051  1.0000
  C   C1601     1.0  0.20958  0.28940  0.60017  1.0000
  H   H1279     1.0  0.19048  0.07432  0.65321  1.0000
  H   H1280     1.0  0.21558  0.31986  0.70248  1.0000
  C   C1602     1.0  0.34329  0.35824  0.60632  1.0000
  C   C1603     1.0  0.19972  0.32671  0.89262  1.0000
  H   H1281     1.0  0.36342  0.40897  0.66914  1.0000
  C   C1604     1.0  0.20593  0.44165  0.75466  1.0000
  H   H1282     1.0  0.25680  0.14566  0.86602  1.0000
  H   H1283     1.0  0.25203  0.01102  0.67532  1.0000
  H   H1284     1.0  0.27359  0.01095  0.69867  1.0000
  S   S259      1.0  0.22862  0.26327  0.88860  1.0000
  C   C1605     1.0  0.29298  0.30474  0.50924  1.0000
  H   H1285     1.0  0.25660  0.03226  0.64339  1.0000
  H   H1286     1.0  0.30110  0.99758  0.76243  1.0000
  C   C1606     1.0  0.30061  0.02602  0.82814  1.0000
  H   H1287     1.0  0.20717  0.03907  0.61196  1.0000
  C   C1607     1.0  0.23884  0.23967  0.78935  1.0000
  C   C1608     1.0  0.27367  0.28766  0.87055  1.0000
  C   C1609     1.0  0.28770  0.29675  0.85799  1.0000
  C   C1610     1.0  0.29010  0.31398  0.86045  1.0000
  C   C1611     1.0  0.27844  0.32217  0.87547  1.0000
  C   C1612     1.0  0.26416  0.31320  0.88803  1.0000
  C   C1613     1.0  0.26185  0.29591  0.88542  1.0000
  P   P50       1.0  0.24930  0.32285  0.90803  1.0000
  C   C1614     1.0  0.25756  0.31013  0.92963  1.0000
  C   C1615     1.0  0.24986  0.34778  0.90525  1.0000
  C   C1616     1.0  0.26566  0.35242  0.90844  1.0000
  C   C1617     1.0  0.26604  0.37151  0.90726  1.0000
  C   C1618     1.0  0.25061  0.38612  0.90301  1.0000
  C   C1619     1.0  0.23479  0.38166  0.89991  1.0000
  C   C1620     1.0  0.23438  0.36260  0.90101  1.0000
  H   H1288     1.0  0.31957  0.48396  0.68424  1.0000
  C   C1621     1.0  0.26917  0.20195  0.48584  1.0000
  C   C1622     1.0  0.36846  0.18266  0.75224  1.0000
  C   C1623     1.0  0.26115  0.00784  0.59422  1.0000
  C   C1624     1.0  0.20400  0.02577  0.65989  1.0000
  C   C1625     1.0  0.22557  0.32075  0.90889  1.0000
  C   C1626     1.0  0.21825  0.32751  0.89224  1.0000
  H   H1289     1.0  0.19230  0.18650  0.89098  1.0000
  H   H1290     1.0  0.31738  0.17301  0.95867  1.0000
  H   H1291     1.0  0.37987  0.39581  0.77197  1.0000
  C   C1627     1.0  0.21433  0.31242  0.92575  1.0000
  H   H1292     1.0  0.27208  0.27407  0.86896  1.0000
  H   H1293     1.0  0.29702  0.29018  0.84662  1.0000
  H   H1294     1.0  0.30130  0.32073  0.85091  1.0000
  H   H1295     1.0  0.28069  0.33537  0.87723  1.0000
  H   H1296     1.0  0.25101  0.28866  0.89500  1.0000
  H   H1297     1.0  0.38967  0.39172  0.71836  1.0000
  H   H1298     1.0  0.25172  0.47307  0.62651  1.0000
  H   H1299     1.0  0.25084  0.40090  0.90223  1.0000
  H   H1300     1.0  0.22269  0.39295  0.89684  1.0000
  H   H1301     1.0  0.22177  0.35967  0.89886  1.0000
  H   H1302     1.0  0.19989  0.40211  0.75855  1.0000
  H   H1303     1.0  0.19320  0.22010  0.71046  1.0000
  H   H1304     1.0  0.27333  0.17574  0.50696  1.0000
  P   P51       1.0  0.21352  0.00041  0.63551  1.0000
  H   H1305     1.0  0.27987  0.28905  0.91680  1.0000
  H   H1306     1.0  0.22675  0.33381  0.87904  1.0000
  C   C1628     1.0  0.34022  0.13287  0.77483  1.0000
  C   C1629     1.0  0.21265  0.22379  0.80548  1.0000
  P   P52       1.0  0.38465  0.44001  0.65865  1.0000
  H   H1307     1.0  0.30645  0.99966  0.79267  1.0000
  C   C1630     1.0  0.35411  0.19107  0.86697  1.0000
  H   H1308     1.0  0.24147  0.35354  0.65070  1.0000
  S   S260      1.0  0.19555  0.09822  0.73640  1.0000
  C   C1631     1.0  0.33725  0.19374  0.88045  1.0000
  C   C1632     1.0  0.27058  0.16677  0.95779  1.0000
  C   C1633     1.0  0.27438  0.14731  0.95761  1.0000
  H   H1309     1.0  0.27824  0.14662  0.88601  1.0000
  P   P53       1.0  0.26740  0.46700  0.58750  1.0000
  C   C1634     1.0  0.38502  0.24071  0.87100  1.0000
  C   C1635     1.0  0.23721  0.44809  0.60259  1.0000
  H   H1310     1.0  0.32526  0.18840  0.87991  1.0000
  C   C1636     1.0  0.22863  0.45850  0.63767  1.0000
  S   S261      1.0  0.22966  0.99067  0.81067  1.0000
  C   C1637     1.0  0.24364  0.30174  0.69925  1.0000
  C   C1638     1.0  0.37534  0.27475  0.87090  1.0000
  C   C1639     1.0  0.24805  0.36232  0.70369  1.0000
  H   H1311     1.0  0.28737  0.11878  0.97032  1.0000
  C   C1640     1.0  0.36544  0.20021  0.73934  1.0000
  C   C1641     1.0  0.23421  0.22667  0.82327  1.0000
  H   H1312     1.0  0.27421  0.18803  0.97048  1.0000
  C   C1642     1.0  0.26697  0.35802  0.51526  1.0000
  C   C1643     1.0  0.25628  0.33923  0.68347  1.0000
  C   C1644     1.0  0.22209  0.44230  0.61668  1.0000
  H   H1313     1.0  0.27698  0.34586  0.65744  1.0000
  C   C1645     1.0  0.21826  0.22056  0.82268  1.0000
  H   H1314     1.0  0.21448  0.13987  0.66041  1.0000
  H   H1315     1.0  0.26613  0.29770  0.64624  1.0000
  C   C1646     1.0  0.26076  0.37294  0.69081  1.0000
  C   C1647     1.0  0.19991  0.21123  0.92719  1.0000
  C   C1648     1.0  0.20077  0.38448  0.80765  1.0000
  C   C1649     1.0  0.20424  0.41628  0.68692  1.0000
  H   H1316     1.0  0.34910  0.21970  0.90513  1.0000
  C   C1650     1.0  0.27136  0.29194  0.96299  1.0000
  C   C1651     1.0  0.31535  0.03556  0.82484  1.0000
  C   C1652     1.0  0.33413  0.02588  0.82022  1.0000
  H   H1317     1.0  0.37142  0.32521  0.75892  1.0000
  H   H1318     1.0  0.35914  0.32347  0.56959  1.0000
  C   C1653     1.0  0.28844  0.43943  0.54297  1.0000
  H   H1319     1.0  0.21969  0.30672  0.93867  1.0000
  P   P54       1.0  0.21452  0.18436  0.69962  1.0000
  H   H1320     1.0  0.29903  0.21972  0.74803  1.0000
  P   P55       1.0  0.25338  0.31781  0.67814  1.0000
  C   C1654     1.0  0.21240  0.09435  0.81146  1.0000
  H   H1321     1.0  0.23367  0.41367  0.67305  1.0000
  C   C1655     1.0  0.19929  0.05851  0.63084  1.0000
  C   C1656     1.0  0.20935  0.19240  0.92633  1.0000
  C   C1657     1.0  0.20299  0.20941  0.66762  1.0000
  C   C1658     1.0  0.24585  0.34548  0.70010  1.0000
  C   C1659     1.0  0.19795  0.04394  0.66417  1.0000
  C   C1660     1.0  0.38780  0.26427  0.84120  1.0000
  H   H1322     1.0  0.31212  0.05049  0.82578  1.0000
  H   H1323     1.0  0.34555  0.03335  0.81757  1.0000
  H   H1324     1.0  0.35279  0.99949  0.81524  1.0000
  C   C1661     1.0  0.22101  0.40791  0.67593  1.0000
  C   C1662     1.0  0.22724  0.18742  0.58388  1.0000
  C   C1663     1.0  0.31030  0.98576  0.76996  1.0000
  H   H1325     1.0  0.21038  0.17179  0.66658  1.0000
  C   C1664     1.0  0.19159  0.99661  0.61188  1.0000
  C   C1665     1.0  0.23378  0.21059  0.67156  1.0000
  H   H1326     1.0  0.21423  0.16927  0.91211  1.0000
  C   C1666     1.0  0.38205  0.40553  0.71183  1.0000
  C   C1667     1.0  0.36954  0.19804  0.86765  1.0000
  C   C1668     1.0  0.20519  0.04032  0.62651  1.0000
  C   C1669     1.0  0.31341  0.45940  0.61112  1.0000
  H   H1327     1.0  0.19387  0.33260  0.87994  1.0000
  H   H1328     1.0  0.24507  0.20595  0.67933  1.0000
  H   H1329     1.0  0.19855  0.40826  0.72491  1.0000
  H   H1330     1.0  0.34076  0.22241  0.95027  1.0000
  H   H1331     1.0  0.21924  0.18474  0.93551  1.0000
  C   C1670     1.0  0.20130  0.45112  0.72218  1.0000
  H   H1332     1.0  0.23218  0.18460  0.75908  1.0000
  C   C1671     1.0  0.23101  0.18211  0.71443  1.0000
  H   H1333     1.0  0.22985  0.07943  0.78987  1.0000
  H   H1334     1.0  0.20979  0.05568  0.79687  1.0000
  C   C1672     1.0  0.19408  0.36467  0.93634  1.0000
  C   C1673     1.0  0.22086  0.23169  0.64484  1.0000
  S   S262      1.0  0.19674  0.43784  0.77923  1.0000
  H   H1335     1.0  0.21692  0.24525  0.56790  1.0000
  H   H1336     1.0  0.32437  0.11697  0.79965  1.0000
  C   C1674     1.0  0.24459  0.04271  0.72776  1.0000
  C   C1675     1.0  0.33006  0.19734  0.95261  1.0000
  H   H1337     1.0  0.34214  0.37337  0.59998  1.0000
  C   C1676     1.0  0.38467  0.31988  0.76380  1.0000
  P   P56       1.0  0.31767  0.30574  0.49932  1.0000
  H   H1338     1.0  0.36777  0.38076  0.54445  1.0000
  C   C1677     1.0  0.32940  0.30311  0.51858  1.0000
  C   C1678     1.0  0.34149  0.28578  0.52496  1.0000
  C   C1679     1.0  0.34894  0.28333  0.54101  1.0000
  C   C1680     1.0  0.34445  0.29812  0.55080  1.0000
  C   C1681     1.0  0.33292  0.31559  0.54424  1.0000
  C   C1682     1.0  0.32556  0.31814  0.52813  1.0000
  C   C1683     1.0  0.32459  0.26792  0.49549  1.0000
  H   H1339     1.0  0.33578  0.19660  0.93786  1.0000
  C   C1684     1.0  0.25614  0.30766  0.96311  1.0000
  C   C1685     1.0  0.29623  0.28882  0.64284  1.0000
  C   C1686     1.0  0.35640  0.14070  0.76714  1.0000
  S   S263      1.0  0.22994  0.45174  0.69085  1.0000
  H   H1340     1.0  0.34496  0.27400  0.51786  1.0000
  H   H1341     1.0  0.35790  0.26979  0.54615  1.0000
  H   H1342     1.0  0.34961  0.29598  0.56366  1.0000
  H   H1343     1.0  0.32915  0.32695  0.55203  1.0000
  H   H1344     1.0  0.26934  0.27965  0.69957  1.0000
  H   H1345     1.0  0.31720  0.26486  0.51018  1.0000
  C   C1687     1.0  0.20089  0.36594  0.80638  1.0000
  H   H1346     1.0  0.37145  0.28641  0.74819  1.0000
  C   C1688     1.0  0.31091  0.47702  0.61589  1.0000
  C   C1689     1.0  0.36696  0.12728  0.79689  1.0000
  H   H1347     1.0  0.29140  0.31328  0.53526  1.0000
  H   H1348     1.0  0.28364  0.27879  0.73347  1.0000
  H   H1349     1.0  0.32825  0.23901  0.49219  1.0000
  C   C1690     1.0  0.36157  0.35261  0.55624  1.0000
  H   H1350     1.0  0.34777  0.35653  0.55254  1.0000
  H   H1351     1.0  0.22111  0.26562  0.74216  1.0000
  H   H1352     1.0  0.24659  0.24713  0.77633  1.0000
  C   C1691     1.0  0.33816  0.00665  0.81889  1.0000
  C   C1692     1.0  0.38229  0.27946  0.69019  1.0000
  C   C1693     1.0  0.37622  0.43700  0.62545  1.0000
  C   C1694     1.0  0.23709  0.32441  0.66222  1.0000
  C   C1695     1.0  0.21484  0.15933  0.67713  1.0000
  S   S264      1.0  0.27620  0.45954  0.65493  1.0000
  H   H1353     1.0  0.22052  0.36141  0.62807  1.0000
  C   C1696     1.0  0.19974  0.26504  0.83474  1.0000
  H   H1354     1.0  0.22938  0.11356  0.71464  1.0000
  C   C1697     1.0  0.22558  0.12635  0.70404  1.0000
  C   C1698     1.0  0.22244  0.12469  0.68700  1.0000
  C   C1699     1.0  0.22558  0.43810  0.74787  1.0000
  H   H1355     1.0  0.37795  0.29262  0.77929  1.0000
  H   H1356     1.0  0.20897  0.32177  0.54993  1.0000
  S   S265      1.0  0.37945  0.35211  0.71643  1.0000
  C   C1700     1.0  0.25664  0.17557  0.73828  1.0000
  C   C1701     1.0  0.26317  0.17184  0.72004  1.0000
  C   C1702     1.0  0.25042  0.17497  0.70820  1.0000
  H   H1357     1.0  0.32232  0.20676  0.90411  1.0000
  C   C1703     1.0  0.24754  0.22910  0.49713  1.0000
  S   S266      1.0  0.27630  0.46237  0.69813  1.0000
  C   C1704     1.0  0.33725  0.12248  0.79358  1.0000
  H   H1358     1.0  0.25560  0.17136  0.69436  1.0000
  C   C1705     1.0  0.24534  0.05088  0.74231  1.0000
  H   H1359     1.0  0.37609  0.18820  0.95281  1.0000
  C   C1706     1.0  0.26340  0.29870  0.50663  1.0000
  C   C1707     1.0  0.28851  0.41522  0.57209  1.0000
  Fe  Fe137     1.0  0.29300  0.47088  0.66866  1.0000
  C   C1708     1.0  0.30453  0.00687  0.82667  1.0000
  H   H1360     1.0  0.35296  0.45364  0.68827  1.0000
  C   C1709     1.0  0.19685  0.28840  0.58972  1.0000
  H   H1361     1.0  0.22378  0.11063  0.68442  1.0000
  H   H1362     1.0  0.29098  0.44324  0.52760  1.0000
  C   C1710     1.0  0.20792  0.02383  0.64097  1.0000
  S   S267      1.0  0.22973  0.34521  0.48236  1.0000
  H   H1363     1.0  0.21844  0.23598  0.77552  1.0000
  H   H1364     1.0  0.26643  0.17264  0.74770  1.0000
  H   H1365     1.0  0.27808  0.16605  0.71531  1.0000
  C   C1711     1.0  0.22141  0.39225  0.66864  1.0000
  H   H1366     1.0  0.27764  0.34122  0.91201  1.0000
  C   C1712     1.0  0.25072  0.99719  0.71609  1.0000
  H   H1367     1.0  0.20154  0.29712  0.73005  1.0000
  C   C1713     1.0  0.38273  0.19846  0.94144  1.0000
  H   H1368     1.0  0.37808  0.21962  0.71520  1.0000
  C   C1714     1.0  0.20085  0.23592  0.51252  1.0000
  C   C1715     1.0  0.20013  0.31200  0.50596  1.0000
  C   C1716     1.0  0.28251  0.29940  0.49915  1.0000
  H   H1369     1.0  0.19187  0.45614  0.71230  1.0000
  H   H1370     1.0  0.20992  0.30438  0.64588  1.0000
  C   C1717     1.0  0.35094  0.21110  0.89485  1.0000
  C   C1718     1.0  0.29192  0.42014  0.55228  1.0000
  H   H1371     1.0  0.25528  0.29501  0.49861  1.0000
  C   C1719     1.0  0.22073  0.02597  0.74919  1.0000
  H   H1372     1.0  0.32964  0.13527  0.76642  1.0000
  C   C1720     1.0  0.22231  0.34736  0.63747  1.0000
  C   C1721     1.0  0.21793  0.16111  0.69429  1.0000
  H   H1373     1.0  0.22493  0.14532  0.72148  1.0000
  C   C1722     1.0  0.26896  0.35010  0.67057  1.0000
  C   C1723     1.0  0.20380  0.02477  0.84094  1.0000
  C   C1724     1.0  0.26912  0.47311  0.75478  1.0000
  H   H1374     1.0  0.36938  0.43498  0.59981  1.0000
  C   C1725     1.0  0.35608  0.43295  0.71413  1.0000
  H   H1375     1.0  0.28601  0.36371  0.48833  1.0000
  H   H1376     1.0  0.22208  0.24297  0.63210  1.0000
  C   C1726     1.0  0.27629  0.30578  0.66708  1.0000
  C   C1727     1.0  0.37707  0.25563  0.88081  1.0000
  C   C1728     1.0  0.23800  0.34958  0.51436  1.0000
  H   H1377     1.0  0.20675  0.27467  0.82298  1.0000
  H   H1378     1.0  0.23979  0.30282  0.53004  1.0000
  H   H1379     1.0  0.25009  0.29145  0.74728  1.0000
  H   H1380     1.0  0.25546  0.47237  0.76419  1.0000
  C   C1729     1.0  0.36825  0.42932  0.61493  1.0000
  C   C1730     1.0  0.22933  0.05382  0.68729  1.0000
  C   C1731     1.0  0.20852  0.99654  0.71009  1.0000
  H   H1381     1.0  0.34358  0.44037  0.72246  1.0000
  C   C1732     1.0  0.21758  0.20253  0.67791  1.0000
  C   C1733     1.0  0.35070  0.11954  0.80456  1.0000
  C   C1734     1.0  0.22166  0.03401  0.76376  1.0000
  C   C1735     1.0  0.37465  0.42974  0.64511  1.0000
  H   H1382     1.0  0.20536  0.37298  0.66647  1.0000
  H   H1383     1.0  0.23655  0.18051  0.59379  1.0000
  C   C1736     1.0  0.20910  0.31274  0.56397  1.0000
  C   C1737     1.0  0.23736  0.18245  0.74466  1.0000
  H   H1384     1.0  0.23516  0.05231  0.77163  1.0000
  H   H1385     1.0  0.28907  0.29593  0.48542  1.0000
  H   H1386     1.0  0.19433  0.04537  0.67884  1.0000
  C   C1738     1.0  0.20506  0.38499  0.67230  1.0000
  C   C1739     1.0  0.26577  0.99106  0.58729  1.0000
  C   C1740     1.0  0.38636  0.17039  0.75065  1.0000
  H   H1387     1.0  0.20493  0.33683  0.62535  1.0000
  C   C1741     1.0  0.22455  0.18559  0.73289  1.0000
  C   C1742     1.0  0.25462  0.28384  0.70619  1.0000
  H   H1388     1.0  0.29148  0.27304  0.94610  1.0000
  C   C1743     1.0  0.22804  0.31064  0.66066  1.0000
  H   H1389     1.0  0.32507  0.44785  0.61486  1.0000
  H   H1390     1.0  0.34975  0.39542  0.65036  1.0000
  C   C1744     1.0  0.37579  0.46572  0.65411  1.0000
  C   C1745     1.0  0.38851  0.30141  0.77497  1.0000
  H   H1391     1.0  0.27825  0.37496  0.90982  1.0000
  C   C1746     1.0  0.36651  0.41566  0.72273  1.0000
  H   H1392     1.0  0.35167  0.20983  0.74096  1.0000
  C   C1747     1.0  0.23210  0.03038  0.73106  1.0000
  C   C1748     1.0  0.20647  0.26699  0.90387  1.0000
  H   H1393     1.0  0.21666  0.25131  0.92928  1.0000
  H   H1394     1.0  0.21322  0.03013  0.77785  1.0000
  H   H1395     1.0  0.23052  0.29616  0.66908  1.0000
  H   H1396     1.0  0.29109  0.40030  0.57939  1.0000
  S   S268      1.0  0.38240  0.25283  0.77740  1.0000
  H   H1397     1.0  0.22550  0.46229  0.65139  1.0000
  Fe  Fe138     1.0  0.38567  0.35058  0.64706  1.0000
  C   C1749     1.0  0.23713  0.03406  0.68975  1.0000
  H   H1398     1.0  0.34834  0.11152  0.81913  1.0000
  H   H1399     1.0  0.21151  0.01597  0.75224  1.0000
  H   H1400     1.0  0.21615  0.27023  0.95296  1.0000
  H   H1401     1.0  0.19080  0.37063  0.49331  1.0000
  C   C1750     1.0  0.23361  0.99738  0.61616  1.0000
  C   C1751     1.0  0.23293  0.20093  0.56760  1.0000
  H   H1402     1.0  0.37401  0.19088  0.91976  1.0000
  H   H1403     1.0  0.19231  0.28293  0.88127  1.0000
  C   C1752     1.0  0.22742  0.27572  0.73030  1.0000
  H   H1404     1.0  0.36213  0.40977  0.73773  1.0000
  H   H1405     1.0  0.29708  0.40896  0.54420  1.0000
  C   C1753     1.0  0.27778  0.44891  0.57345  1.0000
  H   H1406     1.0  0.25513  0.06019  0.73990  1.0000
  C   C1754     1.0  0.23392  0.04651  0.76028  1.0000
  C   C1755     1.0  0.22313  0.14444  0.70781  1.0000
  H   H1407     1.0  0.27812  0.98865  0.57606  1.0000
  H   H1408     1.0  0.22568  0.08098  0.66740  1.0000
  C   C1756     1.0  0.26620  0.19068  0.50426  1.0000
  P   P57       1.0  0.23238  0.01853  0.71284  1.0000
  H   H1409     1.0  0.19357  0.03995  0.72258  1.0000
  C   C1757     1.0  0.24411  0.35036  0.49480  1.0000
  C   C1758     1.0  0.23184  0.06576  0.66918  1.0000
  C   C1759     1.0  0.24183  0.05803  0.65339  1.0000
  C   C1760     1.0  0.24918  0.03829  0.65567  1.0000
  C   C1761     1.0  0.24669  0.02632  0.67377  1.0000
  H   H1410     1.0  0.22794  0.27641  0.48417  1.0000
  H   H1411     1.0  0.22112  0.98621  0.70605  1.0000
  H   H1412     1.0  0.37199  0.25260  0.89605  1.0000
  C   C1762     1.0  0.24650  0.27090  0.72163  1.0000
  H   H1413     1.0  0.22364  0.28939  0.51278  1.0000
  C   C1763     1.0  0.21147  0.00762  0.85235  1.0000
  C   C1764     1.0  0.20643  0.18365  0.91324  1.0000
  H   H1414     1.0  0.22598  0.00491  0.85403  1.0000
  C   C1765     1.0  0.19648  0.37946  0.94325  1.0000
  C   C1766     1.0  0.26975  0.99781  0.70762  1.0000
  C   C1767     1.0  0.24365  0.46445  0.62355  1.0000
  H   H1415     1.0  0.19277  0.10608  0.83423  1.0000
  H   H1416     1.0  0.37151  0.15947  0.80488  1.0000
  H   H1417     1.0  0.37731  0.12468  0.80555  1.0000
  H   H1418     1.0  0.25499  0.25702  0.72676  1.0000
  H   H1419     1.0  0.36912  0.28621  0.87851  1.0000
  C   C1768     1.0  0.19393  0.19362  0.90114  1.0000
  C   C1769     1.0  0.19567  0.06031  0.64968  1.0000
  C   C1770     1.0  0.19757  0.25982  0.53048  1.0000
  H   H1420     1.0  0.20233  0.21815  0.93717  1.0000
  C   C1771     1.0  0.20291  0.20554  0.55862  1.0000
  C   C1772     1.0  0.37728  0.43047  0.68370  1.0000
  C   C1773     1.0  0.36800  0.33394  0.56582  1.0000
  C   C1774     1.0  0.21345  0.33356  0.63598  1.0000
  C   C1775     1.0  0.19062  0.27743  0.89639  1.0000
  C   C1776     1.0  0.31895  0.32844  0.48270  1.0000
  C   C1777     1.0  0.38622  0.16042  0.80205  1.0000
  H   H1421     1.0  0.20648  0.44252  0.64533  1.0000
  H   H1422     1.0  0.20423  0.99560  0.60085  1.0000
  C   C1778     1.0  0.22444  0.30639  0.70796  1.0000
  C   C1779     1.0  0.38139  0.20019  0.92269  1.0000
  H   H1423     1.0  0.26999  0.01840  0.58839  1.0000
  H   H1424     1.0  0.37892  0.29384  0.84334  1.0000
  C   C1780     1.0  0.24521  0.01094  0.60873  1.0000
  C   C1781     1.0  0.21642  0.29349  0.72350  1.0000
  H   H1425     1.0  0.20418  0.42837  0.69252  1.0000
  C   C1782     1.0  0.36826  0.20755  0.88203  1.0000
  C   C1783     1.0  0.20612  0.25882  0.85179  1.0000
  C   C1784     1.0  0.38036  0.20578  0.72488  1.0000
  H   H1426     1.0  0.19326  0.22899  0.64332  1.0000
  C   C1785     1.0  0.19094  0.99289  0.71076  1.0000
  P   P58       1.0  0.38825  0.21599  0.88362  1.0000
  C   C1786     1.0  0.38549  0.32895  0.57125  1.0000
  C   C1787     1.0  0.38737  0.41283  0.69236  1.0000
  C   C1788     1.0  0.19787  0.11488  0.74827  1.0000
  C   C1789     1.0  0.19720  0.24640  0.86705  1.0000
  C   C1790     1.0  0.19019  0.31288  0.47730  1.0000
  H   H1427     1.0  0.20054  0.21856  0.80510  1.0000
  C   C1791     1.0  0.19299  0.02662  0.71954  1.0000
  C   C1792     1.0  0.18996  0.37261  0.52160  1.0000
  C   C1793     1.0  0.20573  0.06685  0.80483  1.0000
  H   H1428     1.0  0.38349  0.44868  0.61833  1.0000
  H   H1429     1.0  0.38233  0.19618  0.85683  1.0000
  H   H1430     1.0  0.19901  0.38298  0.51689  1.0000
  H   H1431     1.0  0.19319  0.21251  0.54917  1.0000
  H   H1432     1.0  0.20208  0.26526  0.54025  1.0000
  H   H1433     1.0  0.38234  0.17145  0.82700  1.0000
  C   C1794     1.0  0.31329  0.98680  0.78734  1.0000
  C   C1795     1.0  0.19721  0.19211  0.57495  1.0000
  C   C1796     1.0  0.38968  0.21370  0.90792  1.0000
  C   C1797     1.0  0.19039  0.19137  0.71182  1.0000
  H   H1434     1.0  0.19026  0.20361  0.67239  1.0000
  C   C1798     1.0  0.22930  0.27274  0.97432  1.0000
  Fe  Fe139     1.0  0.27792  0.96531  0.19176  1.0000
  S   S269      1.0  0.35384  0.72641  0.36377  1.0000
  S   S270      1.0  0.36338  0.69899  0.32424  1.0000
  Fe  Fe140     1.0  0.28616  0.68726  0.44704  1.0000
  C   C1799     1.0  0.26004  0.73235  0.00152  1.0000
  S   S271      1.0  0.31762  0.67655  0.44094  1.0000
  Fe  Fe141     1.0  0.25219  0.71863  0.43829  1.0000
  H   H1435     1.0  0.33463  0.75609  0.41480  1.0000
  S   S272      1.0  0.24486  0.74875  0.42135  1.0000
  C   C1800     1.0  0.23498  0.50166  0.18897  1.0000
  C   C1801     1.0  0.25816  0.57403  0.23228  1.0000
  Fe  Fe142     1.0  0.25013  0.67681  0.44598  1.0000
  S   S273      1.0  0.24016  0.65410  0.43805  1.0000
  S   S274      1.0  0.27117  0.71332  0.45873  1.0000
  S   S275      1.0  0.26938  0.69443  0.42442  1.0000
  H   H1436     1.0  0.30971  0.95846  0.06667  1.0000
  Fe  Fe143     1.0  0.29207  0.62186  0.30646  1.0000
  S   S276      1.0  0.28050  0.60940  0.33701  1.0000
  S   S277      1.0  0.32113  0.62817  0.29259  1.0000
  Fe  Fe144     1.0  0.25423  0.62899  0.29451  1.0000
  S   S278      1.0  0.23915  0.61777  0.32415  1.0000
  S   S279      1.0  0.24401  0.64046  0.26678  1.0000
  Fe  Fe145     1.0  0.25544  0.63372  0.33393  1.0000
  S   S280      1.0  0.24369  0.65564  0.35242  1.0000
  Fe  Fe146     1.0  0.26536  0.59417  0.32493  1.0000
  S   S281      1.0  0.26137  0.56368  0.33805  1.0000
  S   S282      1.0  0.26803  0.64712  0.30410  1.0000
  S   S283      1.0  0.27930  0.60443  0.29465  1.0000
  S   S284      1.0  0.32218  0.84756  0.22703  1.0000
  S   S285      1.0  0.33689  0.88259  0.24881  1.0000
  H   H1437     1.0  0.26665  0.68977  0.07498  1.0000
  S   S286      1.0  0.30113  0.96468  0.20595  1.0000
  S   S287      1.0  0.26854  0.94011  0.18896  1.0000
  Fe  Fe147     1.0  0.25505  0.83238  0.12992  1.0000
  S   S288      1.0  0.26286  0.85543  0.10461  1.0000
  S   S289      1.0  0.27081  0.81729  0.15376  1.0000
  Fe  Fe148     1.0  0.21862  0.83281  0.11847  1.0000
  S   S290      1.0  0.22296  0.85640  0.09258  1.0000
  C   C1802     1.0  0.30594  0.76302  0.41145  1.0000
  Fe  Fe149     1.0  0.25310  0.83996  0.08777  1.0000
  S   S291      1.0  0.27076  0.83174  0.06016  1.0000
  Fe  Fe150     1.0  0.23223  0.86988  0.11146  1.0000
  S   S292      1.0  0.22126  0.90091  0.11386  1.0000
  S   S293      1.0  0.24809  0.81549  0.11269  1.0000
  S   S294      1.0  0.22497  0.84771  0.13777  1.0000
  H   H1438     1.0  0.20870  0.78708  0.32640  1.0000
  C   C1803     1.0  0.20562  0.80815  0.09347  1.0000
  C   C1804     1.0  0.24789  0.52628  0.12864  1.0000
  H   H1439     1.0  0.23328  0.75054  0.05845  1.0000
  H   H1440     1.0  0.27170  0.52925  0.10523  1.0000
  H   H1441     1.0  0.21534  0.81772  0.09003  1.0000
  S   S295      1.0  0.23145  0.70163  0.45851  1.0000
  C   C1805     1.0  0.26233  0.83798  0.03875  1.0000
  C   C1806     1.0  0.26244  0.60475  0.23470  1.0000
  C   C1807     1.0  0.24434  0.84930  0.03732  1.0000
  H   H1442     1.0  0.28508  0.54824  0.11927  1.0000
  H   H1443     1.0  0.23504  0.85423  0.04959  1.0000
  C   C1808     1.0  0.25904  0.92959  0.13203  1.0000
  C   C1809     1.0  0.23996  0.93820  0.13225  1.0000
  C   C1810     1.0  0.22846  0.92935  0.12659  1.0000
  C   C1811     1.0  0.23581  0.91159  0.12129  1.0000
  C   C1812     1.0  0.25474  0.90276  0.12166  1.0000
  C   C1813     1.0  0.26637  0.91190  0.12668  1.0000
  H   H1444     1.0  0.23425  0.95195  0.13618  1.0000
  H   H1445     1.0  0.21390  0.93639  0.12617  1.0000
  H   H1446     1.0  0.26051  0.88902  0.11784  1.0000
  H   H1447     1.0  0.28101  0.90512  0.12672  1.0000
  C   C1814     1.0  0.32620  0.90520  0.23725  1.0000
  C   C1815     1.0  0.31823  0.90710  0.22170  1.0000
  C   C1816     1.0  0.31014  0.92539  0.21226  1.0000
  C   C1817     1.0  0.31028  0.94171  0.21819  1.0000
  C   C1818     1.0  0.31814  0.93976  0.23383  1.0000
  C   C1819     1.0  0.32588  0.92150  0.24350  1.0000
  H   H1448     1.0  0.31850  0.89448  0.21692  1.0000
  H   H1449     1.0  0.30453  0.92699  0.19990  1.0000
  H   H1450     1.0  0.31828  0.95237  0.23845  1.0000
  H   H1451     1.0  0.33206  0.92004  0.25552  1.0000
  C   C1820     1.0  0.31025  0.84724  0.16775  1.0000
  C   C1821     1.0  0.30714  0.82936  0.17873  1.0000
  C   C1822     1.0  0.29474  0.82043  0.17452  1.0000
  C   C1823     1.0  0.28525  0.82942  0.15948  1.0000
  C   C1824     1.0  0.28780  0.84763  0.14901  1.0000
  C   C1825     1.0  0.30038  0.85641  0.15306  1.0000
  H   H1452     1.0  0.29273  0.80638  0.18274  1.0000
  H   H1453     1.0  0.28047  0.85474  0.13750  1.0000
  H   H1454     1.0  0.30249  0.87038  0.14480  1.0000
  C   C1826     1.0  0.22167  0.63799  0.26527  1.0000
  C   C1827     1.0  0.28697  0.76355  0.42044  1.0000
  H   H1455     1.0  0.19390  0.85620  0.97563  1.0000
  H   H1456     1.0  0.26610  0.76788  0.00215  1.0000
  C   C1828     1.0  0.27948  0.59583  0.24058  1.0000
  C   C1829     1.0  0.21916  0.51541  0.18387  1.0000
  H   H1457     1.0  0.24943  0.48584  0.21172  1.0000
  H   H1458     1.0  0.26166  0.70889  0.23941  1.0000
  C   C1830     1.0  0.20825  0.82060  0.47007  1.0000
  C   C1831     1.0  0.27569  0.51940  0.30080  1.0000
  C   C1832     1.0  0.26345  0.51670  0.31860  1.0000
  C   C1833     1.0  0.25918  0.53036  0.32989  1.0000
  C   C1834     1.0  0.26684  0.54696  0.32335  1.0000
  C   C1835     1.0  0.27903  0.54965  0.30553  1.0000
  C   C1836     1.0  0.28351  0.53587  0.29436  1.0000
  H   H1459     1.0  0.19999  0.92702  0.34795  1.0000
  H   H1460     1.0  0.24986  0.52808  0.34370  1.0000
  H   H1461     1.0  0.28521  0.56222  0.30047  1.0000
  H   H1462     1.0  0.29302  0.53803  0.28064  1.0000
  C   C1837     1.0  0.22052  0.75801  0.42241  1.0000
  C   C1838     1.0  0.21395  0.77782  0.41694  1.0000
  H   H1463     1.0  0.22378  0.78736  0.41272  1.0000
  C   C1839     1.0  0.24503  0.65261  0.41389  1.0000
  C   C1840     1.0  0.25148  0.66723  0.39930  1.0000
  C   C1841     1.0  0.25304  0.66692  0.38021  1.0000
  C   C1842     1.0  0.24790  0.65213  0.37548  1.0000
  C   C1843     1.0  0.24250  0.63689  0.38998  1.0000
  C   C1844     1.0  0.24108  0.63715  0.40912  1.0000
  H   H1464     1.0  0.25406  0.67944  0.40268  1.0000
  H   H1465     1.0  0.25703  0.67889  0.36921  1.0000
  C   C1845     1.0  0.19865  0.83212  0.33446  1.0000
  C   C1846     1.0  0.20399  0.64852  0.12680  1.0000
  C   C1847     1.0  0.19776  0.73284  0.12755  1.0000
  C   C1848     1.0  0.36043  0.72532  0.42751  1.0000
  C   C1849     1.0  0.28408  0.78939  0.23948  1.0000
  C   C1850     1.0  0.29390  0.69830  0.26762  1.0000
  C   C1851     1.0  0.21996  0.74774  0.01572  1.0000
  C   C1852     1.0  0.35516  0.64188  0.32827  1.0000
  C   C1853     1.0  0.36074  0.64547  0.30846  1.0000
  C   C1854     1.0  0.35008  0.64141  0.29759  1.0000
  C   C1855     1.0  0.33354  0.63428  0.30643  1.0000
  C   C1856     1.0  0.32751  0.63158  0.32614  1.0000
  C   C1857     1.0  0.33842  0.63518  0.33701  1.0000
  H   H1466     1.0  0.27758  0.83186  0.99293  1.0000
  H   H1467     1.0  0.35480  0.64354  0.28233  1.0000
  H   H1468     1.0  0.31465  0.62637  0.33304  1.0000
  H   H1469     1.0  0.33382  0.63288  0.35225  1.0000
  C   C1858     1.0  0.34434  0.71312  0.38590  1.0000
  C   C1859     1.0  0.32571  0.71963  0.39497  1.0000
  C   C1860     1.0  0.31750  0.70856  0.41206  1.0000
  C   C1861     1.0  0.32803  0.69106  0.42021  1.0000
  C   C1862     1.0  0.34693  0.68499  0.41162  1.0000
  C   C1863     1.0  0.35506  0.69598  0.39444  1.0000
  H   H1470     1.0  0.31742  0.73295  0.38850  1.0000
  H   H1471     1.0  0.30298  0.71350  0.41882  1.0000
  H   H1472     1.0  0.35516  0.67157  0.41799  1.0000
  H   H1473     1.0  0.36960  0.69115  0.38783  1.0000
  H   H1474     1.0  0.23878  0.60133  0.22577  1.0000
  H   H1475     1.0  0.24875  0.66257  0.20621  1.0000
  C   C1864     1.0  0.31771  0.69504  0.31382  1.0000
  C   C1865     1.0  0.32085  0.70616  0.46966  1.0000
  P   P59       1.0  0.32391  0.61884  0.40703  1.0000
  C   C1866     1.0  0.30317  0.61329  0.42446  1.0000
  C   C1867     1.0  0.33026  0.60593  0.38817  1.0000
  C   C1868     1.0  0.34935  0.60065  0.37937  1.0000
  C   C1869     1.0  0.35422  0.59149  0.36413  1.0000
  C   C1870     1.0  0.34009  0.58766  0.35746  1.0000
  C   C1871     1.0  0.32105  0.59327  0.36585  1.0000
  C   C1872     1.0  0.31611  0.60274  0.38088  1.0000
  C   C1873     1.0  0.29718  0.59622  0.42652  1.0000
  C   C1874     1.0  0.28100  0.59215  0.43999  1.0000
  H   H1476     1.0  0.19404  0.53546  0.19419  1.0000
  C   C1875     1.0  0.23760  0.49691  0.20766  1.0000
  C   C1876     1.0  0.29355  0.62549  0.43701  1.0000
  C   C1877     1.0  0.34215  0.61327  0.42054  1.0000
  C   C1878     1.0  0.23650  0.70244  0.31479  1.0000
  H   H1477     1.0  0.21524  0.79157  0.37378  1.0000
  C   C1879     1.0  0.35293  0.59456  0.42438  1.0000
  S   S296      1.0  0.20408  0.63936  0.16472  1.0000
  H   H1478     1.0  0.35110  0.64217  0.38452  1.0000
  H   H1479     1.0  0.36045  0.60431  0.38371  1.0000
  H   H1480     1.0  0.19190  0.95800  0.35962  1.0000
  H   H1481     1.0  0.34382  0.58109  0.34529  1.0000
  H   H1482     1.0  0.31010  0.59087  0.36024  1.0000
  H   H1483     1.0  0.30126  0.60792  0.38649  1.0000
  H   H1484     1.0  0.30490  0.58604  0.41775  1.0000
  C   C1880     1.0  0.19466  0.78533  0.41675  1.0000
  H   H1485     1.0  0.36872  0.85325  0.00682  1.0000
  C   C1881     1.0  0.19376  0.57373  0.26436  1.0000
  H   H1486     1.0  0.29822  0.63846  0.43613  1.0000
  H   H1487     1.0  0.26978  0.63097  0.45986  1.0000
  C   C1882     1.0  0.20758  0.63420  0.28149  1.0000
  H   H1488     1.0  0.35056  0.58332  0.41907  1.0000
  C   C1883     1.0  0.33710  0.65131  0.38554  1.0000
  C   C1884     1.0  0.32340  0.84062  0.10722  1.0000
  C   C1885     1.0  0.32140  0.82329  0.12013  1.0000
  C   C1886     1.0  0.31153  0.81124  0.11693  1.0000
  C   C1887     1.0  0.30413  0.81624  0.10052  1.0000
  H   H1489     1.0  0.31460  0.82225  0.19016  1.0000
  C   C1888     1.0  0.28763  0.87384  0.05581  1.0000
  C   C1889     1.0  0.26961  0.88191  0.05177  1.0000
  C   C1890     1.0  0.25777  0.89656  0.06041  1.0000
  C   C1891     1.0  0.26411  0.90347  0.07277  1.0000
  H   H1490     1.0  0.33116  0.84956  0.11013  1.0000
  H   H1491     1.0  0.32701  0.81947  0.13296  1.0000
  H   H1492     1.0  0.30933  0.79820  0.12734  1.0000
  H   H1493     1.0  0.22853  0.64363  0.23470  1.0000
  H   H1494     1.0  0.29635  0.86227  0.04913  1.0000
  H   H1495     1.0  0.26466  0.87644  0.04227  1.0000
  H   H1496     1.0  0.24360  0.90242  0.05771  1.0000
  H   H1497     1.0  0.24055  0.67224  0.08234  1.0000
  C   C1892     1.0  0.20488  0.79875  0.07979  1.0000
  C   C1893     1.0  0.19366  0.80539  0.11138  1.0000
  H   H1498     1.0  0.21268  0.73052  0.43216  1.0000
  C   C1894     1.0  0.32292  0.92827  0.14674  1.0000
  H   H1499     1.0  0.28109  0.55004  0.23940  1.0000
  C   C1895     1.0  0.27622  0.72788  0.37679  1.0000
  H   H1500     1.0  0.29928  0.56917  0.24674  1.0000
  C   C1896     1.0  0.34500  0.87314  0.01905  1.0000
  C   C1897     1.0  0.19679  0.54212  0.15648  1.0000
  C   C1898     1.0  0.34455  0.91560  0.17481  1.0000
  C   C1899     1.0  0.20763  0.76376  0.02187  1.0000
  H   H1501     1.0  0.21407  0.80115  0.06592  1.0000
  S   S297      1.0  0.19199  0.77487  0.06632  1.0000
  C   C1900     1.0  0.26633  0.78273  0.02302  1.0000
  H   H1502     1.0  0.36988  0.74911  0.45613  1.0000
  H   H1503     1.0  0.21518  0.87983  0.40527  1.0000
  H   H1504     1.0  0.21108  0.80770  0.46468  1.0000
  H   H1505     1.0  0.22046  0.53643  0.30177  1.0000
  H   H1506     1.0  0.26995  0.96394  0.23975  1.0000
  C   C1901     1.0  0.20893  0.81375  0.33268  1.0000
  C   C1902     1.0  0.20834  0.50711  0.13315  1.0000
  H   H1507     1.0  0.26884  0.55591  0.15070  1.0000
  C   C1903     1.0  0.34797  0.84746  0.05382  1.0000
  H   H1508     1.0  0.21399  0.86683  0.45502  1.0000
  C   C1904     1.0  0.37854  0.72153  0.41618  1.0000
  C   C1905     1.0  0.27509  0.71640  0.00347  1.0000
  H   H1509     1.0  0.19743  0.57529  0.18671  1.0000
  C   C1906     1.0  0.21803  0.56844  0.20416  1.0000
  H   H1510     1.0  0.19067  0.74654  0.13119  1.0000
  H   H1511     1.0  0.29487  0.73100  0.32966  1.0000
  H   H1512     1.0  0.27440  0.48509  0.35959  1.0000
  C   C1907     1.0  0.20773  0.74577  0.42791  1.0000
  H   H1513     1.0  0.24734  0.75617  0.98136  1.0000
  H   H1514     1.0  0.20013  0.67597  0.18116  1.0000
  C   C1908     1.0  0.20627  0.52466  0.19768  1.0000
  C   C1909     1.0  0.31545  0.95933  0.07825  1.0000
  C   C1910     1.0  0.34500  0.62743  0.42819  1.0000
  H   H1515     1.0  0.35272  0.91070  0.18590  1.0000
  C   C1911     1.0  0.19932  0.95000  0.23069  1.0000
  H   H1516     1.0  0.26385  0.79546  0.04662  1.0000
  H   H1517     1.0  0.24523  0.49451  0.17851  1.0000
  C   C1912     1.0  0.19270  0.90023  0.36418  1.0000
  C   C1913     1.0  0.19046  0.91779  0.29440  1.0000
  C   C1914     1.0  0.36574  0.70914  0.24625  1.0000
  C   C1915     1.0  0.22030  0.59034  0.17346  1.0000
  C   C1916     1.0  0.30317  0.96413  0.09471  1.0000
  H   H1518     1.0  0.28001  0.72803  0.38982  1.0000
  C   C1917     1.0  0.24288  0.75912  0.04851  1.0000
  C   C1918     1.0  0.22426  0.66729  0.19416  1.0000
  C   C1919     1.0  0.19362  0.75185  0.36786  1.0000
  H   H1519     1.0  0.29091  0.48767  0.21707  1.0000
  C   C1920     1.0  0.21259  0.70020  0.17867  1.0000
  C   C1921     1.0  0.22720  0.70584  0.18302  1.0000
  C   C1922     1.0  0.24020  0.69228  0.19291  1.0000
  C   C1923     1.0  0.23872  0.67303  0.19849  1.0000
  C   C1924     1.0  0.33618  0.77631  0.45970  1.0000
  C   C1925     1.0  0.20049  0.53934  0.26757  1.0000
  C   C1926     1.0  0.20884  0.75136  0.15678  1.0000
  C   C1927     1.0  0.20756  0.77057  0.15671  1.0000
  H   H1520     1.0  0.34452  0.95174  0.06410  1.0000
  Fe  Fe151     1.0  0.38205  0.67050  0.33292  1.0000
  H   H1521     1.0  0.20347  0.65500  0.09702  1.0000
  C   C1928     1.0  0.20150  0.71622  0.14165  1.0000
  C   C1929     1.0  0.38577  0.77553  0.32770  1.0000
  Fe  Fe152     1.0  0.37692  0.83331  0.21135  1.0000
  C   C1930     1.0  0.21145  0.71449  0.10310  1.0000
  C   C1931     1.0  0.21486  0.69782  0.11700  1.0000
  C   C1932     1.0  0.21001  0.69865  0.13621  1.0000
  C   C1933     1.0  0.31581  0.88714  0.10315  1.0000
  C   C1934     1.0  0.20703  0.69808  0.41364  1.0000
  C   C1935     1.0  0.27420  0.83164  0.02267  1.0000
  C   C1936     1.0  0.28175  0.50133  0.21904  1.0000
  C   C1937     1.0  0.36112  0.77129  0.24819  1.0000
  H   H1522     1.0  0.22862  0.72064  0.17891  1.0000
  H   H1523     1.0  0.25143  0.69670  0.19627  1.0000
  H   H1524     1.0  0.22463  0.86349  0.01876  1.0000
  C   C1938     1.0  0.27659  0.68045  0.24998  1.0000
  Fe  Fe153     1.0  0.33968  0.84714  0.19768  1.0000
  H   H1525     1.0  0.22081  0.74418  0.14762  1.0000
  H   H1526     1.0  0.21837  0.77815  0.14750  1.0000
  S   S298      1.0  0.23342  0.97131  0.17129  1.0000
  C   C1939     1.0  0.32011  0.75598  0.42210  1.0000
  C   C1940     1.0  0.33105  0.71823  0.47246  1.0000
  C   C1941     1.0  0.22483  0.50631  0.22123  1.0000
  C   C1942     1.0  0.37759  0.81909  0.29431  1.0000
  C   C1943     1.0  0.20244  0.88977  0.41009  1.0000
  C   C1944     1.0  0.22324  0.55059  0.29941  1.0000
  H   H1527     1.0  0.21266  0.68548  0.14666  1.0000
  C   C1945     1.0  0.26303  0.54760  0.14456  1.0000
  H   H1528     1.0  0.30941  0.66958  0.27730  1.0000
  H   H1529     1.0  0.27943  0.51128  0.18970  1.0000
  H   H1530     1.0  0.36891  0.58808  0.35697  1.0000
  C   C1946     1.0  0.19202  0.78030  0.16796  1.0000
  H   H1531     1.0  0.30358  0.73139  0.35935  1.0000
  H   H1532     1.0  0.21482  0.69146  0.36225  1.0000
  C   C1947     1.0  0.33536  0.93929  0.14738  1.0000
  C   C1948     1.0  0.21060  0.56519  0.35282  1.0000
  H   H1533     1.0  0.24798  0.72509  0.39063  1.0000
  H   H1534     1.0  0.20842  0.96451  0.25722  1.0000
  H   H1535     1.0  0.31444  0.93267  0.13605  1.0000
  C   C1949     1.0  0.27556  0.56526  0.23789  1.0000
  C   C1950     1.0  0.29007  0.68434  0.31286  1.0000
  C   C1951     1.0  0.31524  0.84619  0.09107  1.0000
  H   H1536     1.0  0.19733  0.64071  0.23148  1.0000
  H   H1537     1.0  0.22646  0.52719  0.25089  1.0000
  H   H1538     1.0  0.30969  0.76794  0.39618  1.0000
  H   H1539     1.0  0.25914  0.77805  0.24412  1.0000
  P   P60       1.0  0.33908  0.96042  0.12907  1.0000
  C   C1952     1.0  0.21824  0.70912  0.37969  1.0000
  C   C1953     1.0  0.28850  0.71184  0.98746  1.0000
  H   H1540     1.0  0.31510  0.90043  0.12575  1.0000
  C   C1954     1.0  0.25263  0.72638  0.36037  1.0000
  C   C1955     1.0  0.22345  0.84081  0.26623  1.0000
  C   C1956     1.0  0.22847  0.85519  0.25042  1.0000
  C   C1957     1.0  0.21953  0.87443  0.25062  1.0000
  P   P61       1.0  0.24455  0.84907  0.22918  1.0000
  C   C1958     1.0  0.25942  0.86645  0.21863  1.0000
  C   C1959     1.0  0.25992  0.82572  0.23418  1.0000
  C   C1960     1.0  0.25270  0.80900  0.23827  1.0000
  C   C1961     1.0  0.27757  0.62120  0.45065  1.0000
  C   C1962     1.0  0.32498  0.88412  0.08490  1.0000
  C   C1963     1.0  0.29139  0.80593  0.23510  1.0000
  C   C1964     1.0  0.27940  0.82401  0.23264  1.0000
  C   C1965     1.0  0.26839  0.86856  0.19941  1.0000
  C   C1966     1.0  0.28064  0.88131  0.19142  1.0000
  C   C1967     1.0  0.28461  0.89144  0.20265  1.0000
  C   C1968     1.0  0.27618  0.88908  0.22191  1.0000
  C   C1969     1.0  0.26366  0.87659  0.22992  1.0000
  C   C1970     1.0  0.23081  0.84801  0.21295  1.0000
  C   C1971     1.0  0.21150  0.85688  0.21493  1.0000
  C   C1972     1.0  0.20059  0.85440  0.20350  1.0000
  C   C1973     1.0  0.20888  0.84332  0.18983  1.0000
  C   C1974     1.0  0.22809  0.83470  0.18759  1.0000
  C   C1975     1.0  0.23906  0.83708  0.19900  1.0000
  H   H1541     1.0  0.20053  0.84158  0.18075  1.0000
  H   H1542     1.0  0.23630  0.76237  0.36477  1.0000
  H   H1543     1.0  0.24427  0.68901  0.31080  1.0000
  H   H1544     1.0  0.22990  0.82589  0.26647  1.0000
  H   H1545     1.0  0.22279  0.88583  0.23840  1.0000
  H   H1546     1.0  0.23785  0.80997  0.23889  1.0000
  C   C1976     1.0  0.32435  0.98212  0.15715  1.0000
  H   H1547     1.0  0.26747  0.71873  0.04912  1.0000
  H   H1548     1.0  0.21598  0.63663  0.12574  1.0000
  H   H1549     1.0  0.28560  0.83652  0.22905  1.0000
  H   H1550     1.0  0.26616  0.86025  0.19058  1.0000
  H   H1551     1.0  0.28734  0.88318  0.17652  1.0000
  H   H1552     1.0  0.29436  0.90101  0.19637  1.0000
  H   H1553     1.0  0.27956  0.89682  0.23060  1.0000
  H   H1554     1.0  0.25763  0.87467  0.24494  1.0000
  H   H1555     1.0  0.20471  0.86567  0.22526  1.0000
  C   C1977     1.0  0.20211  0.90943  0.40591  1.0000
  H   H1556     1.0  0.19939  0.89396  0.26661  1.0000
  H   H1557     1.0  0.23456  0.82618  0.17692  1.0000
  H   H1558     1.0  0.25395  0.83019  0.19697  1.0000
  P   P62       1.0  0.30454  0.70913  0.28004  1.0000
  H   H1559     1.0  0.19626  0.52563  0.27342  1.0000
  H   H1560     1.0  0.27598  0.76880  0.41219  1.0000
  C   C1978     1.0  0.37199  0.74175  0.44480  1.0000
  P   P63       1.0  0.21699  0.52256  0.15929  1.0000
  H   H1561     1.0  0.21488  0.71395  0.08824  1.0000
  C   C1979     1.0  0.21019  0.85390  0.46454  1.0000
  C   C1980     1.0  0.20939  0.89257  0.17101  1.0000
  C   C1981     1.0  0.19521  0.58084  0.37909  1.0000
  C   C1982     1.0  0.19519  0.65301  0.14449  1.0000
  H   H1562     1.0  0.34371  0.88299  0.00555  1.0000
  H   H1563     1.0  0.35415  0.73635  0.22975  1.0000
  C   C1983     1.0  0.20598  0.97430  0.26649  1.0000
  H   H1564     1.0  0.22099  0.68416  0.11296  1.0000
  H   H1565     1.0  0.28740  0.68463  0.38718  1.0000
  H   H1566     1.0  0.22810  0.81177  0.02964  1.0000
  C   C1984     1.0  0.37137  0.97638  0.11844  1.0000
  C   C1985     1.0  0.21278  0.69370  0.37640  1.0000
  C   C1986     1.0  0.35103  0.72431  0.24121  1.0000
  S   S299      1.0  0.26813  0.66803  0.46803  1.0000
  H   H1567     1.0  0.25740  0.50403  0.32373  1.0000
  H   H1568     1.0  0.29024  0.65029  0.40246  1.0000
  C   C1987     1.0  0.27108  0.60476  0.45191  1.0000
  H   H1569     1.0  0.29397  0.65402  0.26205  1.0000
  H   H1570     1.0  0.23944  0.54474  0.16802  1.0000
  H   H1571     1.0  0.32862  0.96925  0.16739  1.0000
  H   H1572     1.0  0.34802  0.89037  0.06116  1.0000
  H   H1573     1.0  0.20480  0.74269  0.30032  1.0000
  C   C1988     1.0  0.20608  0.87913  0.26652  1.0000
  H   H1574     1.0  0.19093  0.79531  0.16752  1.0000
  C   C1989     1.0  0.19416  0.96952  0.22271  1.0000
  H   H1575     1.0  0.30013  0.69960  0.98907  1.0000
  C   C1990     1.0  0.36427  0.95960  0.12257  1.0000
  C   C1991     1.0  0.21920  0.81291  0.01989  1.0000
  H   H1576     1.0  0.21204  0.77179  0.02948  1.0000
  C   C1992     1.0  0.21531  0.73623  0.32610  1.0000
  H   H1577     1.0  0.32965  0.85371  0.28717  1.0000
  C   C1993     1.0  0.33243  0.72420  0.25130  1.0000
  C   C1994     1.0  0.33533  0.67071  0.37684  1.0000
  H   H1578     1.0  0.22320  0.72550  0.00059  1.0000
  C   C1995     1.0  0.26433  0.84647  0.28017  1.0000
  C   C1996     1.0  0.28329  0.84620  0.27112  1.0000
  C   C1997     1.0  0.29098  0.86221  0.26857  1.0000
  C   C1998     1.0  0.27981  0.87847  0.27501  1.0000
  C   C1999     1.0  0.26079  0.87883  0.28429  1.0000
  C   C2000     1.0  0.25310  0.86269  0.28682  1.0000
  P   P64       1.0  0.24728  0.89935  0.29414  1.0000
  C   C2001     1.0  0.25312  0.89773  0.31659  1.0000
  C   C2002     1.0  0.25339  0.92051  0.27727  1.0000
  C   C2003     1.0  0.25882  0.93456  0.28296  1.0000
  C   C2004     1.0  0.26461  0.95026  0.26946  1.0000
  C   C2005     1.0  0.26508  0.95199  0.25027  1.0000
  C   C2006     1.0  0.25953  0.93817  0.24457  1.0000
  C   C2007     1.0  0.25362  0.92254  0.25798  1.0000
  C   C2008     1.0  0.24082  0.90883  0.32919  1.0000
  C   C2009     1.0  0.24480  0.90747  0.34684  1.0000
  C   C2010     1.0  0.26118  0.89510  0.35198  1.0000
  C   C2011     1.0  0.27361  0.88415  0.33944  1.0000
  C   C2012     1.0  0.26963  0.88543  0.32179  1.0000
  C   C2013     1.0  0.22202  0.90065  0.29898  1.0000
  C   C2014     1.0  0.21382  0.88784  0.31468  1.0000
  H   H1579     1.0  0.20576  0.52168  0.12493  1.0000
  H   H1580     1.0  0.28167  0.49551  0.24891  1.0000
  H   H1581     1.0  0.25826  0.60195  0.46205  1.0000
  C   C2015     1.0  0.21015  0.91562  0.28880  1.0000
  H   H1582     1.0  0.25843  0.83402  0.28214  1.0000
  H   H1583     1.0  0.29210  0.83357  0.26613  1.0000
  H   H1584     1.0  0.30570  0.86203  0.26169  1.0000
  H   H1585     1.0  0.28621  0.89065  0.27297  1.0000
  H   H1586     1.0  0.23854  0.86253  0.29389  1.0000
  H   H1587     1.0  0.25890  0.93338  0.29768  1.0000
  H   H1588     1.0  0.26905  0.96095  0.27380  1.0000
  C   C2016     1.0  0.30127  0.67534  0.38703  1.0000
  H   H1589     1.0  0.25994  0.93947  0.22971  1.0000
  H   H1590     1.0  0.24931  0.91203  0.25324  1.0000
  H   H1591     1.0  0.22811  0.91854  0.32534  1.0000
  H   H1592     1.0  0.23511  0.91595  0.35655  1.0000
  H   H1593     1.0  0.26425  0.89400  0.36568  1.0000
  H   H1594     1.0  0.28634  0.87459  0.34340  1.0000
  H   H1595     1.0  0.27945  0.87677  0.31237  1.0000
  H   H1596     1.0  0.22260  0.87668  0.32325  1.0000
  H   H1597     1.0  0.37183  0.92888  0.12441  1.0000
  H   H1598     1.0  0.27606  0.57932  0.44108  1.0000
  H   H1599     1.0  0.21589  0.92606  0.27694  1.0000
  C   C2017     1.0  0.23199  0.58659  0.29318  1.0000
  C   C2018     1.0  0.24360  0.57313  0.28293  1.0000
  C   C2019     1.0  0.23917  0.55522  0.28590  1.0000
  H   H1600     1.0  0.21431  0.59804  0.16111  1.0000
  H   H1601     1.0  0.19063  0.92591  0.25152  1.0000
  C   C2020     1.0  0.21602  0.58209  0.30667  1.0000
  H   H1602     1.0  0.33645  0.64184  0.42593  1.0000
  C   C2021     1.0  0.20329  0.90871  0.17922  1.0000
  H   H1603     1.0  0.28814  0.82289  0.02363  1.0000
  C   C2022     1.0  0.33270  0.79106  0.46939  1.0000
  H   H1604     1.0  0.19710  0.67164  0.42210  1.0000
  C   C2023     1.0  0.25041  0.84833  0.00370  1.0000
  C   C2024     1.0  0.19545  0.74349  0.00234  1.0000
  H   H1605     1.0  0.23570  0.60033  0.29097  1.0000
  H   H1606     1.0  0.25633  0.57643  0.27313  1.0000
  H   H1607     1.0  0.24844  0.54467  0.27819  1.0000
  C   C2025     1.0  0.19222  0.78651  0.08390  1.0000
  C   C2026     1.0  0.28216  0.89550  0.07679  1.0000
  H   H1608     1.0  0.37326  0.68198  0.26511  1.0000
  C   C2027     1.0  0.20105  0.80163  0.32691  1.0000
  H   H1609     1.0  0.23605  0.62578  0.42031  1.0000
  Fe  Fe154     1.0  0.34439  0.86042  0.23108  1.0000
  H   H1610     1.0  0.20744  0.59259  0.31481  1.0000
  P   P65       1.0  0.19527  0.71752  0.16643  1.0000
  C   C2028     1.0  0.33352  0.86403  0.05314  1.0000
  C   C2029     1.0  0.35890  0.62312  0.43894  1.0000
  C   C2030     1.0  0.36688  0.59028  0.43512  1.0000
  C   C2031     1.0  0.22333  0.55798  0.24670  1.0000
  C   C2032     1.0  0.21780  0.54028  0.25476  1.0000
  P   P66       1.0  0.24392  0.56003  0.22758  1.0000
  C   C2033     1.0  0.25811  0.53673  0.22436  1.0000
  C   C2034     1.0  0.26443  0.52311  0.23976  1.0000
  C   C2035     1.0  0.27639  0.50563  0.23703  1.0000
  H   H1611     1.0  0.36102  0.63425  0.44463  1.0000
  C   C2036     1.0  0.27533  0.51464  0.20366  1.0000
  C   C2037     1.0  0.26361  0.53229  0.20626  1.0000
  C   C2038     1.0  0.23481  0.57200  0.20633  1.0000
  Fe  Fe155     1.0  0.37478  0.70825  0.34450  1.0000
  C   C2039     1.0  0.23719  0.59372  0.17534  1.0000
  C   C2040     1.0  0.24454  0.58447  0.19165  1.0000
  S   S300      1.0  0.36050  0.86269  0.20093  1.0000
  C   C2041     1.0  0.25795  0.72607  0.37720  1.0000
  C   C2042     1.0  0.24819  0.77287  0.05460  1.0000
  H   H1612     1.0  0.26050  0.52611  0.25386  1.0000
  S   S301      1.0  0.19391  0.81799  0.12815  1.0000
  H   H1613     1.0  0.21474  0.91475  0.39808  1.0000
  H   H1614     1.0  0.24291  0.77464  0.06913  1.0000
  H   H1615     1.0  0.25898  0.54239  0.19409  1.0000
  H   H1616     1.0  0.21531  0.71293  0.03855  1.0000
  H   H1617     1.0  0.38572  0.75037  0.23925  1.0000
  H   H1618     1.0  0.25763  0.58725  0.19288  1.0000
  H   H1619     1.0  0.29226  0.74501  0.46607  1.0000
  H   H1620     1.0  0.24424  0.60397  0.16436  1.0000
  C   C2043     1.0  0.26195  0.75486  0.29132  1.0000
  C   C2044     1.0  0.21340  0.83721  0.45777  1.0000
  C   C2045     1.0  0.19294  0.56610  0.34899  1.0000
  H   H1621     1.0  0.21473  0.68435  0.06431  1.0000
  C   C2046     1.0  0.36183  0.69368  0.26114  1.0000
  C   C2047     1.0  0.21387  0.73785  0.00558  1.0000
  H   H1622     1.0  0.21764  0.72382  0.40130  1.0000
  C   C2048     1.0  0.21783  0.64039  0.24728  1.0000
  C   C2049     1.0  0.31045  0.96501  0.10980  1.0000
  H   H1623     1.0  0.26414  0.72576  0.28973  1.0000
  H   H1624     1.0  0.24645  0.91454  0.18117  1.0000
  C   C2050     1.0  0.29017  0.67295  0.33108  1.0000
  C   C2051     1.0  0.30412  0.67239  0.34058  1.0000
  H   H1625     1.0  0.27981  0.66403  0.33764  1.0000
  H   H1626     1.0  0.30464  0.66285  0.35433  1.0000
  H   H1627     1.0  0.32852  0.70347  0.30735  1.0000
  H   H1628     1.0  0.22275  0.80869  0.33641  1.0000
  H   H1629     1.0  0.35563  0.94115  0.16262  1.0000
  C   C2052     1.0  0.21163  0.56395  0.31006  1.0000
  C   C2053     1.0  0.31747  0.68279  0.37792  1.0000
  C   C2054     1.0  0.21122  0.68078  0.18436  1.0000
  C   C2055     1.0  0.24966  0.75673  0.02971  1.0000
  C   C2056     1.0  0.27190  0.73676  0.28812  1.0000
  S   S302      1.0  0.36265  0.83239  0.24176  1.0000
  H   H1630     1.0  0.31193  0.90254  0.15932  1.0000
  C   C2057     1.0  0.20016  0.63876  0.24543  1.0000
  C   C2058     1.0  0.20505  0.68033  0.39164  1.0000
  C   C2059     1.0  0.34650  0.77607  0.26326  1.0000
  C   C2060     1.0  0.28212  0.75721  0.44012  1.0000
  C   C2061     1.0  0.33235  0.87704  0.03569  1.0000
  C   C2062     1.0  0.36324  0.81245  0.29060  1.0000
  C   C2063     1.0  0.34586  0.82480  0.28843  1.0000
  C   C2064     1.0  0.34277  0.84390  0.28974  1.0000
  C   C2065     1.0  0.35680  0.85050  0.29386  1.0000
  C   C2066     1.0  0.21080  0.57761  0.18782  1.0000
  C   C2067     1.0  0.20115  0.86472  0.28216  1.0000
  C   C2068     1.0  0.20316  0.73198  0.10838  1.0000
  P   P67       1.0  0.22823  0.72676  0.36029  1.0000
  H   H1631     1.0  0.27663  0.70747  0.01725  1.0000
  H   H1632     1.0  0.21192  0.56467  0.15239  1.0000
  H   H1633     1.0  0.22309  0.65235  0.19837  1.0000
  C   C2069     1.0  0.26823  0.83667  0.00525  1.0000
  H   H1634     1.0  0.36550  0.79781  0.28903  1.0000
  H   H1635     1.0  0.33509  0.81971  0.28501  1.0000
  S   S303      1.0  0.22168  0.93669  0.22271  1.0000
  H   H1636     1.0  0.35441  0.86539  0.29462  1.0000
  C   C2070     1.0  0.33782  0.90648  0.10196  1.0000
  C   C2071     1.0  0.35689  0.73594  0.44154  1.0000
  H   H1637     1.0  0.21175  0.49184  0.36554  1.0000
  C   C2072     1.0  0.28947  0.72980  0.35965  1.0000
  C   C2073     1.0  0.34549  0.76379  0.28125  1.0000
  H   H1638     1.0  0.23344  0.87300  0.15876  1.0000
  C   C2074     1.0  0.29178  0.73279  0.28323  1.0000
  C   C2075     1.0  0.28612  0.57612  0.24201  1.0000
  H   H1639     1.0  0.28647  0.90111  0.08654  1.0000
  H   H1640     1.0  0.35860  0.73756  0.29815  1.0000
  C   C2076     1.0  0.30414  0.69510  0.30390  1.0000
  H   H1641     1.0  0.27511  0.79217  0.01307  1.0000
  H   H1642     1.0  0.26955  0.67339  0.24369  1.0000
  C   C2077     1.0  0.29400  0.88032  0.06863  1.0000
  H   H1643     1.0  0.20687  0.74930  0.33026  1.0000
  H   H1644     1.0  0.22554  0.57220  0.37017  1.0000
  C   C2078     1.0  0.19485  0.98272  0.33678  1.0000
  C   C2079     1.0  0.30296  0.65586  0.39568  1.0000
  C   C2080     1.0  0.26115  0.76890  0.01689  1.0000
  P   P68       1.0  0.24282  0.73875  0.02209  1.0000
  C   C2081     1.0  0.33504  0.95547  0.07687  1.0000
  H   H1645     1.0  0.35918  0.90993  0.07631  1.0000
  C   C2082     1.0  0.27215  0.54330  0.12686  1.0000
  H   H1646     1.0  0.36197  0.78068  0.23428  1.0000
  S   S304      1.0  0.24278  0.85576  0.98180  1.0000
  H   H1647     1.0  0.24662  0.75780  0.29509  1.0000
  Fe  Fe156     1.0  0.34154  0.81949  0.23578  1.0000
  C   C2083     1.0  0.22117  0.76401  0.36649  1.0000
  C   C2084     1.0  0.34602  0.93290  0.16168  1.0000
  H   H1648     1.0  0.20645  0.89433  0.36783  1.0000
  P   P69       1.0  0.33338  0.74071  0.45598  1.0000
  C   C2085     1.0  0.21113  0.57467  0.25173  1.0000
  C   C2086     1.0  0.24179  0.71780  0.04142  1.0000
  C   C2087     1.0  0.25601  0.71120  0.05216  1.0000
  C   C2088     1.0  0.25562  0.69478  0.06680  1.0000
  C   C2089     1.0  0.24094  0.68490  0.07095  1.0000
  C   C2090     1.0  0.22648  0.69162  0.06069  1.0000
  C   C2091     1.0  0.22686  0.70800  0.04602  1.0000
  C   C2092     1.0  0.35924  0.74684  0.28419  1.0000
  C   C2093     1.0  0.26472  0.79090  0.24110  1.0000
  H   H1649     1.0  0.31691  0.74392  0.27981  1.0000
  H   H1650     1.0  0.22339  0.71248  0.29051  1.0000
  C   C2094     1.0  0.19420  0.53197  0.33481  1.0000
  S   S305      1.0  0.35730  0.81769  0.20596  1.0000
  C   C2095     1.0  0.25996  0.78463  0.04190  1.0000
  H   H1651     1.0  0.34049  0.68131  0.28257  1.0000
  C   C2096     1.0  0.30619  0.83350  0.08755  1.0000
  H   H1652     1.0  0.20136  0.97400  0.32633  1.0000
  H   H1653     1.0  0.25733  0.62002  0.23376  1.0000
  H   H1654     1.0  0.25480  0.91470  0.07963  1.0000
  S   S306      1.0  0.32636  0.85865  0.17176  1.0000
  Fe  Fe157     1.0  0.26352  0.95746  0.16051  1.0000
  S   S307      1.0  0.27448  0.94109  0.13698  1.0000
  H   H1655     1.0  0.33123  0.89120  0.18389  1.0000
  S   S308      1.0  0.32935  0.79725  0.25966  1.0000
  H   H1656     1.0  0.33428  0.76752  0.29298  1.0000
  H   H1657     1.0  0.34364  0.77828  0.44500  1.0000
  C   C2097     1.0  0.27202  0.70041  0.24778  1.0000
  H   H1658     1.0  0.27928  0.68432  0.30567  1.0000
  H   H1659     1.0  0.38106  0.71361  0.40516  1.0000
  H   H1660     1.0  0.19164  0.91603  0.14425  1.0000
  Fe  Fe158     1.0  0.23934  0.95532  0.19999  1.0000
  C   C2098     1.0  0.32097  0.64386  0.39550  1.0000
  H   H1661     1.0  0.29353  0.77543  0.24137  1.0000
  H   H1662     1.0  0.29639  0.80696  0.09800  1.0000
  H   H1663     1.0  0.30649  0.80478  0.23327  1.0000
  C   C2099     1.0  0.26619  0.72813  0.34323  1.0000
  C   C2100     1.0  0.31787  0.68344  0.33196  1.0000
  C   C2101     1.0  0.28078  0.70936  0.25642  1.0000
  H   H1664     1.0  0.27730  0.72482  0.25435  1.0000
  H   H1665     1.0  0.32121  0.73605  0.24716  1.0000
  C   C2102     1.0  0.29029  0.66950  0.26037  1.0000
  C   C2103     1.0  0.23847  0.85454  0.01983  1.0000
  C   C2104     1.0  0.25186  0.59399  0.23046  1.0000
  H   H1666     1.0  0.20435  0.84123  0.33979  1.0000
  C   C2105     1.0  0.29897  0.67837  0.26908  1.0000
  H   H1667     1.0  0.32906  0.68245  0.33908  1.0000
  C   C2106     1.0  0.22870  0.88485  0.16594  1.0000
  P   P70       1.0  0.31699  0.86895  0.07455  1.0000
  C   C2107     1.0  0.30157  0.74688  0.28252  1.0000
  C   C2108     1.0  0.29160  0.76498  0.28560  1.0000
  C   C2109     1.0  0.27180  0.76901  0.28991  1.0000
  H   H1668     1.0  0.32145  0.89004  0.03491  1.0000
  C   C2110     1.0  0.32146  0.91104  0.15992  1.0000
  H   H1669     1.0  0.26418  0.78306  0.29233  1.0000
  H   H1670     1.0  0.38025  0.70953  0.23887  1.0000
  H   H1671     1.0  0.20178  0.66797  0.38900  1.0000
  C   C2111     1.0  0.34324  0.69352  0.27123  1.0000
  C   C2112     1.0  0.32851  0.70914  0.26685  1.0000
  H   H1672     1.0  0.29932  0.77586  0.28466  1.0000
  H   H1673     1.0  0.30028  0.83700  0.07502  1.0000
  C   C2113     1.0  0.19414  0.88999  0.32010  1.0000
  H   H1674     1.0  0.20047  0.49562  0.11329  1.0000
  C   C2114     1.0  0.33009  0.96067  0.10876  1.0000
  C   C2115     1.0  0.19102  0.97400  0.28229  1.0000
  C   C2116     1.0  0.33239  0.90462  0.17380  1.0000
  H   H1675     1.0  0.28739  0.60419  0.24428  1.0000
  C   C2117     1.0  0.20987  0.84559  0.28200  1.0000
  H   H1676     1.0  0.37510  0.75422  0.35106  1.0000
  H   H1677     1.0  0.23818  0.62559  0.38655  1.0000
  C   C2118     1.0  0.24636  0.54123  0.15432  1.0000
  C   C2119     1.0  0.21572  0.81490  0.98802  1.0000
  C   C2120     1.0  0.25865  0.74362  0.98330  1.0000
  H   H1678     1.0  0.31630  0.69784  0.37136  1.0000
  H   H1679     1.0  0.21034  0.63257  0.29541  1.0000
  H   H1680     1.0  0.37532  0.57588  0.43787  1.0000
  H   H1681     1.0  0.20890  0.52695  0.35775  1.0000
  C   C2121     1.0  0.23858  0.53060  0.14640  1.0000
  H   H1682     1.0  0.38462  0.84335  0.29996  1.0000
  C   C2122     1.0  0.26460  0.53263  0.11893  1.0000
  C   C2123     1.0  0.35908  0.85640  0.01976  1.0000
  C   C2124     1.0  0.23607  0.90832  0.17847  1.0000
  H   H1683     1.0  0.22356  0.55901  0.34405  1.0000
  H   H1684     1.0  0.30381  0.88065  0.11090  1.0000
  C   C2125     1.0  0.19963  0.81500  0.02629  1.0000
  C   C2126     1.0  0.37457  0.75413  0.25101  1.0000
  H   H1685     1.0  0.21985  0.83712  0.44300  1.0000
  H   H1686     1.0  0.28795  0.96675  0.09605  1.0000
  C   C2127     1.0  0.37404  0.83805  0.29650  1.0000
  H   H1687     1.0  0.20606  0.83439  0.29404  1.0000
  C   C2128     1.0  0.20914  0.52011  0.21628  1.0000
  H   H1688     1.0  0.21248  0.92818  0.19041  1.0000
  H   H1689     1.0  0.24236  0.81165  0.99580  1.0000
  C   C2129     1.0  0.28452  0.72967  0.34292  1.0000
  C   C2130     1.0  0.38268  0.76579  0.34670  1.0000
  C   C2131     1.0  0.22723  0.81275  0.00081  1.0000
  C   C2132     1.0  0.36063  0.84363  0.03715  1.0000
  C   C2133     1.0  0.21173  0.57261  0.36772  1.0000
  H   H1690     1.0  0.34915  0.72003  0.42525  1.0000
  H   H1691     1.0  0.24239  0.51796  0.12225  1.0000
  H   H1692     1.0  0.19343  0.81504  0.04112  1.0000
  C   C2134     1.0  0.37700  0.94201  0.12137  1.0000
  H   H1693     1.0  0.19056  0.86842  0.29437  1.0000
  C   C2135     1.0  0.22463  0.71561  0.30345  1.0000
  H   H1694     1.0  0.38014  0.77150  0.31769  1.0000
  C   C2136     1.0  0.19443  0.74175  0.16801  1.0000
  H   H1695     1.0  0.26735  0.75761  0.44700  1.0000
  C   C2137     1.0  0.32219  0.89829  0.11161  1.0000
  H   H1696     1.0  0.34786  0.67635  0.36925  1.0000
  H   H1697     1.0  0.20495  0.69968  0.42809  1.0000
  H   H1698     1.0  0.24710  0.69575  0.34033  1.0000
  H   H1699     1.0  0.21019  0.55898  0.21528  1.0000
  H   H1700     1.0  0.31437  0.70998  0.45742  1.0000
  H   H1701     1.0  0.30069  0.96842  0.12261  1.0000
  C   C2138     1.0  0.21467  0.71150  0.39843  1.0000
  C   C2139     1.0  0.23791  0.70620  0.33167  1.0000
  C   C2140     1.0  0.22704  0.72292  0.33770  1.0000
  C   C2141     1.0  0.21341  0.74940  0.36465  1.0000
  C   C2142     1.0  0.19851  0.56124  0.15328  1.0000
  C   C2143     1.0  0.36992  0.60458  0.44233  1.0000
  C   C2144     1.0  0.34700  0.90366  0.08373  1.0000
  H   H1702     1.0  0.33770  0.80418  0.46227  1.0000
  H   H1703     1.0  0.25696  0.88755  0.16446  1.0000
  S   S309      1.0  0.28140  0.50262  0.28616  1.0000
  H   H1704     1.0  0.38073  0.60129  0.45061  1.0000
  C   C2145     1.0  0.37375  0.74196  0.26903  1.0000
  H   H1705     1.0  0.21454  0.58861  0.24546  1.0000
  H   H1706     1.0  0.34281  0.91490  0.10872  1.0000
  C   C2146     1.0  0.31540  0.74903  0.44184  1.0000
  H   H1707     1.0  0.20052  0.74485  0.09756  1.0000
  C   C2147     1.0  0.21416  0.73258  0.30903  1.0000
  H   H1708     1.0  0.26268  0.72862  0.32996  1.0000
  H   H1709     1.0  0.19904  0.52712  0.22697  1.0000
  C   C2148     1.0  0.19600  0.81704  0.99432  1.0000
  C   C2149     1.0  0.24202  0.89295  0.16934  1.0000
  C   C2150     1.0  0.29626  0.74996  0.45082  1.0000
  C   C2151     1.0  0.32989  0.75920  0.46891  1.0000
  C   C2152     1.0  0.20928  0.78072  0.37149  1.0000
  C   C2153     1.0  0.21402  0.50310  0.15058  1.0000
  S   S310      1.0  0.36963  0.64403  0.34248  1.0000
  C   C2154     1.0  0.19697  0.65899  0.11054  1.0000
  C   C2155     1.0  0.21677  0.91612  0.18353  1.0000
  H   H1710     1.0  0.37152  0.83062  0.03771  1.0000
  C   C2156     1.0  0.34061  0.89253  0.07519  1.0000
  H   H1711     1.0  0.37367  0.65061  0.30159  1.0000
  C   C2157     1.0  0.34238  0.95608  0.09208  1.0000
  H   H1712     1.0  0.34934  0.83735  0.06715  1.0000
  H   H1713     1.0  0.22685  0.50252  0.23572  1.0000
  C   C2158     1.0  0.20542  0.49241  0.12643  1.0000
  C   C2159     1.0  0.32714  0.98193  0.13785  1.0000
  H   H1714     1.0  0.19082  0.73586  0.99447  1.0000
  S   S311      1.0  0.24901  0.97920  0.20528  1.0000
  S   S312      1.0  0.27594  0.98149  0.16209  1.0000
  C   C2160     1.0  0.20239  0.68238  0.41026  1.0000
  C   C2161     1.0  0.20302  0.52060  0.34974  1.0000
  C   C2162     1.0  0.20460  0.50069  0.35429  1.0000
  H   H1715     1.0  0.20401  0.97660  0.21137  1.0000
  H   H1716     1.0  0.35757  0.95274  0.09084  1.0000
  H   H1717     1.0  0.19615  0.58679  0.39050  1.0000
  P   P71       1.0  0.19193  0.55773  0.32874  1.0000
  H   H1718     1.0  0.38679  0.76334  0.37477  1.0000
  C   C2163     1.0  0.19741  0.49202  0.34400  1.0000
  H   H1719     1.0  0.19778  0.94988  0.15951  1.0000
  H   H1720     1.0  0.19932  0.88627  0.16792  1.0000
  Fe  Fe159     1.0  0.38926  0.70613  0.30297  1.0000
  C   C2164     1.0  0.38923  0.77101  0.36006  1.0000
  H   H1721     1.0  0.19338  0.98422  0.15916  1.0000
  H   H1722     1.0  0.27627  0.48460  0.39241  1.0000
  C   C2165     1.0  0.20690  0.49139  0.74795  1.0000
  S   S313      1.0  0.29694  0.50108  0.65551  1.0000
  H   H1723     1.0  0.25841  0.75980  0.53561  1.0000
  H   H1724     1.0  0.20139  0.55336  0.81724  1.0000
  Fe  Fe160     1.0  0.32826  0.60778  0.69937  1.0000
  S   S314      1.0  0.29722  0.62166  0.70422  1.0000
  S   S315      1.0  0.35245  0.62189  0.69645  1.0000
  Fe  Fe161     1.0  0.32157  0.56880  0.69994  1.0000
  S   S316      1.0  0.29016  0.57904  0.70513  1.0000
  S   S317      1.0  0.33484  0.53776  0.69951  1.0000
  Fe  Fe162     1.0  0.29609  0.60542  0.68316  1.0000
  S   S318      1.0  0.27764  0.61492  0.66143  1.0000
  Fe  Fe163     1.0  0.29395  0.59420  0.72564  1.0000
  S   S319      1.0  0.27661  0.59077  0.75544  1.0000
  S   S320      1.0  0.32746  0.59392  0.67625  1.0000
  S   S321      1.0  0.32502  0.58166  0.72245  1.0000
  Fe  Fe164     1.0  0.29790  0.73259  0.60914  1.0000
  S   S322      1.0  0.26875  0.74228  0.62545  1.0000
  S   S323      1.0  0.32404  0.72247  0.62157  1.0000
  Fe  Fe165     1.0  0.28393  0.73260  0.57409  1.0000
  S   S324      1.0  0.25360  0.74225  0.58756  1.0000
  S   S325      1.0  0.29390  0.72712  0.54428  1.0000
  Fe  Fe166     1.0  0.26421  0.76254  0.59779  1.0000
  S   S326      1.0  0.25028  0.79364  0.59729  1.0000
  Fe  Fe167     1.0  0.26078  0.72121  0.61390  1.0000
  S   S327      1.0  0.24111  0.70183  0.63169  1.0000
  S   S328      1.0  0.29431  0.75453  0.58229  1.0000
  S   S329      1.0  0.29019  0.70986  0.59960  1.0000
  H   H1725     1.0  0.34988  0.89540  0.85027  1.0000
  H   H1726     1.0  0.26115  0.66562  0.54153  1.0000
  C   C2166     1.0  0.33275  0.95473  0.79021  1.0000
  H   H1727     1.0  0.38152  0.63552  0.67019  1.0000
  S   S330      1.0  0.33878  0.87176  0.83114  1.0000
  S   S331      1.0  0.36774  0.82210  0.82328  1.0000
  Fe  Fe168     1.0  0.27018  0.95377  0.78763  1.0000
  S   S332      1.0  0.24234  0.94618  0.80402  1.0000
  S   S333      1.0  0.29386  0.93341  0.77263  1.0000
  H   H1728     1.0  0.29747  0.71974  0.95702  1.0000
  Fe  Fe169     1.0  0.24504  0.96202  0.82469  1.0000
  S   S334      1.0  0.23811  0.95174  0.85660  1.0000
  H   H1729     1.0  0.27913  0.70508  0.49485  1.0000
  C   C2167     1.0  0.28084  0.53309  0.77133  1.0000
  C   C2168     1.0  0.21748  0.79227  0.52960  1.0000
  Fe  Fe170     1.0  0.25913  0.84198  0.95691  1.0000
  S   S335      1.0  0.24290  0.83984  0.93622  1.0000
  C   C2169     1.0  0.20973  0.88012  0.61525  1.0000
  Fe  Fe171     1.0  0.29620  0.82082  0.93683  1.0000
  S   S336      1.0  0.28326  0.81674  0.91487  1.0000
  S   S337      1.0  0.32627  0.80666  0.93906  1.0000
  Fe  Fe172     1.0  0.26797  0.84735  0.91375  1.0000
  S   S338      1.0  0.26731  0.86246  0.88331  1.0000
  Fe  Fe173     1.0  0.25936  0.80964  0.93881  1.0000
  S   S339      1.0  0.24797  0.78352  0.94172  1.0000
  S   S340      1.0  0.28304  0.85221  0.93400  1.0000
  C   C2170     1.0  0.20026  0.79714  0.58361  1.0000
  H   H1730     1.0  0.20753  0.67082  0.88774  1.0000
  H   H1731     1.0  0.31076  0.97720  0.85925  1.0000
  C   C2171     1.0  0.34906  0.73541  0.65700  1.0000
  H   H1732     1.0  0.29680  0.63877  0.60891  1.0000
  H   H1733     1.0  0.21146  0.78674  0.97364  1.0000
  C   C2172     1.0  0.31899  0.68887  0.48272  1.0000
  H   H1734     1.0  0.23663  0.78715  0.54841  1.0000
  H   H1735     1.0  0.34679  0.94637  0.85090  1.0000
  H   H1736     1.0  0.19177  0.67981  0.79051  1.0000
  H   H1737     1.0  0.27832  0.93307  0.88080  1.0000
  H   H1738     1.0  0.29317  0.50371  0.71992  1.0000
  H   H1739     1.0  0.25721  0.95129  0.74231  1.0000
  H   H1740     1.0  0.27100  0.74779  0.95336  1.0000
  H   H1741     1.0  0.19821  0.95280  0.60596  1.0000
  H   H1742     1.0  0.36887  0.85027  0.77198  1.0000
  H   H1743     1.0  0.23215  0.70799  0.90469  1.0000
  H   H1744     1.0  0.20675  0.98024  0.86978  1.0000
  H   H1745     1.0  0.20112  0.76836  0.61618  1.0000
  C   C2173     1.0  0.38743  0.79148  0.75425  1.0000
  C   C2174     1.0  0.23332  0.78582  0.92593  1.0000
  C   C2175     1.0  0.22476  0.80383  0.91663  1.0000
  C   C2176     1.0  0.21188  0.80522  0.90536  1.0000
  C   C2177     1.0  0.19936  0.82076  0.48911  1.0000
  C   C2178     1.0  0.37657  0.77935  0.75266  1.0000
  C   C2179     1.0  0.22952  0.76925  0.92334  1.0000
  H   H1746     1.0  0.22776  0.81668  0.91842  1.0000
  H   H1747     1.0  0.25215  0.75021  0.50883  1.0000
  H   H1748     1.0  0.33063  0.90424  0.90782  1.0000
  H   H1749     1.0  0.31206  0.93853  0.82443  1.0000
  H   H1750     1.0  0.22436  0.76765  0.49492  1.0000
  P   P72       1.0  0.28026  0.76205  0.87208  1.0000
  C   C2180     1.0  0.21335  0.78640  0.51497  1.0000
  C   C2181     1.0  0.28150  0.65561  0.51846  1.0000
  C   C2182     1.0  0.29411  0.95568  0.87195  1.0000
  C   C2183     1.0  0.24543  0.92682  0.86428  1.0000
  C   C2184     1.0  0.25506  0.91551  0.85108  1.0000
  C   C2185     1.0  0.26164  0.89580  0.85720  1.0000
  C   C2186     1.0  0.25832  0.88717  0.87656  1.0000
  C   C2187     1.0  0.24842  0.89837  0.88988  1.0000
  C   C2188     1.0  0.24206  0.91824  0.88372  1.0000
  H   H1751     1.0  0.25777  0.92201  0.83615  1.0000
  H   H1752     1.0  0.26964  0.88727  0.84691  1.0000
  H   H1753     1.0  0.24584  0.89175  0.90487  1.0000
  H   H1754     1.0  0.23459  0.92696  0.89400  1.0000
  C   C2189     1.0  0.37045  0.79521  0.88591  1.0000
  C   C2190     1.0  0.35554  0.81129  0.88431  1.0000
  C   C2191     1.0  0.34122  0.81454  0.90037  1.0000
  C   C2192     1.0  0.34223  0.80203  0.91807  1.0000
  C   C2193     1.0  0.35711  0.78600  0.91952  1.0000
  C   C2194     1.0  0.37098  0.78244  0.90346  1.0000
  H   H1755     1.0  0.28878  0.96050  0.88520  1.0000
  H   H1756     1.0  0.32986  0.82709  0.89923  1.0000
  H   H1757     1.0  0.35800  0.77639  0.93317  1.0000
  C   C2195     1.0  0.22372  0.49811  0.74028  1.0000
  C   C2196     1.0  0.32677  0.88844  0.81429  1.0000
  C   C2197     1.0  0.33450  0.89139  0.79479  1.0000
  C   C2198     1.0  0.32421  0.90493  0.78191  1.0000
  C   C2199     1.0  0.30657  0.91605  0.78861  1.0000
  C   C2200     1.0  0.29908  0.91323  0.80810  1.0000
  C   C2201     1.0  0.30899  0.89922  0.82084  1.0000
  H   H1758     1.0  0.34831  0.88323  0.78966  1.0000
  H   H1759     1.0  0.33005  0.90695  0.76682  1.0000
  H   H1760     1.0  0.28549  0.92166  0.81332  1.0000
  H   H1761     1.0  0.30288  0.89663  0.83588  1.0000
  C   C2202     1.0  0.22788  0.80232  0.59127  1.0000
  H   H1762     1.0  0.20431  0.88170  0.94899  1.0000
  H   H1763     1.0  0.38109  0.93211  0.92221  1.0000
  H   H1764     1.0  0.19563  0.59824  0.76785  1.0000
  Fe  Fe174     1.0  0.22936  0.97516  0.78868  1.0000
  C   C2203     1.0  0.21883  0.79041  0.58667  1.0000
  H   H1765     1.0  0.31085  0.67976  0.48059  1.0000
  C   C2204     1.0  0.23591  0.67043  0.88977  1.0000
  H   H1766     1.0  0.31981  0.80042  0.49570  1.0000
  H   H1767     1.0  0.22589  0.77587  0.58594  1.0000
  C   C2205     1.0  0.24979  0.70869  0.53750  1.0000
  C   C2206     1.0  0.26132  0.71532  0.54547  1.0000
  C   C2207     1.0  0.27910  0.71854  0.53502  1.0000
  H   H1768     1.0  0.23604  0.70625  0.54562  1.0000
  H   H1769     1.0  0.25651  0.71794  0.55965  1.0000
  C   C2208     1.0  0.25456  0.60641  0.75937  1.0000
  C   C2209     1.0  0.24920  0.62226  0.74527  1.0000
  C   C2210     1.0  0.23177  0.63493  0.74906  1.0000
  C   C2211     1.0  0.21966  0.63169  0.76690  1.0000
  C   C2212     1.0  0.22500  0.61587  0.78098  1.0000
  C   C2213     1.0  0.24246  0.60326  0.77723  1.0000
  H   H1770     1.0  0.25859  0.62489  0.73154  1.0000
  H   H1771     1.0  0.22765  0.64718  0.73813  1.0000
  H   H1772     1.0  0.21587  0.61362  0.79489  1.0000
  H   H1773     1.0  0.24670  0.59117  0.78826  1.0000
  C   C2214     1.0  0.26802  0.63942  0.65419  1.0000
  C   C2215     1.0  0.24887  0.64486  0.65314  1.0000
  C   C2216     1.0  0.24083  0.66405  0.64636  1.0000
  C   C2217     1.0  0.25201  0.67789  0.63987  1.0000
  C   C2218     1.0  0.27135  0.67245  0.64040  1.0000
  C   C2219     1.0  0.27928  0.65325  0.64790  1.0000
  H   H1774     1.0  0.24024  0.63417  0.65754  1.0000
  H   H1775     1.0  0.22595  0.66816  0.64592  1.0000
  H   H1776     1.0  0.28008  0.68307  0.63554  1.0000
  H   H1777     1.0  0.29417  0.64905  0.64838  1.0000
  C   C2220     1.0  0.21352  0.91042  0.66416  1.0000
  H   H1778     1.0  0.20147  0.70311  0.62938  1.0000
  H   H1779     1.0  0.22575  0.83071  0.59502  1.0000
  C   C2221     1.0  0.32385  0.52768  0.68763  1.0000
  C   C2222     1.0  0.32649  0.50769  0.69085  1.0000
  C   C2223     1.0  0.31761  0.49939  0.68164  1.0000
  C   C2224     1.0  0.30683  0.51109  0.66848  1.0000
  C   C2225     1.0  0.30464  0.53105  0.66487  1.0000
  C   C2226     1.0  0.31280  0.53936  0.67473  1.0000
  H   H1780     1.0  0.20512  0.88065  0.91583  1.0000
  C   C2227     1.0  0.29541  0.49160  0.61185  1.0000
  H   H1781     1.0  0.29649  0.54013  0.65455  1.0000
  H   H1782     1.0  0.31084  0.55480  0.67208  1.0000
  H   H1783     1.0  0.34523  0.77915  0.79480  1.0000
  H   H1784     1.0  0.36443  0.80062  0.79760  1.0000
  C   C2228     1.0  0.32696  0.65736  0.73294  1.0000
  C   C2229     1.0  0.33066  0.64292  0.72273  1.0000
  C   C2230     1.0  0.34795  0.63929  0.71006  1.0000
  H   H1785     1.0  0.31363  0.66009  0.74279  1.0000
  H   H1786     1.0  0.32022  0.63457  0.72458  1.0000
  C   C2231     1.0  0.34480  0.72667  0.64457  1.0000
  C   C2232     1.0  0.32872  0.73460  0.63663  1.0000
  C   C2233     1.0  0.31706  0.75178  0.64074  1.0000
  C   C2234     1.0  0.32170  0.76095  0.65270  1.0000
  H   H1787     1.0  0.35405  0.71375  0.64097  1.0000
  H   H1788     1.0  0.30472  0.75814  0.63450  1.0000
  C   C2235     1.0  0.28060  0.59120  0.59643  1.0000
  H   H1789     1.0  0.36834  0.67303  0.71580  1.0000
  C   C2236     1.0  0.19083  0.81594  0.58483  1.0000
  S   S341      1.0  0.27400  0.96732  0.80953  1.0000
  H   H1790     1.0  0.35242  0.70716  0.58853  1.0000
  C   C2237     1.0  0.22401  0.66907  0.81853  1.0000
  C   C2238     1.0  0.22909  0.68695  0.81445  1.0000
  C   C2239     1.0  0.22085  0.70216  0.80124  1.0000
  P   P73       1.0  0.24768  0.68933  0.82446  1.0000
  C   C2240     1.0  0.24327  0.68080  0.84991  1.0000
  C   C2241     1.0  0.26919  0.67544  0.81298  1.0000
  C   C2242     1.0  0.27655  0.65668  0.82200  1.0000
  C   C2243     1.0  0.29269  0.64566  0.81258  1.0000
  C   C2244     1.0  0.30150  0.65326  0.79410  1.0000
  C   C2245     1.0  0.29408  0.67178  0.78496  1.0000
  C   C2246     1.0  0.27784  0.68273  0.79425  1.0000
  C   C2247     1.0  0.25753  0.67870  0.85982  1.0000
  C   C2248     1.0  0.31910  0.75756  0.48757  1.0000
  H   H1791     1.0  0.38384  0.50683  0.66020  1.0000
  C   C2249     1.0  0.21180  0.93890  0.74904  1.0000
  C   C2250     1.0  0.20507  0.81517  0.66717  1.0000
  C   C2251     1.0  0.24872  0.71416  0.82130  1.0000
  C   C2252     1.0  0.23214  0.72723  0.82702  1.0000
  C   C2253     1.0  0.23268  0.74628  0.82579  1.0000
  C   C2254     1.0  0.24986  0.75241  0.81894  1.0000
  C   C2255     1.0  0.26653  0.73940  0.81361  1.0000
  C   C2256     1.0  0.26604  0.72029  0.81496  1.0000
  C   C2257     1.0  0.20442  0.72992  0.73010  1.0000
  H   H1792     1.0  0.20739  0.92515  0.66530  1.0000
  C   C2258     1.0  0.32740  0.68349  0.49853  1.0000
  C   C2259     1.0  0.19964  0.55797  0.80263  1.0000
  H   H1793     1.0  0.22487  0.71591  0.79742  1.0000
  H   H1794     1.0  0.26970  0.65039  0.83615  1.0000
  C   C2260     1.0  0.33897  0.88434  0.88894  1.0000
  H   H1795     1.0  0.31397  0.64476  0.78670  1.0000
  H   H1796     1.0  0.30087  0.67751  0.77057  1.0000
  H   H1797     1.0  0.27194  0.69680  0.78678  1.0000
  H   H1798     1.0  0.27138  0.68137  0.85219  1.0000
  H   H1799     1.0  0.23404  0.84437  0.62322  1.0000
  C   C2261     1.0  0.38308  0.79929  0.77039  1.0000
  H   H1800     1.0  0.21366  0.75778  0.91040  1.0000
  H   H1801     1.0  0.19982  0.75247  0.78127  1.0000
  H   H1802     1.0  0.21880  0.72256  0.83279  1.0000
  C   C2262     1.0  0.19900  0.57711  0.79331  1.0000
  H   H1803     1.0  0.25029  0.76714  0.81818  1.0000
  H   H1804     1.0  0.21503  0.73774  0.60024  1.0000
  H   H1805     1.0  0.27922  0.71035  0.81136  1.0000
  C   C2263     1.0  0.20223  0.68183  0.79706  1.0000
  C   C2264     1.0  0.27726  0.52205  0.76064  1.0000
  H   H1806     1.0  0.27253  0.66305  0.50832  1.0000
  H   H1807     1.0  0.32121  0.65124  0.66327  1.0000
  H   H1808     1.0  0.28876  0.51119  0.75541  1.0000
  C   C2265     1.0  0.27259  0.80902  0.78877  1.0000
  C   C2266     1.0  0.28599  0.79920  0.77581  1.0000
  C   C2267     1.0  0.30447  0.80232  0.77028  1.0000
  C   C2268     1.0  0.30956  0.81528  0.77766  1.0000
  C   C2269     1.0  0.29606  0.82564  0.79032  1.0000
  C   C2270     1.0  0.27759  0.82215  0.79604  1.0000
  P   P74       1.0  0.30287  0.84261  0.79949  1.0000
  C   C2271     1.0  0.31132  0.83015  0.82107  1.0000
  C   C2272     1.0  0.32152  0.85151  0.78103  1.0000
  C   C2273     1.0  0.33974  0.84858  0.78442  1.0000
  C   C2274     1.0  0.32081  0.81085  0.82321  1.0000
  C   C2275     1.0  0.32687  0.80102  0.84011  1.0000
  C   C2276     1.0  0.32364  0.81043  0.85492  1.0000
  C   C2277     1.0  0.31458  0.82974  0.85274  1.0000
  C   C2278     1.0  0.30860  0.83964  0.83583  1.0000
  C   C2279     1.0  0.28283  0.86182  0.80469  1.0000
  C   C2280     1.0  0.26850  0.85830  0.82087  1.0000
  C   C2281     1.0  0.25303  0.87293  0.82532  1.0000
  C   C2282     1.0  0.25176  0.89129  0.81368  1.0000
  C   C2283     1.0  0.26600  0.89501  0.79767  1.0000
  C   C2284     1.0  0.28157  0.88043  0.79326  1.0000
  H   H1809     1.0  0.25824  0.80663  0.79306  1.0000
  H   H1810     1.0  0.28213  0.78914  0.77004  1.0000
  H   H1811     1.0  0.26693  0.82964  0.80592  1.0000
  H   H1812     1.0  0.34248  0.84265  0.79854  1.0000
  H   H1813     1.0  0.32377  0.80348  0.81177  1.0000
  H   H1814     1.0  0.33440  0.78621  0.84159  1.0000
  H   H1815     1.0  0.32844  0.80289  0.86797  1.0000
  H   H1816     1.0  0.31240  0.83719  0.86406  1.0000
  H   H1817     1.0  0.30207  0.85476  0.83431  1.0000
  H   H1818     1.0  0.26948  0.84428  0.83024  1.0000
  H   H1819     1.0  0.24231  0.87024  0.83810  1.0000
  H   H1820     1.0  0.23997  0.90275  0.81733  1.0000
  H   H1821     1.0  0.26525  0.90937  0.78889  1.0000
  H   H1822     1.0  0.29268  0.88406  0.78122  1.0000
  C   C2285     1.0  0.25868  0.73587  0.76592  1.0000
  C   C2286     1.0  0.27814  0.73456  0.76342  1.0000
  C   C2287     1.0  0.29099  0.72181  0.75296  1.0000
  C   C2288     1.0  0.28446  0.71064  0.74465  1.0000
  C   C2289     1.0  0.26496  0.71234  0.74650  1.0000
  C   C2290     1.0  0.25208  0.72469  0.75762  1.0000
  P   P75       1.0  0.25683  0.69737  0.73609  1.0000
  C   C2291     1.0  0.23155  0.70481  0.73745  1.0000
  C   C2292     1.0  0.26690  0.69952  0.71098  1.0000
  C   C2293     1.0  0.27859  0.71265  0.70094  1.0000
  C   C2294     1.0  0.28550  0.71444  0.68134  1.0000
  C   C2295     1.0  0.28050  0.70347  0.67158  1.0000
  C   C2296     1.0  0.26865  0.69062  0.68143  1.0000
  C   C2297     1.0  0.26192  0.68861  0.70102  1.0000
  C   C2298     1.0  0.21946  0.69176  0.74556  1.0000
  C   C2299     1.0  0.31578  0.75716  0.88085  1.0000
  H   H1823     1.0  0.24331  0.80918  0.63104  1.0000
  H   H1824     1.0  0.29642  0.90683  0.91156  1.0000
  C   C2300     1.0  0.22392  0.72385  0.72940  1.0000
  C   C2301     1.0  0.26305  0.67317  0.74944  1.0000
  C   C2302     1.0  0.25463  0.66847  0.76877  1.0000
  C   C2303     1.0  0.25946  0.64992  0.77948  1.0000
  C   C2304     1.0  0.27302  0.63604  0.77106  1.0000
  C   C2305     1.0  0.28160  0.64062  0.75189  1.0000
  C   C2306     1.0  0.27670  0.65912  0.74106  1.0000
  H   H1825     1.0  0.24874  0.74549  0.77436  1.0000
  H   H1826     1.0  0.30610  0.72047  0.75132  1.0000
  H   H1827     1.0  0.29470  0.70065  0.73678  1.0000
  H   H1828     1.0  0.23700  0.72566  0.76004  1.0000
  H   H1829     1.0  0.28238  0.72168  0.70797  1.0000
  H   H1830     1.0  0.29482  0.72432  0.67365  1.0000
  H   H1831     1.0  0.28595  0.70485  0.65639  1.0000
  H   H1832     1.0  0.26467  0.68215  0.67394  1.0000
  H   H1833     1.0  0.25274  0.67856  0.70841  1.0000
  H   H1834     1.0  0.22489  0.67680  0.75126  1.0000
  C   C2307     1.0  0.37522  0.70457  0.79120  1.0000
  C   C2308     1.0  0.20007  0.86963  0.92755  1.0000
  C   C2309     1.0  0.30649  0.89776  0.90264  1.0000
  H   H1835     1.0  0.23312  0.73397  0.72252  1.0000
  H   H1836     1.0  0.24419  0.67910  0.77550  1.0000
  H   H1837     1.0  0.25261  0.64621  0.79426  1.0000
  H   H1838     1.0  0.20055  0.58719  0.80066  1.0000
  H   H1839     1.0  0.29177  0.62958  0.74542  1.0000
  H   H1840     1.0  0.28376  0.66232  0.72629  1.0000
  C   C2310     1.0  0.26398  0.51848  0.54916  1.0000
  H   H1841     1.0  0.20510  0.81917  0.89835  1.0000
  C   C2311     1.0  0.37551  0.88809  0.86156  1.0000
  H   H1842     1.0  0.19928  0.86691  0.48890  1.0000
  H   H1843     1.0  0.28586  0.49690  0.56086  1.0000
  H   H1844     1.0  0.30761  0.86701  0.87557  1.0000
  C   C2312     1.0  0.28407  0.98160  0.71128  1.0000
  H   H1845     1.0  0.28492  0.88824  0.89560  1.0000
  C   C2313     1.0  0.37429  0.89785  0.82801  1.0000
  C   C2314     1.0  0.23102  0.95449  0.68691  1.0000
  C   C2315     1.0  0.20419  0.75799  0.62878  1.0000
  S   S342      1.0  0.19164  0.73472  0.90322  1.0000
  H   H1846     1.0  0.37515  0.64708  0.69833  1.0000
  H   H1847     1.0  0.33092  0.87003  0.73327  1.0000
  C   C2316     1.0  0.27501  0.65693  0.53750  1.0000
  P   P76       1.0  0.20249  0.87178  0.64061  1.0000
  C   C2317     1.0  0.36167  0.64994  0.70790  1.0000
  H   H1848     1.0  0.25744  0.74622  0.85629  1.0000
  H   H1849     1.0  0.23474  0.94401  0.69937  1.0000
  H   H1850     1.0  0.23380  0.70583  0.59547  1.0000
  H   H1851     1.0  0.25398  0.96870  0.68256  1.0000
  C   C2318     1.0  0.29950  0.64496  0.51247  1.0000
  C   C2319     1.0  0.31120  0.63581  0.52552  1.0000
  C   C2320     1.0  0.30481  0.63723  0.54457  1.0000
  C   C2321     1.0  0.28650  0.64748  0.55080  1.0000
  P   P77       1.0  0.27859  0.64896  0.57555  1.0000
  C   C2322     1.0  0.29624  0.65794  0.58120  1.0000
  C   C2323     1.0  0.30257  0.65015  0.59837  1.0000
  C   C2324     1.0  0.31644  0.65720  0.60227  1.0000
  C   C2325     1.0  0.32416  0.67198  0.58907  1.0000
  C   C2326     1.0  0.31786  0.67987  0.57200  1.0000
  C   C2327     1.0  0.30389  0.67297  0.56813  1.0000
  C   C2328     1.0  0.25570  0.66479  0.57976  1.0000
  C   C2329     1.0  0.21974  0.68869  0.58681  1.0000
  C   C2330     1.0  0.22193  0.67217  0.58012  1.0000
  C   C2331     1.0  0.23980  0.66016  0.57678  1.0000
  H   H1852     1.0  0.30443  0.64407  0.49766  1.0000
  H   H1853     1.0  0.32527  0.62778  0.52083  1.0000
  H   H1854     1.0  0.31412  0.63030  0.55449  1.0000
  H   H1855     1.0  0.32098  0.65139  0.61569  1.0000
  H   H1856     1.0  0.33454  0.67775  0.59234  1.0000
  H   H1857     1.0  0.32327  0.69183  0.56206  1.0000
  H   H1858     1.0  0.29884  0.67961  0.55504  1.0000
  H   H1859     1.0  0.23303  0.74721  0.66029  1.0000
  S   S343      1.0  0.19812  0.64781  0.77149  1.0000
  H   H1860     1.0  0.24130  0.64737  0.57163  1.0000
  C   C2332     1.0  0.26221  0.82019  0.86612  1.0000
  C   C2333     1.0  0.24383  0.82346  0.86320  1.0000
  C   C2334     1.0  0.23653  0.80814  0.86259  1.0000
  C   C2335     1.0  0.24739  0.78946  0.86541  1.0000
  C   C2336     1.0  0.26581  0.78602  0.86860  1.0000
  C   C2337     1.0  0.27324  0.80163  0.86857  1.0000
  C   C2338     1.0  0.35158  0.49341  0.64454  1.0000
  H   H1861     1.0  0.29829  0.63116  0.81952  1.0000
  C   C2339     1.0  0.27083  0.50113  0.56084  1.0000
  C   C2340     1.0  0.28260  0.60887  0.58411  1.0000
  C   C2341     1.0  0.19584  0.58335  0.77480  1.0000
  H   H1862     1.0  0.35549  0.92305  0.88103  1.0000
  C   C2342     1.0  0.30796  0.76735  0.81634  1.0000
  C   C2343     1.0  0.29696  0.77168  0.83353  1.0000
  C   C2344     1.0  0.31994  0.76446  0.90909  1.0000
  H   H1863     1.0  0.29319  0.50506  0.61612  1.0000
  C   C2345     1.0  0.25592  0.73959  0.87125  1.0000
  C   C2346     1.0  0.25757  0.51720  0.70292  1.0000
  H   H1864     1.0  0.34113  0.94235  0.79802  1.0000
  H   H1865     1.0  0.20097  0.48571  0.73939  1.0000
  C   C2347     1.0  0.28828  0.94019  0.86956  1.0000
  C   C2348     1.0  0.23542  0.69312  0.59022  1.0000
  C   C2349     1.0  0.20974  0.84596  0.64668  1.0000
  H   H1866     1.0  0.23043  0.65701  0.82838  1.0000
  C   C2350     1.0  0.37378  0.72217  0.79557  1.0000
  H   H1867     1.0  0.26785  0.83202  0.86678  1.0000
  H   H1868     1.0  0.23513  0.83781  0.86181  1.0000
  H   H1869     1.0  0.22207  0.81059  0.86083  1.0000
  H   H1870     1.0  0.24102  0.77784  0.86567  1.0000
  H   H1871     1.0  0.28742  0.79954  0.87084  1.0000
  S   S344      1.0  0.37206  0.71450  0.70185  1.0000
  C   C2351     1.0  0.36940  0.89736  0.89806  1.0000
  C   C2352     1.0  0.35154  0.86089  0.75103  1.0000
  H   H1872     1.0  0.31063  0.77874  0.80407  1.0000
  H   H1873     1.0  0.29115  0.78655  0.83430  1.0000
  H   H1874     1.0  0.27005  0.73908  0.91129  1.0000
  H   H1875     1.0  0.32411  0.81712  0.77341  1.0000
  C   C2353     1.0  0.22572  0.83643  0.63547  1.0000
  H   H1876     1.0  0.36324  0.86422  0.73948  1.0000
  C   C2354     1.0  0.22902  0.90011  0.67232  1.0000
  C   C2355     1.0  0.33275  0.68308  0.68147  1.0000
  C   C2356     1.0  0.20564  0.90172  0.65456  1.0000
  C   C2357     1.0  0.36351  0.91727  0.89220  1.0000
  H   H1877     1.0  0.21441  0.53695  0.69475  1.0000
  H   H1878     1.0  0.33534  0.49868  0.70058  1.0000
  H   H1879     1.0  0.19539  0.85378  0.90946  1.0000
  C   C2358     1.0  0.24592  0.76729  0.52978  1.0000
  S   S345      1.0  0.37775  0.75330  0.71256  1.0000
  C   C2359     1.0  0.23168  0.50515  0.75142  1.0000
  H   H1880     1.0  0.32212  0.75311  0.86735  1.0000
  C   C2360     1.0  0.30031  0.76861  0.91544  1.0000
  H   H1881     1.0  0.26488  0.67189  0.88729  1.0000
  H   H1882     1.0  0.21373  0.56399  0.70821  1.0000
  C   C2361     1.0  0.20021  0.82819  0.58837  1.0000
  H   H1883     1.0  0.19310  0.79890  0.63069  1.0000
  C   C2362     1.0  0.32999  0.95390  0.77268  1.0000
  S   S346      1.0  0.20266  0.98151  0.77726  1.0000
  C   C2363     1.0  0.25606  0.70516  0.51907  1.0000
  H   H1884     1.0  0.22219  0.81533  0.97316  1.0000
  H   H1885     1.0  0.19997  0.85841  0.60829  1.0000
  C   C2364     1.0  0.26631  0.62505  0.60989  1.0000
  C   C2365     1.0  0.30728  0.94352  0.83758  1.0000
  H   H1886     1.0  0.19356  0.90990  0.64841  1.0000
  C   C2366     1.0  0.21865  0.61418  0.69853  1.0000
  H   H1887     1.0  0.26517  0.68499  0.58973  1.0000
  C   C2367     1.0  0.32943  0.66046  0.66505  1.0000
  H   H1888     1.0  0.32560  0.67033  0.50882  1.0000
  C   C2368     1.0  0.23359  0.78261  0.53708  1.0000
  C   C2369     1.0  0.32198  0.67159  0.67875  1.0000
  C   C2370     1.0  0.35758  0.94909  0.83822  1.0000
  H   H1889     1.0  0.31500  0.79452  0.76044  1.0000
  H   H1890     1.0  0.21025  0.86913  0.57354  1.0000
  C   C2371     1.0  0.23220  0.51243  0.56028  1.0000
  C   C2372     1.0  0.26305  0.73568  0.90205  1.0000
  H   H1891     1.0  0.27321  0.77170  0.90898  1.0000
  C   C2373     1.0  0.24635  0.98035  0.72875  1.0000
  C   C2374     1.0  0.21804  0.75958  0.63740  1.0000
  H   H1892     1.0  0.29905  0.71734  0.50858  1.0000
  H   H1893     1.0  0.27035  0.57677  0.62511  1.0000
  C   C2375     1.0  0.31586  0.74833  0.81496  1.0000
  C   C2376     1.0  0.25333  0.68122  0.58681  1.0000
  P   P78       1.0  0.25448  0.51192  0.74198  1.0000
  H   H1894     1.0  0.29042  0.92203  0.85074  1.0000
  C   C2377     1.0  0.29504  0.93400  0.85250  1.0000
  C   C2378     1.0  0.26065  0.96412  0.73220  1.0000
  C   C2379     1.0  0.21405  0.95030  0.76032  1.0000
  C   C2380     1.0  0.25572  0.55668  0.69531  1.0000
  C   C2381     1.0  0.25724  0.54777  0.68055  1.0000
  C   C2382     1.0  0.25813  0.52804  0.68437  1.0000
  C   C2383     1.0  0.25568  0.52606  0.71793  1.0000
  C   C2384     1.0  0.25486  0.54592  0.71393  1.0000
  C   C2385     1.0  0.35115  0.68313  0.67078  1.0000
  H   H1895     1.0  0.22605  0.77084  0.63100  1.0000
  H   H1896     1.0  0.22630  0.74007  0.56561  1.0000
  H   H1897     1.0  0.19786  0.93986  0.57892  1.0000
  C   C2386     1.0  0.25920  0.52544  0.75652  1.0000
  C   C2387     1.0  0.24498  0.54020  0.76306  1.0000
  C   C2388     1.0  0.24860  0.55118  0.77378  1.0000
  C   C2389     1.0  0.26649  0.54756  0.77799  1.0000
  H   H1898     1.0  0.25561  0.57189  0.69224  1.0000
  H   H1899     1.0  0.25832  0.55604  0.66609  1.0000
  H   H1900     1.0  0.25408  0.55317  0.72496  1.0000
  H   H1901     1.0  0.22088  0.90380  0.61689  1.0000
  C   C2390     1.0  0.29599  0.76146  0.88709  1.0000
  C   C2391     1.0  0.27951  0.96476  0.72358  1.0000
  C   C2392     1.0  0.20571  0.49838  0.77808  1.0000
  H   H1902     1.0  0.23123  0.54344  0.75946  1.0000
  H   H1903     1.0  0.23773  0.56284  0.77844  1.0000
  H   H1904     1.0  0.26944  0.55642  0.78587  1.0000
  H   H1905     1.0  0.36621  0.90146  0.81696  1.0000
  H   H1906     1.0  0.23645  0.72298  0.87036  1.0000
  H   H1907     1.0  0.35340  0.65172  0.64381  1.0000
  H   H1908     1.0  0.35432  0.52051  0.64787  1.0000
  C   C2393     1.0  0.19642  0.83750  0.49587  1.0000
  C   C2394     1.0  0.33223  0.87339  0.88044  1.0000
  H   H1909     1.0  0.38003  0.77349  0.74013  1.0000
  H   H1910     1.0  0.34827  0.72138  0.49023  1.0000
  C   C2395     1.0  0.22494  0.58786  0.73210  1.0000
  C   C2396     1.0  0.23918  0.59729  0.72059  1.0000
  C   C2397     1.0  0.23604  0.61054  0.70387  1.0000
  Fe  Fe175     1.0  0.35768  0.74553  0.74034  1.0000
  H   H1911     1.0  0.19809  0.96687  0.65953  1.0000
  H   H1912     1.0  0.30805  0.67096  0.68759  1.0000
  C   C2398     1.0  0.35878  0.67202  0.65692  1.0000
  C   C2399     1.0  0.33764  0.75268  0.66098  1.0000
  P   P79       1.0  0.19276  0.79937  0.50503  1.0000
  C   C2400     1.0  0.21866  0.82135  0.59178  1.0000
  H   H1913     1.0  0.22772  0.57789  0.74506  1.0000
  H   H1914     1.0  0.25263  0.59444  0.72480  1.0000
  H   H1915     1.0  0.24710  0.61798  0.69511  1.0000
  H   H1916     1.0  0.27660  0.62154  0.77921  1.0000
  C   C2401     1.0  0.20763  0.78863  0.90325  1.0000
  H   H1917     1.0  0.38107  0.71906  0.56907  1.0000
  C   C2402     1.0  0.32594  0.89631  0.90034  1.0000
  H   H1918     1.0  0.19153  0.54080  0.76853  1.0000
  C   C2403     1.0  0.31569  0.77228  0.49723  1.0000
  C   C2404     1.0  0.24409  0.72638  0.87914  1.0000
  C   C2405     1.0  0.23900  0.49507  0.57198  1.0000
  C   C2406     1.0  0.24466  0.52414  0.54890  1.0000
  C   C2407     1.0  0.19782  0.73018  0.65332  1.0000
  H   H1919     1.0  0.31904  0.71876  0.82978  1.0000
  H   H1920     1.0  0.20096  0.71129  0.78256  1.0000
  C   C2408     1.0  0.21664  0.77063  0.91212  1.0000
  C   C2409     1.0  0.21870  0.89582  0.60775  1.0000
  P   P80       1.0  0.38266  0.67184  0.64308  1.0000
  C   C2410     1.0  0.22076  0.80580  0.65572  1.0000
  C   C2411     1.0  0.36056  0.50534  0.64918  1.0000
  C   C2412     1.0  0.32441  0.97121  0.79771  1.0000
  H   H1921     1.0  0.34933  0.85662  0.92144  1.0000
  C   C2413     1.0  0.20739  0.69960  0.79267  1.0000
  C   C2414     1.0  0.22188  0.74637  0.65394  1.0000
  H   H1922     1.0  0.20827  0.80434  0.53524  1.0000
  S   S347      1.0  0.38979  0.85658  0.79662  1.0000
  H   H1923     1.0  0.19514  0.67053  0.63741  1.0000
  H   H1924     1.0  0.30754  0.77073  0.51172  1.0000
  C   C2415     1.0  0.24238  0.76188  0.51471  1.0000
  C   C2416     1.0  0.32256  0.78899  0.48819  1.0000
  C   C2417     1.0  0.25388  0.67343  0.87968  1.0000
  H   H1925     1.0  0.36150  0.72913  0.66307  1.0000
  C   C2418     1.0  0.19959  0.83519  0.66272  1.0000
  C   C2419     1.0  0.34774  0.66067  0.65415  1.0000
  C   C2420     1.0  0.35269  0.96098  0.82135  1.0000
  H   H1926     1.0  0.23060  0.49729  0.72580  1.0000
  H   H1927     1.0  0.19702  0.80693  0.67939  1.0000
  C   C2421     1.0  0.29994  0.88726  0.89365  1.0000
  H   H1928     1.0  0.21722  0.51683  0.56007  1.0000
  C   C2422     1.0  0.22527  0.67788  0.86016  1.0000
  C   C2423     1.0  0.19696  0.54504  0.79349  1.0000
  H   H1929     1.0  0.22895  0.50914  0.77986  1.0000
  H   H1930     1.0  0.21382  0.68003  0.85299  1.0000
  C   C2424     1.0  0.31859  0.96931  0.76267  1.0000
  C   C2425     1.0  0.20317  0.55534  0.71485  1.0000
  C   C2426     1.0  0.25119  0.72248  0.90991  1.0000
  H   H1931     1.0  0.22680  0.94692  0.76587  1.0000
  C   C2427     1.0  0.30184  0.73774  0.84809  1.0000
  H   H1932     1.0  0.26088  0.63802  0.61540  1.0000
  H   H1933     1.0  0.32710  0.69152  0.69228  1.0000
  H   H1934     1.0  0.27014  0.49987  0.60067  1.0000
  C   C2428     1.0  0.22899  0.87239  0.66086  1.0000
  C   C2429     1.0  0.33800  0.69521  0.50113  1.0000
  H   H1935     1.0  0.25750  0.60682  0.63694  1.0000
  C   C2430     1.0  0.33336  0.86412  0.74756  1.0000
  Fe  Fe176     1.0  0.36708  0.85267  0.82290  1.0000
  H   H1936     1.0  0.23492  0.90684  0.68002  1.0000
  H   H1937     1.0  0.22291  0.92677  0.74589  1.0000
  C   C2431     1.0  0.28532  0.71495  0.51669  1.0000
  H   H1938     1.0  0.20595  0.69809  0.58931  1.0000
  H   H1939     1.0  0.33605  0.94099  0.76719  1.0000
  C   C2432     1.0  0.22474  0.90164  0.58811  1.0000
  C   C2433     1.0  0.22173  0.89199  0.57581  1.0000
  H   H1940     1.0  0.29060  0.95236  0.72698  1.0000
  C   C2434     1.0  0.35780  0.66469  0.71777  1.0000
  H   H1941     1.0  0.35933  0.69179  0.67353  1.0000
  S   S348      1.0  0.24158  0.69657  0.50933  1.0000
  Fe  Fe177     1.0  0.25165  0.69475  0.47827  1.0000
  H   H1942     1.0  0.35293  0.68654  0.62022  1.0000
  S   S349      1.0  0.37185  0.71455  0.74580  1.0000
  C   C2435     1.0  0.36507  0.89405  0.84710  1.0000
  H   H1943     1.0  0.28618  0.57806  0.59127  1.0000
  H   H1944     1.0  0.21323  0.75816  0.96217  1.0000
  C   C2436     1.0  0.26431  0.60739  0.62213  1.0000
  H   H1945     1.0  0.34444  0.69110  0.51344  1.0000
  C   C2437     1.0  0.20061  0.76942  0.96205  1.0000
  H   H1946     1.0  0.24890  0.87316  0.67682  1.0000
  H   H1947     1.0  0.36010  0.73019  0.80132  1.0000
  S   S350      1.0  0.34376  0.76453  0.67538  1.0000
  H   H1948     1.0  0.32445  0.74514  0.80158  1.0000
  C   C2438     1.0  0.20689  0.87046  0.60277  1.0000
  C   C2439     1.0  0.21007  0.96772  0.66458  1.0000
  H   H1949     1.0  0.23122  0.91402  0.58238  1.0000
  H   H1950     1.0  0.22576  0.89693  0.56058  1.0000
  H   H1951     1.0  0.32910  0.76607  0.91742  1.0000
  H   H1952     1.0  0.30457  0.86119  0.75945  1.0000
  C   C2440     1.0  0.27158  0.59046  0.61546  1.0000
  C   C2441     1.0  0.21165  0.73179  0.66200  1.0000
  H   H1953     1.0  0.27364  0.52756  0.54034  1.0000
  C   C2442     1.0  0.31277  0.87513  0.88253  1.0000
  C   C2443     1.0  0.36700  0.96398  0.80503  1.0000
  C   C2444     1.0  0.37971  0.89008  0.91262  1.0000
  C   C2445     1.0  0.36577  0.69117  0.61192  1.0000
  H   H1954     1.0  0.28952  0.60903  0.56946  1.0000
  C   C2446     1.0  0.36545  0.70285  0.59380  1.0000
  S   S351      1.0  0.27354  0.81097  0.96123  1.0000
  H   H1955     1.0  0.24904  0.71611  0.92498  1.0000
  H   H1956     1.0  0.21978  0.75616  0.83052  1.0000
  C   C2447     1.0  0.27572  0.62593  0.59084  1.0000
  H   H1957     1.0  0.34292  0.75598  0.88674  1.0000
  H   H1958     1.0  0.21491  0.72131  0.67460  1.0000
  C   C2448     1.0  0.23110  0.81644  0.63993  1.0000
  C   C2449     1.0  0.32768  0.75876  0.89180  1.0000
  Fe  Fe178     1.0  0.38942  0.81512  0.84103  1.0000
  C   C2450     1.0  0.21060  0.66656  0.80990  1.0000
  C   C2451     1.0  0.23682  0.88113  0.67058  1.0000
  H   H1959     1.0  0.35509  0.82127  0.87077  1.0000
  Fe  Fe179     1.0  0.35231  0.70992  0.73023  1.0000
  C   C2452     1.0  0.20742  0.59146  0.72689  1.0000
  H   H1960     1.0  0.23934  0.53761  0.53988  1.0000
  C   C2453     1.0  0.29383  0.75686  0.84955  1.0000
  H   H1961     1.0  0.28336  0.74325  0.76968  1.0000
  H   H1962     1.0  0.20701  0.94324  0.68771  1.0000
  C   C2454     1.0  0.31268  0.95954  0.83959  1.0000
  C   C2455     1.0  0.35692  0.78268  0.78343  1.0000
  H   H1963     1.0  0.31292  0.77443  0.65558  1.0000
  C   C2456     1.0  0.37653  0.94037  0.83871  1.0000
  H   H1964     1.0  0.19102  0.60747  0.70557  1.0000
  H   H1965     1.0  0.34201  0.86363  0.87202  1.0000
  C   C2457     1.0  0.19436  0.74302  0.63633  1.0000
  S   S352      1.0  0.33489  0.68707  0.74255  1.0000
  C   C2458     1.0  0.34037  0.66850  0.73022  1.0000
  H   H1966     1.0  0.38030  0.93095  0.85161  1.0000
  S   S353      1.0  0.33643  0.74039  0.72701  1.0000
  S   S354      1.0  0.34706  0.76023  0.76529  1.0000
  C   C2459     1.0  0.27394  0.70818  0.50880  1.0000
  Fe  Fe180     1.0  0.35738  0.74553  0.69956  1.0000
  C   C2460     1.0  0.36781  0.79481  0.78505  1.0000
  C   C2461     1.0  0.31844  0.85926  0.76245  1.0000
  H   H1967     1.0  0.29490  0.53076  0.77408  1.0000
  C   C2462     1.0  0.21285  0.87637  0.58314  1.0000
  C   C2463     1.0  0.22272  0.50483  0.77056  1.0000
  C   C2464     1.0  0.22162  0.67270  0.87999  1.0000
  C   C2465     1.0  0.23632  0.98237  0.66191  1.0000
  C   C2466     1.0  0.36121  0.77502  0.76718  1.0000
  C   C2467     1.0  0.35471  0.85307  0.76941  1.0000
  H   H1968     1.0  0.23609  0.75532  0.93055  1.0000
  C   C2468     1.0  0.28701  0.72314  0.96941  1.0000
  C   C2469     1.0  0.23867  0.98032  0.60950  1.0000
  H   H1969     1.0  0.25904  0.50184  0.70542  1.0000
  H   H1970     1.0  0.19020  0.71868  0.65973  1.0000
  H   H1971     1.0  0.36263  0.69887  0.79363  1.0000
  C   C2470     1.0  0.21315  0.88260  0.65302  1.0000
  C   C2471     1.0  0.20362  0.53995  0.70709  1.0000
  H   H1972     1.0  0.23524  0.85771  0.65960  1.0000
  C   C2472     1.0  0.24167  0.71788  0.89848  1.0000
  H   H1973     1.0  0.23296  0.66655  0.90516  1.0000
  H   H1974     1.0  0.19291  0.84275  0.58898  1.0000
  S   S355      1.0  0.38720  0.84536  0.84268  1.0000
  H   H1975     1.0  0.20352  0.74618  0.54495  1.0000
  H   H1976     1.0  0.22496  0.79030  0.65902  1.0000
  C   C2473     1.0  0.19780  0.49173  0.76676  1.0000
  H   H1977     1.0  0.27991  0.74408  0.80868  1.0000
  C   C2474     1.0  0.26535  0.74455  0.88267  1.0000
  C   C2475     1.0  0.22639  0.77164  0.50706  1.0000
  C   C2476     1.0  0.21128  0.74220  0.57173  1.0000
  H   H1978     1.0  0.29427  0.77342  0.92867  1.0000
  C   C2477     1.0  0.29030  0.49061  0.72986  1.0000
  C   C2478     1.0  0.37786  0.92243  0.91545  1.0000
  H   H1979     1.0  0.19318  0.78773  0.58043  1.0000
  C   C2479     1.0  0.31278  0.73351  0.83083  1.0000
  C   C2480     1.0  0.19985  0.96615  0.76423  1.0000
  H   H1980     1.0  0.19391  0.75807  0.51075  1.0000
  H   H1981     1.0  0.20981  0.66874  0.57737  1.0000
  C   C2481     1.0  0.19300  0.57049  0.76547  1.0000
  H   H1982     1.0  0.36351  0.97307  0.79185  1.0000
  C   C2482     1.0  0.25838  0.48933  0.57240  1.0000
  C   C2483     1.0  0.30643  0.96521  0.85711  1.0000
  C   C2484     1.0  0.36241  0.84850  0.91458  1.0000
  P   P81       1.0  0.32829  0.97217  0.82032  1.0000
  H   H1983     1.0  0.20660  0.65277  0.81316  1.0000
  H   H1984     1.0  0.19864  0.74462  0.72386  1.0000
  C   C2485     1.0  0.19362  0.55122  0.77503  1.0000
  C   C2486     1.0  0.20440  0.60460  0.70993  1.0000
  P   P82       1.0  0.36419  0.88162  0.88630  1.0000
  C   C2487     1.0  0.21530  0.95408  0.68037  1.0000
  C   C2488     1.0  0.28238  0.48857  0.60310  1.0000
  C   C2489     1.0  0.36769  0.92976  0.90090  1.0000
  C   C2490     1.0  0.25458  0.97726  0.59500  1.0000
  C   C2491     1.0  0.27208  0.73897  0.96735  1.0000
  C   C2492     1.0  0.28840  0.76743  0.90435  1.0000
  H   H1985     1.0  0.29978  0.72612  0.86037  1.0000
  C   C2493     1.0  0.19839  0.74564  0.56004  1.0000
  H   H1986     1.0  0.31310  0.74504  0.49474  1.0000
  H   H1987     1.0  0.19873  0.49822  0.79279  1.0000
  H   H1988     1.0  0.31572  0.96822  0.74955  1.0000
  S   S356      1.0  0.19317  0.92905  0.72712  1.0000
  H   H1989     1.0  0.29877  0.98222  0.70503  1.0000
  C   C2494     1.0  0.20483  0.74120  0.59127  1.0000
  C   C2495     1.0  0.19998  0.69786  0.74618  1.0000
  H   H1990     1.0  0.22909  0.48625  0.58067  1.0000
  H   H1991     1.0  0.38247  0.77004  0.90476  1.0000
  C   C2496     1.0  0.19374  0.85568  0.96130  1.0000
  C   C2497     1.0  0.34001  0.71243  0.48802  1.0000
  H   H1992     1.0  0.19674  0.53037  0.80104  1.0000
  H   H1993     1.0  0.38460  0.87479  0.91726  1.0000
  C   C2498     1.0  0.20191  0.85395  0.48362  1.0000
  H   H1994     1.0  0.21621  0.62449  0.68559  1.0000
  C   C2499     1.0  0.38155  0.70969  0.58293  1.0000
  H   H1995     1.0  0.36298  0.94512  0.89638  1.0000
  C   C2500     1.0  0.19958  0.87025  0.94622  1.0000
  C   C2501     1.0  0.19955  0.78577  0.96857  1.0000
  C   C2502     1.0  0.22026  0.98226  0.65555  1.0000
  C   C2503     1.0  0.24173  0.96847  0.67750  1.0000
  H   H1996     1.0  0.25991  0.52100  0.67285  1.0000
  S   S357      1.0  0.38897  0.79073  0.86650  1.0000
  C   C2504     1.0  0.37717  0.49758  0.65620  1.0000
  C   C2505     1.0  0.19526  0.94316  0.74182  1.0000
  H   H1997     1.0  0.33846  0.49940  0.63951  1.0000
  C   C2506     1.0  0.38512  0.81841  0.91443  1.0000
  C   C2507     1.0  0.37266  0.85681  0.89699  1.0000
  C   C2508     1.0  0.38589  0.95513  0.80555  1.0000
  C   C2509     1.0  0.36868  0.82943  0.92327  1.0000
  C   C2510     1.0  0.27244  0.49023  0.74191  1.0000
  H   H1998     1.0  0.36033  0.82294  0.93653  1.0000
  C   C2511     1.0  0.38388  0.90261  0.92129  1.0000
  C   C2512     1.0  0.19464  0.85447  0.92396  1.0000
  H   H1999     1.0  0.38827  0.74364  0.79507  1.0000
  S   S358      1.0  0.19147  0.79064  0.88906  1.0000
  C   C2513     1.0  0.19243  0.71694  0.73859  1.0000
  H   H2000     1.0  0.23024  0.96937  0.61555  1.0000
  H   H2001     1.0  0.25827  0.96414  0.58981  1.0000
  C   C2514     1.0  0.38218  0.68640  0.61941  1.0000
  H   H2002     1.0  0.23197  0.97996  0.73652  1.0000
  S   S359      1.0  0.25695  0.98169  0.77062  1.0000
  H   H2003     1.0  0.38788  0.71065  0.64002  1.0000
  H   H2004     1.0  0.19042  0.74169  0.81634  1.0000
  H   H2005     1.0  0.19016  0.97971  0.70756  1.0000
  H   H2006     1.0  0.38954  0.80342  0.92085  1.0000
  C   C2515     1.0  0.38936  0.84568  0.88836  1.0000
  H   H2007     1.0  0.19079  0.51626  0.70947  1.0000
  C   C2516     1.0  0.19034  0.52830  0.71535  1.0000
  H   H2008     1.0  0.19076  0.68766  0.75242  1.0000
  H   H2009     1.0  0.47791  0.34895  0.18393  1.0000
  H   H2010     1.0  0.39581  0.05843  0.18211  1.0000
  Fe  Fe181     1.0  0.40146  0.30067  0.31255  1.0000
  H   H2011     1.0  0.41981  0.29469  0.42695  1.0000
  S   S360      1.0  0.43223  0.29016  0.31434  1.0000
  C   C2517     1.0  0.57859  0.29669  0.20802  1.0000
  P   P83       1.0  0.57723  0.00723  0.27246  1.0000
  C   C2518     1.0  0.46441  0.41519  0.20407  1.0000
  C   C2519     1.0  0.53416  0.26657  0.11782  1.0000
  Fe  Fe182     1.0  0.54513  0.31729  0.34147  1.0000
  S   S361      1.0  0.52576  0.34632  0.34002  1.0000
  S   S362      1.0  0.56216  0.30224  0.36434  1.0000
  Fe  Fe183     1.0  0.54164  0.31464  0.30229  1.0000
  S   S363      1.0  0.52237  0.34353  0.29780  1.0000
  S   S364      1.0  0.55196  0.30004  0.27741  1.0000
  Fe  Fe184     1.0  0.54187  0.35307  0.30998  1.0000
  S   S365      1.0  0.55188  0.38086  0.29641  1.0000
  Fe  Fe185     1.0  0.50803  0.33395  0.32807  1.0000
  S   S366      1.0  0.47602  0.34133  0.33579  1.0000
  S   S367      1.0  0.56240  0.32492  0.31203  1.0000
  S   S368      1.0  0.52611  0.30414  0.33195  1.0000
  H   H2012     1.0  0.51955  0.42976  0.44328  1.0000
  H   H2013     1.0  0.42240  0.37665  0.23860  1.0000
  H   H2014     1.0  0.40346  0.36309  0.18607  1.0000
  C   C2520     1.0  0.47353  0.38015  0.29679  1.0000
  C   C2521     1.0  0.41117  0.36607  0.29487  1.0000
  H   H2015     1.0  0.58351  0.26667  0.13375  1.0000
  C   C2522     1.0  0.54455  0.02078  0.29738  1.0000
  H   H2016     1.0  0.50994  0.39522  0.30385  1.0000
  P   P84       1.0  0.57939  0.33416  0.20889  1.0000
  H   H2017     1.0  0.54173  0.99358  0.27857  1.0000
  C   C2523     1.0  0.58053  0.22900  0.32829  1.0000
  C   C2524     1.0  0.47775  0.38351  0.27685  1.0000
  C   C2525     1.0  0.57545  0.38561  0.38322  1.0000
  C   C2526     1.0  0.42985  0.39659  0.28512  1.0000
  C   C2527     1.0  0.47398  0.30580  0.38160  1.0000
  C   C2528     1.0  0.44187  0.31876  0.39636  1.0000
  C   C2529     1.0  0.44780  0.17103  0.28156  1.0000
  C   C2530     1.0  0.46141  0.31736  0.39348  1.0000
  Fe  Fe186     1.0  0.51833  0.27823  0.19263  1.0000
  S   S369      1.0  0.50301  0.26789  0.17660  1.0000
  S   S370      1.0  0.53743  0.29945  0.18184  1.0000
  Fe  Fe187     1.0  0.49748  0.26026  0.23084  1.0000
  S   S371      1.0  0.47964  0.24837  0.21853  1.0000
  S   S372      1.0  0.49562  0.25775  0.26202  1.0000
  Fe  Fe188     1.0  0.50710  0.24024  0.19834  1.0000
  S   S373      1.0  0.51221  0.21287  0.18832  1.0000
  Fe  Fe189     1.0  0.47659  0.27659  0.19764  1.0000
  S   S374      1.0  0.45116  0.29586  0.18615  1.0000
  S   S375      1.0  0.52515  0.24970  0.21236  1.0000
  S   S376      1.0  0.49168  0.28932  0.21201  1.0000
  H   H2018     1.0  0.47678  0.28683  0.36323  1.0000
  S   S377      1.0  0.56134  0.13363  0.22322  1.0000
  C   C2531     1.0  0.47950  0.38949  0.22658  1.0000
  H   H2019     1.0  0.55955  0.36449  0.38437  1.0000
  C   C2532     1.0  0.46349  0.39278  0.24113  1.0000
  C   C2533     1.0  0.55878  0.29478  0.16546  1.0000
  C   C2534     1.0  0.56269  0.28081  0.15469  1.0000
  C   C2535     1.0  0.57216  0.30569  0.16321  1.0000
  H   H2020     1.0  0.42903  0.30877  0.21777  1.0000
  C   C2536     1.0  0.56962  0.99334  0.26032  1.0000
  H   H2021     1.0  0.55205  0.27288  0.15594  1.0000
  H   H2022     1.0  0.40244  0.29581  0.45979  1.0000
  H   H2023     1.0  0.51563  0.16538  0.24370  1.0000
  C   C2537     1.0  0.52656  0.19154  0.19839  1.0000
  C   C2538     1.0  0.54272  0.19126  0.20478  1.0000
  C   C2539     1.0  0.55413  0.17355  0.21189  1.0000
  C   C2540     1.0  0.54904  0.15626  0.21295  1.0000
  C   C2541     1.0  0.53289  0.15676  0.20657  1.0000
  C   C2542     1.0  0.52187  0.17424  0.19914  1.0000
  H   H2024     1.0  0.54653  0.20461  0.20402  1.0000
  H   H2025     1.0  0.56655  0.17326  0.21688  1.0000
  H   H2026     1.0  0.52884  0.14350  0.20741  1.0000
  H   H2027     1.0  0.50945  0.17435  0.19423  1.0000
  C   C2543     1.0  0.56740  0.19970  0.07243  1.0000
  C   C2544     1.0  0.56192  0.00756  0.29558  1.0000
  C   C2545     1.0  0.41722  0.30475  0.17549  1.0000
  C   C2546     1.0  0.42975  0.29034  0.18523  1.0000
  C   C2547     1.0  0.42481  0.27249  0.19376  1.0000
  C   C2548     1.0  0.40712  0.26939  0.19297  1.0000
  H   H2028     1.0  0.58834  0.43888  0.42548  1.0000
  H   H2029     1.0  0.42091  0.31854  0.16873  1.0000
  H   H2030     1.0  0.43456  0.26118  0.20099  1.0000
  C   C2549     1.0  0.58191  0.98688  0.24452  1.0000
  C   C2550     1.0  0.53243  0.02085  0.31517  1.0000
  C   C2551     1.0  0.50526  0.39546  0.27652  1.0000
  H   H2031     1.0  0.49565  0.32854  0.09613  1.0000
  C   C2552     1.0  0.44980  0.34830  0.20074  1.0000
  H   H2032     1.0  0.40335  0.25573  0.19986  1.0000
  C   C2553     1.0  0.40741  0.37674  0.24350  1.0000
  H   H2033     1.0  0.58689  0.34842  0.27764  1.0000
  H   H2034     1.0  0.51786  0.40097  0.26881  1.0000
  H   H2035     1.0  0.53081  0.36862  0.44983  1.0000
  H   H2036     1.0  0.50270  0.39439  0.34769  1.0000
  H   H2037     1.0  0.57885  0.16179  0.11264  1.0000
  C   C2554     1.0  0.53655  0.28766  0.27365  1.0000
  C   C2555     1.0  0.53805  0.28530  0.25529  1.0000
  C   C2556     1.0  0.52575  0.27589  0.25168  1.0000
  C   C2557     1.0  0.51213  0.26831  0.26656  1.0000
  C   C2558     1.0  0.51095  0.27018  0.28507  1.0000
  C   C2559     1.0  0.52306  0.27996  0.28860  1.0000
  H   H2038     1.0  0.54854  0.29105  0.24374  1.0000
  H   H2039     1.0  0.52665  0.27476  0.23733  1.0000
  H   H2040     1.0  0.50032  0.26451  0.29660  1.0000
  H   H2041     1.0  0.52185  0.28162  0.30285  1.0000
  C   C2560     1.0  0.56996  0.38361  0.30599  1.0000
  C   C2561     1.0  0.57743  0.40032  0.29923  1.0000
  H   H2042     1.0  0.41053  0.20675  0.27021  1.0000
  C   C2562     1.0  0.41831  0.19335  0.27725  1.0000
  C   C2563     1.0  0.51249  0.39683  0.35479  1.0000
  H   H2043     1.0  0.54225  0.24247  0.17038  1.0000
  H   H2044     1.0  0.57215  0.41146  0.28799  1.0000
  C   C2564     1.0  0.40572  0.30357  0.42933  1.0000
  H   H2045     1.0  0.40397  0.41188  0.29999  1.0000
  H   H2046     1.0  0.57649  0.04277  0.28320  1.0000
  C   C2565     1.0  0.55740  0.31136  0.38511  1.0000
  H   H2047     1.0  0.57298  0.25760  0.25584  1.0000
  C   C2566     1.0  0.57279  0.24003  0.31270  1.0000
  C   C2567     1.0  0.54997  0.32418  0.41921  1.0000
  C   C2568     1.0  0.53701  0.33093  0.40707  1.0000
  C   C2569     1.0  0.54085  0.32477  0.38992  1.0000
  H   H2048     1.0  0.53460  0.22470  0.15097  1.0000
  H   H2049     1.0  0.52395  0.34088  0.41099  1.0000
  H   H2050     1.0  0.53075  0.33000  0.38071  1.0000
  H   H2051     1.0  0.46481  0.42394  0.18982  1.0000
  H   H2052     1.0  0.48137  0.17271  0.24417  1.0000
  H   H2053     1.0  0.54668  0.32697  0.23929  1.0000
  H   H2054     1.0  0.49163  0.37816  0.22946  1.0000
  C   C2570     1.0  0.54185  0.38442  0.42221  1.0000
  C   C2571     1.0  0.57497  0.45311  0.37953  1.0000
  C   C2572     1.0  0.53814  0.40240  0.37337  1.0000
  H   H2055     1.0  0.57745  0.14158  0.18187  1.0000
  H   H2056     1.0  0.52807  0.00767  0.34503  1.0000
  H   H2057     1.0  0.46119  0.35796  0.23588  1.0000
  C   C2573     1.0  0.44427  0.30509  0.31941  1.0000
  C   C2574     1.0  0.46366  0.29876  0.31942  1.0000
  C   C2575     1.0  0.47361  0.31002  0.32396  1.0000
  C   C2576     1.0  0.46414  0.32757  0.32878  1.0000
  C   C2577     1.0  0.44481  0.33408  0.32845  1.0000
  C   C2578     1.0  0.43486  0.32288  0.32376  1.0000
  H   H2058     1.0  0.47102  0.28507  0.31593  1.0000
  H   H2059     1.0  0.48853  0.30493  0.32403  1.0000
  H   H2060     1.0  0.43753  0.34781  0.33181  1.0000
  H   H2061     1.0  0.41990  0.32786  0.32381  1.0000
  C   C2579     1.0  0.46951  0.32531  0.06657  1.0000
  C   C2580     1.0  0.55986  0.43797  0.35763  1.0000
  H   H2062     1.0  0.39322  0.19276  0.11987  1.0000
  C   C2581     1.0  0.40790  0.28921  0.36618  1.0000
  H   H2063     1.0  0.48233  0.34281  0.28776  1.0000
  H   H2064     1.0  0.53089  0.26740  0.13265  1.0000
  H   H2065     1.0  0.51721  0.39748  0.46358  1.0000
  S   S378      1.0  0.54426  0.33075  0.44136  1.0000
  C   C2582     1.0  0.40824  0.18092  0.29138  1.0000
  C   C2583     1.0  0.56873  0.16464  0.15921  1.0000
  C   C2584     1.0  0.47996  0.40067  0.20817  1.0000
  C   C2585     1.0  0.53746  0.00759  0.33124  1.0000
  C   C2586     1.0  0.48961  0.31942  0.15637  1.0000
  C   C2587     1.0  0.43201  0.30946  0.23094  1.0000
  H   H2066     1.0  0.39073  0.10448  0.06449  1.0000
  S   S379      1.0  0.56102  0.35455  0.47231  1.0000
  S   S380      1.0  0.58823  0.35292  0.42975  1.0000
  H   H2067     1.0  0.41544  0.29872  0.35478  1.0000
  C   C2588     1.0  0.44665  0.29398  0.25802  1.0000
  C   C2589     1.0  0.43936  0.31054  0.26531  1.0000
  C   C2590     1.0  0.42889  0.32675  0.25520  1.0000
  H   H2068     1.0  0.40386  0.35425  0.29875  1.0000
  C   C2591     1.0  0.58666  0.21811  0.15510  1.0000
  C   C2592     1.0  0.54176  0.33323  0.22609  1.0000
  C   C2593     1.0  0.54768  0.34595  0.19209  1.0000
  H   H2069     1.0  0.39636  0.98840  0.11074  1.0000
  Fe  Fe190     1.0  0.56843  0.33577  0.45106  1.0000
  C   C2594     1.0  0.46388  0.35734  0.18810  1.0000
  H   H2070     1.0  0.47862  0.32273  0.16845  1.0000
  C   C2595     1.0  0.57269  0.07025  0.23938  1.0000
  C   C2596     1.0  0.57475  0.03683  0.24000  1.0000
  C   C2597     1.0  0.42981  0.36404  0.28443  1.0000
  H   H2071     1.0  0.56415  0.46337  0.33596  1.0000
  H   H2072     1.0  0.45507  0.28153  0.26578  1.0000
  H   H2073     1.0  0.44245  0.31107  0.27849  1.0000
  H   H2074     1.0  0.42373  0.33950  0.26095  1.0000
  C   C2598     1.0  0.56359  0.20993  0.14256  1.0000
  C   C2599     1.0  0.42998  0.19731  0.21052  1.0000
  C   C2600     1.0  0.44509  0.19897  0.19495  1.0000
  C   C2601     1.0  0.46185  0.20243  0.19706  1.0000
  C   C2602     1.0  0.46342  0.20442  0.21464  1.0000
  C   C2603     1.0  0.44850  0.20220  0.23052  1.0000
  C   C2604     1.0  0.43164  0.19892  0.22821  1.0000
  P   P85       1.0  0.45064  0.20471  0.25330  1.0000
  C   C2605     1.0  0.47560  0.19912  0.25396  1.0000
  C   C2606     1.0  0.43889  0.22844  0.25713  1.0000
  C   C2607     1.0  0.43730  0.23287  0.27471  1.0000
  C   C2608     1.0  0.42681  0.25060  0.27848  1.0000
  C   C2609     1.0  0.41760  0.26386  0.26484  1.0000
  C   C2610     1.0  0.41920  0.25960  0.24729  1.0000
  C   C2611     1.0  0.42969  0.24192  0.24347  1.0000
  C   C2612     1.0  0.50081  0.39224  0.29633  1.0000
  C   C2613     1.0  0.56969  0.43534  0.38682  1.0000
  C   C2614     1.0  0.52562  0.41712  0.43736  1.0000
  C   C2615     1.0  0.50332  0.20753  0.25824  1.0000
  C   C2616     1.0  0.48383  0.21171  0.25879  1.0000
  C   C2617     1.0  0.40276  0.27420  0.36199  1.0000
  C   C2618     1.0  0.39226  0.26228  0.37623  1.0000
  C   C2619     1.0  0.57273  0.46332  0.36130  1.0000
  C   C2620     1.0  0.57396  0.06536  0.25848  1.0000
  C   C2621     1.0  0.44785  0.40727  0.23681  1.0000
  C   C2622     1.0  0.44835  0.41843  0.21836  1.0000
  H   H2075     1.0  0.41687  0.19482  0.20892  1.0000
  H   H2076     1.0  0.44375  0.19768  0.18128  1.0000
  H   H2077     1.0  0.47369  0.20360  0.18513  1.0000
  H   H2078     1.0  0.47638  0.20759  0.21575  1.0000
  H   H2079     1.0  0.41963  0.19776  0.23991  1.0000
  H   H2080     1.0  0.44402  0.22254  0.28557  1.0000
  H   H2081     1.0  0.42576  0.25407  0.29198  1.0000
  H   H2082     1.0  0.40929  0.27754  0.26780  1.0000
  H   H2083     1.0  0.41213  0.26998  0.23669  1.0000
  H   H2084     1.0  0.43020  0.23874  0.23003  1.0000
  H   H2085     1.0  0.47198  0.32430  0.23269  1.0000
  H   H2086     1.0  0.44521  0.14524  0.30308  1.0000
  H   H2087     1.0  0.50962  0.21744  0.26172  1.0000
  H   H2088     1.0  0.47550  0.22502  0.26250  1.0000
  C   C2623     1.0  0.56184  0.42772  0.37605  1.0000
  C   C2624     1.0  0.58686  0.27833  0.20464  1.0000
  C   C2625     1.0  0.43471  0.30860  0.38734  1.0000
  C   C2626     1.0  0.54459  0.39703  0.35575  1.0000
  C   C2627     1.0  0.56011  0.19537  0.09202  1.0000
  H   H2089     1.0  0.51320  0.33089  0.23948  1.0000
  C   C2628     1.0  0.39986  0.30159  0.17447  1.0000
  C   C2629     1.0  0.48578  0.32004  0.27373  1.0000
  H   H2090     1.0  0.50969  0.33218  0.16220  1.0000
  H   H2091     1.0  0.57787  0.26858  0.20563  1.0000
  C   C2630     1.0  0.56529  0.45569  0.35032  1.0000
  C   C2631     1.0  0.50699  0.32479  0.15280  1.0000
  H   H2092     1.0  0.57420  0.26419  0.28921  1.0000
  C   C2632     1.0  0.43769  0.15866  0.29583  1.0000
  C   C2633     1.0  0.53211  0.38269  0.44111  1.0000
  H   H2093     1.0  0.55721  0.34971  0.17867  1.0000
  H   H2094     1.0  0.51911  0.03118  0.31648  1.0000
  H   H2095     1.0  0.48183  0.38152  0.32184  1.0000
  C   C2634     1.0  0.43815  0.18843  0.27200  1.0000
  H   H2096     1.0  0.46305  0.16691  0.27817  1.0000
  C   C2635     1.0  0.52526  0.27353  0.08733  1.0000
  C   C2636     1.0  0.51599  0.34253  0.20934  1.0000
  C   C2637     1.0  0.39439  0.28412  0.18350  1.0000
  H   H2097     1.0  0.57069  0.35668  0.32635  1.0000
  H   H2098     1.0  0.57166  0.08507  0.23165  1.0000
  C   C2638     1.0  0.58175  0.33813  0.23096  1.0000
  P   P86       1.0  0.40930  0.31196  0.38996  1.0000
  H   H2099     1.0  0.47067  0.38400  0.17070  1.0000
  C   C2639     1.0  0.57117  0.35691  0.25539  1.0000
  H   H2100     1.0  0.56180  0.17442  0.16865  1.0000
  C   C2640     1.0  0.55257  0.25821  0.10978  1.0000
  H   H2101     1.0  0.57226  0.05975  0.21531  1.0000
  C   C2641     1.0  0.53178  0.39424  0.34655  1.0000
  H   H2102     1.0  0.49202  0.30924  0.28460  1.0000
  H   H2103     1.0  0.48672  0.29993  0.25716  1.0000
  C   C2642     1.0  0.42751  0.37882  0.19863  1.0000
  C   C2643     1.0  0.54922  0.22284  0.15177  1.0000
  C   C2644     1.0  0.56675  0.99408  0.31173  1.0000
  H   H2104     1.0  0.52989  0.18776  0.25212  1.0000
  H   H2105     1.0  0.43519  0.41001  0.24751  1.0000
  H   H2106     1.0  0.54787  0.37154  0.41668  1.0000
  H   H2107     1.0  0.50127  0.34348  0.20942  1.0000
  C   C2645     1.0  0.40393  0.36597  0.35569  1.0000
  C   C2646     1.0  0.52263  0.33537  0.22624  1.0000
  C   C2647     1.0  0.48289  0.31478  0.25826  1.0000
  C   C2648     1.0  0.41792  0.16356  0.30067  1.0000
  C   C2649     1.0  0.57025  0.30457  0.39738  1.0000
  C   C2650     1.0  0.55445  0.33851  0.20902  1.0000
  C   C2651     1.0  0.56732  0.20127  0.10462  1.0000
  H   H2108     1.0  0.56907  0.31662  0.17129  1.0000
  P   P87       1.0  0.55817  0.19499  0.12997  1.0000
  C   C2652     1.0  0.53278  0.19790  0.13387  1.0000
  C   C2653     1.0  0.56896  0.17059  0.13963  1.0000
  H   H2109     1.0  0.55807  0.36247  0.23164  1.0000
  H   H2110     1.0  0.57534  0.02608  0.23239  1.0000
  C   C2654     1.0  0.57557  0.04625  0.26839  1.0000
  C   C2655     1.0  0.44751  0.29687  0.37556  1.0000
  C   C2656     1.0  0.43911  0.37950  0.27898  1.0000
  C   C2657     1.0  0.52314  0.18530  0.14847  1.0000
  C   C2658     1.0  0.50349  0.18767  0.15127  1.0000
  C   C2659     1.0  0.49334  0.20257  0.13950  1.0000
  C   C2660     1.0  0.50281  0.21528  0.12505  1.0000
  C   C2661     1.0  0.52243  0.21310  0.12236  1.0000
  C   C2662     1.0  0.51866  0.40526  0.38145  1.0000
  C   C2663     1.0  0.51475  0.19082  0.25287  1.0000
  P   P88       1.0  0.46287  0.37747  0.26465  1.0000
  H   H2111     1.0  0.57467  0.21687  0.33721  1.0000
  C   C2664     1.0  0.52428  0.39897  0.44879  1.0000
  C   C2665     1.0  0.46857  0.34767  0.24626  1.0000
  C   C2666     1.0  0.49379  0.39117  0.26678  1.0000
  H   H2112     1.0  0.46686  0.32559  0.40006  1.0000
  C   C2667     1.0  0.57296  0.05600  0.23020  1.0000
  H   H2113     1.0  0.40253  0.39933  0.25847  1.0000
  C   C2668     1.0  0.48496  0.38460  0.30644  1.0000
  C   C2669     1.0  0.39275  0.27982  0.39915  1.0000
  H   H2114     1.0  0.56179  0.19515  0.06277  1.0000
  C   C2670     1.0  0.56677  0.31126  0.41412  1.0000
  C   C2671     1.0  0.42524  0.32635  0.23787  1.0000
  C   C2672     1.0  0.53494  0.41896  0.41830  1.0000
  H   H2115     1.0  0.53069  0.17375  0.15784  1.0000
  H   H2116     1.0  0.49615  0.17798  0.16268  1.0000
  H   H2117     1.0  0.47810  0.20442  0.14173  1.0000
  H   H2118     1.0  0.49489  0.22700  0.11611  1.0000
  H   H2119     1.0  0.52953  0.22329  0.11132  1.0000
  H   H2120     1.0  0.52352  0.35289  0.17907  1.0000
  C   C2673     1.0  0.47178  0.35315  0.26160  1.0000
  H   H2121     1.0  0.40657  0.27209  0.34755  1.0000
  C   C2674     1.0  0.54366  0.26510  0.07938  1.0000
  C   C2675     1.0  0.48028  0.33915  0.27544  1.0000
  C   C2676     1.0  0.47817  0.24385  0.15634  1.0000
  C   C2677     1.0  0.45852  0.25005  0.15902  1.0000
  C   C2678     1.0  0.45071  0.26743  0.14812  1.0000
  C   C2679     1.0  0.46254  0.27872  0.13473  1.0000
  C   C2680     1.0  0.48236  0.27248  0.13180  1.0000
  C   C2681     1.0  0.49005  0.25493  0.14273  1.0000
  P   P89       1.0  0.49760  0.28819  0.11624  1.0000
  C   C2682     1.0  0.50101  0.30337  0.12987  1.0000
  C   C2683     1.0  0.52042  0.27466  0.10656  1.0000
  H   H2122     1.0  0.54754  0.26475  0.06440  1.0000
  C   C2684     1.0  0.44159  0.38779  0.18585  1.0000
  C   C2685     1.0  0.39624  0.38956  0.25482  1.0000
  C   C2686     1.0  0.57667  0.36938  0.32067  1.0000
  H   H2123     1.0  0.49095  0.40439  0.37862  1.0000
  C   C2687     1.0  0.48657  0.30890  0.14487  1.0000
  C   C2688     1.0  0.41120  0.39855  0.29558  1.0000
  H   H2124     1.0  0.53533  0.43317  0.40960  1.0000
  C   C2689     1.0  0.52124  0.31994  0.13748  1.0000
  C   C2690     1.0  0.51822  0.30945  0.12592  1.0000
  C   C2691     1.0  0.48640  0.30285  0.09698  1.0000
  C   C2692     1.0  0.47652  0.29487  0.08847  1.0000
  C   C2693     1.0  0.46807  0.30610  0.07336  1.0000
  C   C2694     1.0  0.47944  0.33330  0.07487  1.0000
  C   C2695     1.0  0.48790  0.32213  0.09000  1.0000
  H   H2125     1.0  0.48433  0.23069  0.16511  1.0000
  H   H2126     1.0  0.44932  0.24167  0.16988  1.0000
  H   H2127     1.0  0.43545  0.27249  0.15061  1.0000
  H   H2128     1.0  0.45617  0.29260  0.12719  1.0000
  H   H2129     1.0  0.50517  0.24993  0.14133  1.0000
  H   H2130     1.0  0.54036  0.03103  0.28502  1.0000
  C   C2696     1.0  0.45980  0.37707  0.18067  1.0000
  H   H2131     1.0  0.41179  0.37738  0.35074  1.0000
  H   H2132     1.0  0.51513  0.27963  0.07819  1.0000
  H   H2133     1.0  0.47311  0.30461  0.14816  1.0000
  C   C2697     1.0  0.40314  0.29206  0.38482  1.0000
  C   C2698     1.0  0.54356  0.40257  0.41068  1.0000
  H   H2134     1.0  0.53487  0.32375  0.13498  1.0000
  H   H2135     1.0  0.52951  0.30577  0.11420  1.0000
  H   H2136     1.0  0.47544  0.27995  0.09346  1.0000
  C   C2699     1.0  0.39726  0.31413  0.41392  1.0000
  P   P90       1.0  0.55482  0.40481  0.38582  1.0000
  H   H2137     1.0  0.43686  0.35034  0.28084  1.0000
  H   H2138     1.0  0.48065  0.34817  0.06952  1.0000
  C   C2700     1.0  0.57756  0.14601  0.16679  1.0000
  H   H2139     1.0  0.44270  0.28905  0.36809  1.0000
  H   H2140     1.0  0.54892  0.18731  0.09735  1.0000
  H   H2141     1.0  0.45326  0.33292  0.20590  1.0000
  H   H2142     1.0  0.57675  0.30587  0.42348  1.0000
  H   H2143     1.0  0.55954  0.39485  0.34921  1.0000
  H   H2144     1.0  0.57178  0.25206  0.08402  1.0000
  H   H2145     1.0  0.58290  0.29400  0.39412  1.0000
  H   H2146     1.0  0.56139  0.36853  0.26132  1.0000
  C   C2701     1.0  0.55159  0.98874  0.26652  1.0000
  C   C2702     1.0  0.56929  0.35334  0.23861  1.0000
  H   H2147     1.0  0.57737  0.47683  0.35541  1.0000
  P   P91       1.0  0.41355  0.34778  0.22372  1.0000
  H   H2148     1.0  0.46299  0.33398  0.05483  1.0000
  H   H2149     1.0  0.46168  0.37363  0.30502  1.0000
  H   H2150     1.0  0.41010  0.15390  0.31160  1.0000
  H   H2151     1.0  0.51327  0.40945  0.39499  1.0000
  H   H2152     1.0  0.49768  0.39368  0.25150  1.0000
  H   H2153     1.0  0.43833  0.40305  0.17990  1.0000
  C   C2703     1.0  0.55353  0.23305  0.16280  1.0000
  H   H2154     1.0  0.44878  0.28072  0.23496  1.0000
  H   H2155     1.0  0.43627  0.42967  0.21517  1.0000
  C   C2704     1.0  0.43157  0.35903  0.20639  1.0000
  H   H2156     1.0  0.56085  0.23659  0.30956  1.0000
  H   H2157     1.0  0.43234  0.32823  0.40518  1.0000
  C   C2705     1.0  0.50669  0.17821  0.24809  1.0000
  H   H2158     1.0  0.56328  0.30072  0.21132  1.0000
  H   H2159     1.0  0.48909  0.30515  0.37890  1.0000
  C   C2706     1.0  0.46703  0.29547  0.37277  1.0000
  C   C2707     1.0  0.40118  0.33371  0.37357  1.0000
  C   C2708     1.0  0.57601  0.03178  0.25923  1.0000
  H   H2160     1.0  0.46043  0.29988  0.06687  1.0000
  C   C2709     1.0  0.57338  0.36728  0.38315  1.0000
  S   S381      1.0  0.57800  0.40227  0.44302  1.0000
  C   C2710     1.0  0.55458  0.99418  0.32951  1.0000
  C   C2711     1.0  0.47452  0.32862  0.24441  1.0000
  H   H2161     1.0  0.49241  0.39809  0.19709  1.0000
  H   H2162     1.0  0.39649  0.09824  0.12820  1.0000
  C   C2712     1.0  0.57224  0.23081  0.16436  1.0000
  C   C2713     1.0  0.40179  0.38339  0.30019  1.0000
  C   C2714     1.0  0.41109  0.34874  0.36736  1.0000
  H   H2163     1.0  0.57186  0.42740  0.40082  1.0000
  C   C2715     1.0  0.44311  0.29352  0.24071  1.0000
  H   H2164     1.0  0.41215  0.06942  0.14889  1.0000
  H   H2165     1.0  0.43702  0.40844  0.28165  1.0000
  H   H2166     1.0  0.53683  0.38989  0.33310  1.0000
  C   C2716     1.0  0.39925  0.36403  0.23875  1.0000
  C   C2717     1.0  0.58035  0.27747  0.14206  1.0000
  C   C2718     1.0  0.58559  0.34550  0.26461  1.0000
  H   H2167     1.0  0.55439  0.43226  0.34876  1.0000
  C   C2719     1.0  0.50591  0.40242  0.37220  1.0000
  H   H2168     1.0  0.41344  0.38732  0.20242  1.0000
  H   H2169     1.0  0.57381  0.07645  0.26551  1.0000
  H   H2170     1.0  0.42446  0.34722  0.37121  1.0000
  C   C2720     1.0  0.39812  0.07712  0.15431  1.0000
  C   C2721     1.0  0.48726  0.18239  0.24847  1.0000
  C   C2722     1.0  0.55736  0.25775  0.09051  1.0000
  H   H2171     1.0  0.57552  0.23890  0.17279  1.0000
  C   C2723     1.0  0.52850  0.34788  0.19227  1.0000
  H   H2172     1.0  0.58129  0.45873  0.38782  1.0000
  H   H2173     1.0  0.56330  0.25257  0.11834  1.0000
  C   C2724     1.0  0.58036  0.25563  0.30116  1.0000
  C   C2725     1.0  0.58210  0.21129  0.09728  1.0000
  H   H2174     1.0  0.58092  0.26239  0.38897  1.0000
  H   H2175     1.0  0.39291  0.18477  0.29491  1.0000
  C   C2726     1.0  0.57813  0.15756  0.12779  1.0000
  C   C2727     1.0  0.58228  0.20751  0.14452  1.0000
  Fe  Fe191     1.0  0.58253  0.37021  0.45171  1.0000
  C   C2728     1.0  0.58213  0.20972  0.06528  1.0000
  H   H2176     1.0  0.58654  0.28596  0.25155  1.0000
  H   H2177     1.0  0.58803  0.21598  0.10651  1.0000
  C   C2729     1.0  0.58666  0.13315  0.15493  1.0000
  H   H2178     1.0  0.58792  0.21300  0.05012  1.0000
  C   C2730     1.0  0.39844  0.34158  0.21200  1.0000
  C   C2731     1.0  0.58692  0.13891  0.13546  1.0000
  C   C2732     1.0  0.58969  0.30226  0.15089  1.0000
  C   C2733     1.0  0.58954  0.21538  0.07773  1.0000
  C   C2734     1.0  0.39560  0.35207  0.19391  1.0000
  C   C2735     1.0  0.39584  0.30403  0.44798  1.0000
  H   H2179     1.0  0.39046  0.31291  0.16677  1.0000
  C   C2736     1.0  0.58823  0.25626  0.25245  1.0000
  H   H2180     1.0  0.58744  0.33819  0.38171  1.0000
  C   C2737     1.0  0.58920  0.35226  0.38168  1.0000
  C   C2738     1.0  0.57965  0.43421  0.47401  1.0000
  H   H2181     1.0  0.56639  0.44441  0.47308  1.0000
  H   H2182     1.0  0.58729  0.26228  0.35506  1.0000
  C   C2739     1.0  0.42632  0.21127  0.86539  1.0000
  H   H2183     1.0  0.56955  0.41636  0.63152  1.0000
  Fe  Fe192     1.0  0.42363  0.35192  0.65363  1.0000
  S   S382      1.0  0.42033  0.33078  0.68138  1.0000
  S   S383      1.0  0.44995  0.36416  0.64246  1.0000
  C   C2740     1.0  0.56594  0.40925  0.72326  1.0000
  H   H2184     1.0  0.40153  0.17539  0.88168  1.0000
  S   S384      1.0  0.41528  0.33433  0.63819  1.0000
  C   C2741     1.0  0.49811  0.42735  0.67205  1.0000
  Fe  Fe193     1.0  0.49854  0.38285  0.70997  1.0000
  S   S385      1.0  0.50592  0.35297  0.72685  1.0000
  S   S386      1.0  0.46862  0.39456  0.70545  1.0000
  Fe  Fe194     1.0  0.53804  0.38970  0.70418  1.0000
  S   S387      1.0  0.54905  0.36039  0.72029  1.0000
  S   S388      1.0  0.55753  0.41004  0.68925  1.0000
  Fe  Fe195     1.0  0.53280  0.35033  0.70492  1.0000
  S   S389      1.0  0.54385  0.32287  0.69454  1.0000
  Fe  Fe196     1.0  0.52134  0.36534  0.74096  1.0000
  S   S390      1.0  0.51887  0.35472  0.77247  1.0000
  S   S391      1.0  0.52425  0.37921  0.68668  1.0000
  S   S392      1.0  0.51157  0.39578  0.72618  1.0000
  H   H2185     1.0  0.46419  0.35428  0.76173  1.0000
  C   C2742     1.0  0.53449  0.34800  0.81990  1.0000
  S   S393      1.0  0.42715  0.21292  0.78817  1.0000
  Fe  Fe197     1.0  0.53568  0.24802  0.81234  1.0000
  S   S394      1.0  0.51416  0.25601  0.83782  1.0000
  S   S395      1.0  0.55272  0.26579  0.78792  1.0000
  Fe  Fe198     1.0  0.53175  0.20671  0.82311  1.0000
  S   S396      1.0  0.51008  0.21055  0.84969  1.0000
  S   S397      1.0  0.54155  0.17864  0.81373  1.0000
  Fe  Fe199     1.0  0.49724  0.23798  0.83176  1.0000
  S   S398      1.0  0.46546  0.24721  0.83433  1.0000
  Fe  Fe200     1.0  0.52862  0.22800  0.85379  1.0000
  S   S399      1.0  0.53595  0.22176  0.88253  1.0000
  S   S400      1.0  0.51750  0.23272  0.80477  1.0000
  S   S401      1.0  0.55156  0.22154  0.82880  1.0000
  C   C2743     1.0  0.42189  0.35476  0.58509  1.0000
  H   H2186     1.0  0.44534  0.08986  0.73652  1.0000
  C   C2744     1.0  0.55839  0.23172  0.75573  1.0000
  H   H2187     1.0  0.52561  0.42133  0.75056  1.0000
  H   H2188     1.0  0.45774  0.30245  0.52436  1.0000
  C   C2745     1.0  0.58249  0.31881  0.86897  1.0000
  C   C2746     1.0  0.42896  0.37882  0.74119  1.0000
  H   H2189     1.0  0.44324  0.36234  0.54805  1.0000
  H   H2190     1.0  0.39577  0.41946  0.74671  1.0000
  C   C2747     1.0  0.54916  0.23628  0.88646  1.0000
  C   C2748     1.0  0.56196  0.22813  0.89866  1.0000
  H   H2191     1.0  0.55382  0.46336  0.70838  1.0000
  C   C2749     1.0  0.40608  0.36784  0.59230  1.0000
  C   C2750     1.0  0.55584  0.26750  0.88330  1.0000
  C   C2751     1.0  0.54634  0.25596  0.87852  1.0000
  C   C2752     1.0  0.56989  0.47802  0.65366  1.0000
  H   H2192     1.0  0.40999  0.19842  0.71244  1.0000
  C   C2753     1.0  0.40881  0.12845  0.73977  1.0000
  H   H2193     1.0  0.53637  0.26236  0.86924  1.0000
  C   C2754     1.0  0.56639  0.17266  0.80842  1.0000
  C   C2755     1.0  0.56867  0.34361  0.81307  1.0000
  H   H2194     1.0  0.48356  0.33662  0.62913  1.0000
  C   C2756     1.0  0.51192  0.45344  0.68337  1.0000
  C   C2757     1.0  0.57213  0.34002  0.67002  1.0000
  C   C2758     1.0  0.39834  0.19380  0.72336  1.0000
  C   C2759     1.0  0.56504  0.40759  0.60805  1.0000
  H   H2195     1.0  0.42257  0.32396  0.80107  1.0000
  H   H2196     1.0  0.57543  0.36535  0.50869  1.0000
  H   H2197     1.0  0.41264  0.42195  0.62885  1.0000
  C   C2760     1.0  0.43770  0.22273  0.80082  1.0000
  C   C2761     1.0  0.42747  0.23797  0.80945  1.0000
  C   C2762     1.0  0.43615  0.24548  0.81961  1.0000
  C   C2763     1.0  0.45510  0.23784  0.82110  1.0000
  C   C2764     1.0  0.46534  0.22264  0.81240  1.0000
  C   C2765     1.0  0.45667  0.21514  0.80225  1.0000
  H   H2198     1.0  0.41287  0.24390  0.80829  1.0000
  H   H2199     1.0  0.42820  0.25722  0.82636  1.0000
  H   H2200     1.0  0.47984  0.21647  0.81380  1.0000
  H   H2201     1.0  0.46461  0.20329  0.79565  1.0000
  C   C2766     1.0  0.52696  0.32975  0.77696  1.0000
  C   C2767     1.0  0.52437  0.31879  0.79558  1.0000
  C   C2768     1.0  0.53202  0.29899  0.79914  1.0000
  C   C2769     1.0  0.54229  0.29022  0.78405  1.0000
  C   C2770     1.0  0.54451  0.30110  0.76547  1.0000
  C   C2771     1.0  0.53667  0.32075  0.76191  1.0000
  H   H2202     1.0  0.51644  0.32557  0.80721  1.0000
  H   H2203     1.0  0.53024  0.29060  0.81355  1.0000
  H   H2204     1.0  0.55195  0.29425  0.75378  1.0000
  H   H2205     1.0  0.53837  0.32891  0.74749  1.0000
  H   H2206     1.0  0.54539  0.98706  0.87113  1.0000
  C   C2772     1.0  0.57654  0.46994  0.68518  1.0000
  H   H2207     1.0  0.47938  0.35191  0.78805  1.0000
  C   C2773     1.0  0.42222  0.11397  0.73197  1.0000
  C   C2774     1.0  0.42603  0.38044  0.60467  1.0000
  H   H2208     1.0  0.56390  0.35333  0.67382  1.0000
  C   C2775     1.0  0.45464  0.31542  0.52970  1.0000
  C   C2776     1.0  0.57373  0.15259  0.86050  1.0000
  C   C2777     1.0  0.57105  0.41388  0.70342  1.0000
  H   H2209     1.0  0.43281  0.30027  0.77959  1.0000
  C   C2778     1.0  0.40156  0.22289  0.93080  1.0000
  H   H2210     1.0  0.55016  0.36674  0.79790  1.0000
  H   H2211     1.0  0.56984  0.20189  0.79781  1.0000
  H   H2212     1.0  0.44286  0.37438  0.73280  1.0000
  C   C2779     1.0  0.58039  0.26323  0.82733  1.0000
  H   H2213     1.0  0.55361  0.30783  0.84901  1.0000
  H   H2214     1.0  0.40617  0.27680  0.73818  1.0000
  C   C2780     1.0  0.43433  0.10270  0.76096  1.0000
  C   C2781     1.0  0.56987  0.32691  0.82757  1.0000
  H   H2215     1.0  0.56641  0.40977  0.48540  1.0000
  H   H2216     1.0  0.49625  0.11445  0.93945  1.0000
  H   H2217     1.0  0.42147  0.25387  0.70738  1.0000
  C   C2782     1.0  0.45491  0.37301  0.65979  1.0000
  C   C2783     1.0  0.44052  0.37844  0.67477  1.0000
  C   C2784     1.0  0.44473  0.38533  0.68863  1.0000
  C   C2785     1.0  0.46345  0.38610  0.68794  1.0000
  C   C2786     1.0  0.47779  0.38062  0.67295  1.0000
  C   C2787     1.0  0.47345  0.37451  0.65869  1.0000
  H   H2218     1.0  0.42614  0.37743  0.67564  1.0000
  H   H2219     1.0  0.43349  0.38981  0.69998  1.0000
  H   H2220     1.0  0.49219  0.38141  0.67211  1.0000
  H   H2221     1.0  0.48455  0.37081  0.64692  1.0000
  C   C2788     1.0  0.57557  0.33129  0.76945  1.0000
  H   H2222     1.0  0.47315  0.43351  0.69349  1.0000
  C   C2789     1.0  0.44379  0.32862  0.81279  1.0000
  H   H2223     1.0  0.55195  0.23102  0.77066  1.0000
  C   C2790     1.0  0.40828  0.13031  0.75812  1.0000
  H   H2224     1.0  0.49288  0.41704  0.66796  1.0000
  H   H2225     1.0  0.57784  0.14452  0.84948  1.0000
  H   H2226     1.0  0.47236  0.32193  0.75299  1.0000
  C   C2791     1.0  0.52312  0.44283  0.72487  1.0000
  H   H2227     1.0  0.49867  0.47853  0.75797  1.0000
  C   C2792     1.0  0.44039  0.43072  0.66180  1.0000
  C   C2793     1.0  0.45001  0.42234  0.64635  1.0000
  C   C2794     1.0  0.43988  0.41935  0.63449  1.0000
  H   H2228     1.0  0.57335  0.31019  0.72691  1.0000
  H   H2229     1.0  0.49897  0.14344  0.91359  1.0000
  C   C2795     1.0  0.43863  0.30197  0.59326  1.0000
  H   H2230     1.0  0.42648  0.27139  0.63546  1.0000
  C   C2796     1.0  0.45852  0.34679  0.77588  1.0000
  C   C2797     1.0  0.58620  0.30141  0.72043  1.0000
  C   C2798     1.0  0.50795  0.47510  0.72897  1.0000
  H   H2231     1.0  0.42388  0.30307  0.72632  1.0000
  H   H2232     1.0  0.57214  0.41803  0.59738  1.0000
  H   H2233     1.0  0.46526  0.41745  0.64403  1.0000
  H   H2234     1.0  0.44732  0.41198  0.62310  1.0000
  C   C2799     1.0  0.40778  0.29660  0.62344  1.0000
  C   C2800     1.0  0.44040  0.28607  0.60839  1.0000
  C   C2801     1.0  0.40666  0.25896  0.70671  1.0000
  H   H2235     1.0  0.41340  0.44203  0.67780  1.0000
  S   S402      1.0  0.41871  0.28273  0.67296  1.0000
  H   H2236     1.0  0.52088  0.35594  0.81665  1.0000
  C   C2802     1.0  0.43084  0.17203  0.86771  1.0000
  H   H2237     1.0  0.39609  0.29488  0.63550  1.0000
  C   C2803     1.0  0.52317  0.44379  0.66913  1.0000
  C   C2804     1.0  0.58247  0.28218  0.82391  1.0000
  P   P92       1.0  0.41909  0.33666  0.57456  1.0000
  C   C2805     1.0  0.44185  0.36745  0.59757  1.0000
  H   H2238     1.0  0.43802  0.32169  0.82714  1.0000
  H   H2239     1.0  0.48588  0.32577  0.69302  1.0000
  H   H2240     1.0  0.44410  0.09261  0.76924  1.0000
  C   C2806     1.0  0.39794  0.33155  0.75882  1.0000
  C   C2807     1.0  0.51412  0.39007  0.59089  1.0000
  H   H2241     1.0  0.57808  0.27495  0.73588  1.0000
  C   C2808     1.0  0.39355  0.39106  0.76332  1.0000
  H   H2242     1.0  0.57684  0.29266  0.81242  1.0000
  C   C2809     1.0  0.58665  0.42251  0.69472  1.0000
  C   C2810     1.0  0.57695  0.18706  0.80127  1.0000
  C   C2811     1.0  0.41087  0.17003  0.81061  1.0000
  C   C2812     1.0  0.42343  0.16555  0.79416  1.0000
  C   C2813     1.0  0.41742  0.15846  0.78166  1.0000
  H   H2243     1.0  0.57510  0.47536  0.78921  1.0000
  C   C2814     1.0  0.41316  0.18267  0.87484  1.0000
  H   H2244     1.0  0.46756  0.35850  0.51900  1.0000
  H   H2245     1.0  0.57505  0.32108  0.89829  1.0000
  C   C2815     1.0  0.58091  0.10162  0.85448  1.0000
  C   C2816     1.0  0.43979  0.35452  0.58796  1.0000
  C   C2817     1.0  0.41499  0.32500  0.76536  1.0000
  C   C2818     1.0  0.53552  0.33141  0.83430  1.0000
  C   C2819     1.0  0.56362  0.40663  0.62727  1.0000
  H   H2246     1.0  0.45205  0.34399  0.58329  1.0000
  H   H2247     1.0  0.45386  0.27605  0.60872  1.0000
  H   H2248     1.0  0.56409  0.21296  0.90497  1.0000
  C   C2820     1.0  0.51621  0.43089  0.66344  1.0000
  H   H2249     1.0  0.55330  0.28277  0.87755  1.0000
  C   C2821     1.0  0.44649  0.34905  0.54327  1.0000
  H   H2250     1.0  0.57795  0.17904  0.84074  1.0000
  C   C2822     1.0  0.51189  0.44922  0.75649  1.0000
  H   H2251     1.0  0.41536  0.17625  0.81987  1.0000
  H   H2252     1.0  0.43758  0.16840  0.79074  1.0000
  H   H2253     1.0  0.42713  0.15575  0.76864  1.0000
  H   H2254     1.0  0.49573  0.31630  0.72385  1.0000
  C   C2823     1.0  0.41994  0.36532  0.75514  1.0000
  H   H2255     1.0  0.39923  0.40458  0.68407  1.0000
  H   H2256     1.0  0.44821  0.43218  0.67149  1.0000
  C   C2824     1.0  0.57760  0.33939  0.60848  1.0000
  H   H2257     1.0  0.49288  0.41142  0.57776  1.0000
  H   H2258     1.0  0.53756  0.44552  0.66287  1.0000
  H   H2259     1.0  0.54127  0.47922  0.65223  1.0000
  H   H2260     1.0  0.39290  0.32316  0.60896  1.0000
  H   H2261     1.0  0.39885  0.37205  0.55370  1.0000
  C   C2825     1.0  0.42498  0.28338  0.62345  1.0000
  H   H2262     1.0  0.58856  0.23776  0.78951  1.0000
  C   C2826     1.0  0.57605  0.30585  0.67311  1.0000
  H   H2263     1.0  0.43264  0.15681  0.86868  1.0000
  C   C2827     1.0  0.46708  0.34563  0.79081  1.0000
  C   C2828     1.0  0.41062  0.20251  0.87318  1.0000
  C   C2829     1.0  0.57384  0.17216  0.85550  1.0000
  Fe  Fe201     1.0  0.39548  0.22293  0.79055  1.0000
  C   C2830     1.0  0.55311  0.32087  0.83806  1.0000
  C   C2831     1.0  0.55104  0.35406  0.80929  1.0000
  H   H2264     1.0  0.52996  0.43271  0.71577  1.0000
  C   C2832     1.0  0.42012  0.42503  0.63788  1.0000
  C   C2833     1.0  0.57573  0.15342  0.81232  1.0000
  H   H2265     1.0  0.58168  0.23316  0.91239  1.0000
  C   C2834     1.0  0.39033  0.36131  0.55717  1.0000
  H   H2266     1.0  0.54116  0.36953  0.64658  1.0000
  C   C2835     1.0  0.55794  0.46762  0.69309  1.0000
  C   C2836     1.0  0.39270  0.20990  0.94551  1.0000
  C   C2837     1.0  0.57192  0.23957  0.90292  1.0000
  C   C2838     1.0  0.50647  0.40168  0.57539  1.0000
  C   C2839     1.0  0.51649  0.40090  0.55687  1.0000
  H   H2267     1.0  0.45556  0.36687  0.60027  1.0000
  C   C2840     1.0  0.58950  0.08374  0.89720  1.0000
  H   H2268     1.0  0.46001  0.17278  0.85412  1.0000
  H   H2269     1.0  0.42742  0.40853  0.72729  1.0000
  C   C2841     1.0  0.58002  0.09639  0.83815  1.0000
  C   C2842     1.0  0.58556  0.10362  0.89604  1.0000
  C   C2843     1.0  0.58426  0.37351  0.53022  1.0000
  H   H2270     1.0  0.56803  0.31924  0.86862  1.0000
  H   H2271     1.0  0.57938  0.34746  0.61778  1.0000
  H   H2272     1.0  0.42867  0.34626  0.72022  1.0000
  H   H2273     1.0  0.39477  0.34571  0.74993  1.0000
  C   C2844     1.0  0.57963  0.41472  0.48111  1.0000
  H   H2274     1.0  0.42752  0.38982  0.61287  1.0000
  H   H2275     1.0  0.39198  0.36769  0.59121  1.0000
  H   H2276     1.0  0.58704  0.37112  0.73777  1.0000
  Fe  Fe202     1.0  0.39056  0.34739  0.68681  1.0000
  H   H2277     1.0  0.53582  0.22280  0.74979  1.0000
  H   H2278     1.0  0.45094  0.30417  0.58212  1.0000
  C   C2845     1.0  0.51099  0.13153  0.91468  1.0000
  C   C2846     1.0  0.50947  0.11522  0.92922  1.0000
  C   C2847     1.0  0.52504  0.09992  0.93059  1.0000
  C   C2848     1.0  0.54217  0.10095  0.91748  1.0000
  C   C2849     1.0  0.54389  0.11739  0.90295  1.0000
  C   C2850     1.0  0.52808  0.13259  0.90154  1.0000
  C   C2851     1.0  0.42093  0.11716  0.76880  1.0000
  H   H2279     1.0  0.47500  0.32857  0.50714  1.0000
  C   C2852     1.0  0.56473  0.11187  0.86477  1.0000
  S   S403      1.0  0.39464  0.37002  0.66013  1.0000
  P   P93       1.0  0.52042  0.47000  0.69139  1.0000
  C   C2853     1.0  0.56307  0.10171  0.83168  1.0000
  C   C2854     1.0  0.54703  0.11239  0.84150  1.0000
  C   C2855     1.0  0.54784  0.11748  0.85796  1.0000
  C   C2856     1.0  0.51583  0.32986  0.65623  1.0000
  C   C2857     1.0  0.49620  0.33762  0.63304  1.0000
  C   C2858     1.0  0.46434  0.33015  0.51997  1.0000
  C   C2859     1.0  0.54928  0.22715  0.74396  1.0000
  C   C2860     1.0  0.42025  0.39826  0.73814  1.0000
  H   H2280     1.0  0.57878  0.38867  0.52556  1.0000
  H   H2281     1.0  0.57151  0.30895  0.57635  1.0000
  H   H2282     1.0  0.58119  0.34852  0.80434  1.0000
  C   C2861     1.0  0.57372  0.35035  0.75948  1.0000
  H   H2283     1.0  0.39752  0.47224  0.66425  1.0000
  C   C2862     1.0  0.42063  0.43633  0.66528  1.0000
  C   C2863     1.0  0.44405  0.20050  0.85870  1.0000
  P   P94       1.0  0.56589  0.11891  0.88579  1.0000
  H   H2284     1.0  0.52388  0.08726  0.94187  1.0000
  H   H2285     1.0  0.55400  0.08895  0.91888  1.0000
  C   C2864     1.0  0.52067  0.43636  0.74457  1.0000
  C   C2865     1.0  0.50552  0.46858  0.74870  1.0000
  C   C2866     1.0  0.42127  0.31516  0.59301  1.0000
  H   H2286     1.0  0.56247  0.09777  0.81892  1.0000
  H   H2287     1.0  0.53402  0.11698  0.83621  1.0000
  H   H2288     1.0  0.53537  0.12607  0.86511  1.0000
  C   C2867     1.0  0.54189  0.37704  0.56931  1.0000
  C   C2868     1.0  0.40816  0.38063  0.60204  1.0000
  C   C2869     1.0  0.57566  0.41441  0.73427  1.0000
  C   C2870     1.0  0.41930  0.30597  0.77541  1.0000
  H   H2289     1.0  0.40922  0.27971  0.78851  1.0000
  H   H2290     1.0  0.56759  0.14229  0.81780  1.0000
  C   C2871     1.0  0.40251  0.40438  0.74914  1.0000
  H   H2291     1.0  0.52895  0.14538  0.89034  1.0000
  H   H2292     1.0  0.51068  0.40999  0.54485  1.0000
  C   C2872     1.0  0.57313  0.31728  0.58552  1.0000
  C   C2873     1.0  0.43086  0.28881  0.73258  1.0000
  C   C2874     1.0  0.42084  0.27402  0.73932  1.0000
  C   C2875     1.0  0.42973  0.25568  0.74756  1.0000
  C   C2876     1.0  0.44867  0.25205  0.74900  1.0000
  C   C2877     1.0  0.45900  0.26675  0.74184  1.0000
  C   C2878     1.0  0.44980  0.28521  0.73400  1.0000
  P   P95       1.0  0.48310  0.26275  0.74474  1.0000
  C   C2879     1.0  0.49221  0.23731  0.75148  1.0000
  C   C2880     1.0  0.49906  0.27067  0.72281  1.0000
  C   C2881     1.0  0.51821  0.26908  0.72283  1.0000
  C   C2882     1.0  0.53073  0.27525  0.70608  1.0000
  C   C2883     1.0  0.52450  0.28213  0.68896  1.0000
  C   C2884     1.0  0.50576  0.28273  0.68859  1.0000
  C   C2885     1.0  0.49304  0.27708  0.70543  1.0000
  C   C2886     1.0  0.49593  0.22887  0.76967  1.0000
  C   C2887     1.0  0.50346  0.20920  0.77451  1.0000
  C   C2888     1.0  0.50704  0.19779  0.76129  1.0000
  C   C2889     1.0  0.50318  0.20606  0.74317  1.0000
  C   C2890     1.0  0.49582  0.22576  0.73826  1.0000
  C   C2891     1.0  0.48195  0.27458  0.76344  1.0000
  C   C2892     1.0  0.46732  0.27285  0.77964  1.0000
  C   C2893     1.0  0.46606  0.28178  0.79434  1.0000
  C   C2894     1.0  0.47961  0.29207  0.79327  1.0000
  C   C2895     1.0  0.49399  0.29415  0.77713  1.0000
  C   C2896     1.0  0.49517  0.28556  0.76222  1.0000
  C   C2897     1.0  0.54505  0.47075  0.68132  1.0000
  C   C2898     1.0  0.40600  0.29429  0.78042  1.0000
  H   H2293     1.0  0.42192  0.24422  0.75299  1.0000
  H   H2294     1.0  0.45500  0.23784  0.75597  1.0000
  H   H2295     1.0  0.45730  0.29681  0.72894  1.0000
  H   H2296     1.0  0.52345  0.26328  0.73587  1.0000
  H   H2297     1.0  0.54523  0.27491  0.70641  1.0000
  H   H2298     1.0  0.53424  0.28701  0.67601  1.0000
  H   H2299     1.0  0.50105  0.28758  0.67523  1.0000
  H   H2300     1.0  0.47867  0.27752  0.70469  1.0000
  H   H2301     1.0  0.49293  0.23740  0.78019  1.0000
  H   H2302     1.0  0.50644  0.20275  0.78859  1.0000
  H   H2303     1.0  0.51274  0.18254  0.76519  1.0000
  H   H2304     1.0  0.50578  0.19718  0.73299  1.0000
  H   H2305     1.0  0.49280  0.23200  0.72421  1.0000
  H   H2306     1.0  0.45698  0.26440  0.78107  1.0000
  H   H2307     1.0  0.45479  0.28034  0.80683  1.0000
  H   H2308     1.0  0.47902  0.29834  0.80500  1.0000
  H   H2309     1.0  0.50418  0.30257  0.77614  1.0000
  H   H2310     1.0  0.50626  0.28794  0.74988  1.0000
  C   C2899     1.0  0.44284  0.33833  0.77918  1.0000
  C   C2900     1.0  0.57497  0.23378  0.71720  1.0000
  C   C2901     1.0  0.45977  0.33650  0.80925  1.0000
  C   C2902     1.0  0.55856  0.39423  0.60252  1.0000
  C   C2903     1.0  0.43714  0.33405  0.55345  1.0000
  C   C2904     1.0  0.50881  0.34834  0.62013  1.0000
  C   C2905     1.0  0.43501  0.10114  0.74254  1.0000
  H   H2311     1.0  0.55595  0.36822  0.56663  1.0000
  H   H2312     1.0  0.50639  0.39105  0.60519  1.0000
  C   C2906     1.0  0.51678  0.46221  0.71692  1.0000
  C   C2907     1.0  0.41031  0.43382  0.65318  1.0000
  H   H2313     1.0  0.58096  0.07743  0.89186  1.0000
  C   C2908     1.0  0.57585  0.23719  0.74832  1.0000
  H   H2314     1.0  0.48914  0.32123  0.66136  1.0000
  C   C2909     1.0  0.53166  0.37727  0.58795  1.0000
  H   H2315     1.0  0.55437  0.39194  0.65587  1.0000
  C   C2910     1.0  0.46018  0.34700  0.52669  1.0000
  C   C2911     1.0  0.49390  0.44946  0.69223  1.0000
  H   H2316     1.0  0.46647  0.33559  0.82078  1.0000
  H   H2317     1.0  0.52269  0.32652  0.84235  1.0000
  C   C2912     1.0  0.53423  0.38865  0.55384  1.0000
  P   P96       1.0  0.54177  0.36320  0.60815  1.0000
  C   C2913     1.0  0.49943  0.32880  0.65124  1.0000
  C   C2914     1.0  0.52490  0.35026  0.62530  1.0000
  C   C2915     1.0  0.55864  0.33260  0.59027  1.0000
  H   H2318     1.0  0.55407  0.40234  0.73007  1.0000
  H   H2319     1.0  0.56044  0.36046  0.76243  1.0000
  C   C2916     1.0  0.54803  0.37970  0.63555  1.0000
  C   C2917     1.0  0.44324  0.33961  0.72126  1.0000
  H   H2320     1.0  0.42035  0.11797  0.78322  1.0000
  C   C2918     1.0  0.55518  0.39269  0.64099  1.0000
  H   H2321     1.0  0.56070  0.39473  0.58749  1.0000
  H   H2322     1.0  0.58039  0.46946  0.75684  1.0000
  C   C2919     1.0  0.48699  0.43662  0.68646  1.0000
  C   C2920     1.0  0.55002  0.38008  0.61620  1.0000
  S   S404      1.0  0.58063  0.27415  0.90084  1.0000
  H   H2323     1.0  0.45614  0.20731  0.85291  1.0000
  H   H2324     1.0  0.48523  0.45620  0.70371  1.0000
  H   H2325     1.0  0.54225  0.38830  0.53952  1.0000
  H   H2326     1.0  0.56389  0.32675  0.78039  1.0000
  H   H2327     1.0  0.45232  0.33995  0.69131  1.0000
  H   H2328     1.0  0.43339  0.30599  0.55359  1.0000
  C   C2921     1.0  0.56539  0.32304  0.67806  1.0000
  C   C2922     1.0  0.56871  0.25932  0.89545  1.0000
  H   H2329     1.0  0.41551  0.16734  0.73521  1.0000
  H   H2330     1.0  0.55025  0.22490  0.71557  1.0000
  H   H2331     1.0  0.51856  0.32287  0.67027  1.0000
  C   C2923     1.0  0.40138  0.17618  0.73624  1.0000
  C   C2924     1.0  0.44096  0.31742  0.54629  1.0000
  H   H2332     1.0  0.50592  0.35489  0.60612  1.0000
  C   C2925     1.0  0.40143  0.27294  0.69108  1.0000
  C   C2926     1.0  0.52881  0.34002  0.64312  1.0000
  C   C2927     1.0  0.43522  0.32969  0.79787  1.0000
  C   C2928     1.0  0.40233  0.37161  0.76648  1.0000
  C   C2929     1.0  0.44626  0.18097  0.85957  1.0000
  C   C2930     1.0  0.56095  0.34405  0.60144  1.0000
  H   H2333     1.0  0.39541  0.36151  0.77778  1.0000
  H   H2334     1.0  0.58638  0.46744  0.69437  1.0000
  C   C2931     1.0  0.40599  0.31252  0.60836  1.0000
  Fe  Fe203     1.0  0.40915  0.31477  0.66676  1.0000
  H   H2335     1.0  0.57308  0.25927  0.81867  1.0000
  C   C2932     1.0  0.55748  0.22830  0.72468  1.0000
  H   H2336     1.0  0.54197  0.33958  0.64689  1.0000
  H   H2337     1.0  0.39671  0.24147  0.73399  1.0000
  H   H2338     1.0  0.52508  0.42326  0.65268  1.0000
  H   H2339     1.0  0.40739  0.23461  0.90078  1.0000
  H   H2340     1.0  0.57088  0.29272  0.67932  1.0000
  C   C2933     1.0  0.58244  0.36037  0.52061  1.0000
  H   H2341     1.0  0.54570  0.33564  0.58508  1.0000
  H   H2342     1.0  0.58383  0.37473  0.67710  1.0000
  C   C2934     1.0  0.45657  0.33605  0.70485  1.0000
  C   C2935     1.0  0.39878  0.15566  0.78561  1.0000
  P   P97       1.0  0.43175  0.34042  0.75971  1.0000
  C   C2936     1.0  0.44885  0.33495  0.73877  1.0000
  C   C2937     1.0  0.46775  0.32607  0.73968  1.0000
  C   C2938     1.0  0.48103  0.32266  0.72321  1.0000
  C   C2939     1.0  0.47548  0.32791  0.70578  1.0000
  H   H2343     1.0  0.55943  0.18244  0.89938  1.0000
  H   H2344     1.0  0.51001  0.44416  0.77177  1.0000
  C   C2940     1.0  0.56353  0.17400  0.88858  1.0000
  C   C2941     1.0  0.56330  0.15443  0.89364  1.0000
  H   H2345     1.0  0.57115  0.41160  0.74957  1.0000
  H   H2346     1.0  0.42258  0.11260  0.71779  1.0000
  H   H2347     1.0  0.56889  0.19802  0.86560  1.0000
  C   C2942     1.0  0.56817  0.14364  0.87956  1.0000
  H   H2348     1.0  0.42502  0.22639  0.86460  1.0000
  C   C2943     1.0  0.56869  0.18286  0.86951  1.0000
  H   H2349     1.0  0.55906  0.14782  0.90847  1.0000
  H   H2350     1.0  0.39110  0.26767  0.82582  1.0000
  C   C2944     1.0  0.58959  0.33977  0.65707  1.0000
  H   H2351     1.0  0.58267  0.24067  0.75770  1.0000
  H   H2352     1.0  0.58498  0.23496  0.84536  1.0000
  C   C2945     1.0  0.58711  0.24952  0.84232  1.0000
  H   H2353     1.0  0.58111  0.23444  0.70228  1.0000
  C   C2946     1.0  0.39230  0.16738  0.81459  1.0000
  C   C2947     1.0  0.58881  0.35630  0.74547  1.0000
  C   C2948     1.0  0.39269  0.25206  0.72178  1.0000
  H   H2354     1.0  0.40957  0.23155  0.93390  1.0000
  C   C2949     1.0  0.58642  0.31989  0.88593  1.0000
  C   C2950     1.0  0.58436  0.23814  0.72902  1.0000
  H   H2355     1.0  0.39574  0.39009  0.60827  1.0000
  C   C2951     1.0  0.55108  0.47632  0.66155  1.0000
  C   C2952     1.0  0.58260  0.47488  0.66549  1.0000
  C   C2953     1.0  0.58895  0.28139  0.72540  1.0000
  C   C2954     1.0  0.40021  0.22467  0.91206  1.0000
  H   H2356     1.0  0.39539  0.23383  0.84322  1.0000
  Fe  Fe204     1.0  0.58569  0.33507  0.48412  1.0000
  S   S405      1.0  0.58660  0.32401  0.51528  1.0000
  C   C2955     1.0  0.58284  0.48262  0.75870  1.0000
  C   C2956     1.0  0.39660  0.34274  0.56735  1.0000
  H   H2357     1.0  0.39374  0.20859  0.96003  1.0000
  H   H2358     1.0  0.39877  0.13811  0.73155  1.0000
  C   C2957     1.0  0.58929  0.34075  0.52673  1.0000
  C   C2958     1.0  0.38997  0.24515  0.85110  1.0000
  P   P98       1.0  0.39059  0.14856  0.76835  1.0000
  H   H2359     1.0  0.39011  0.31439  0.57867  1.0000
  H   H2360     1.0  0.57467  0.48170  0.63838  1.0000
  H   H2361     1.0  0.41941  0.74009  0.27825  1.0000
  C   C2959     1.0  0.58398  0.90797  0.97925  1.0000
  C   C2960     1.0  0.55090  0.92099  0.99098  1.0000
  H   H2362     1.0  0.57741  0.68446  0.43710  1.0000
  S   S406      1.0  0.40709  0.67666  0.30976  1.0000
  H   H2363     1.0  0.55413  0.80299  0.14515  1.0000
  C   C2961     1.0  0.43878  0.75074  0.33530  1.0000
  Fe  Fe205     1.0  0.41521  0.68845  0.33053  1.0000
  S   S407      1.0  0.44625  0.68397  0.33013  1.0000
  H   H2364     1.0  0.58599  0.73657  0.35202  1.0000
  C   C2962     1.0  0.41448  0.76356  0.25459  1.0000
  H   H2365     1.0  0.57486  0.59168  0.44964  1.0000
  Fe  Fe206     1.0  0.51977  0.74539  0.39386  1.0000
  S   S408      1.0  0.53647  0.75691  0.36538  1.0000
  S   S409      1.0  0.52268  0.74792  0.42226  1.0000
  Fe  Fe207     1.0  0.49389  0.73209  0.37697  1.0000
  S   S410      1.0  0.50862  0.74199  0.34682  1.0000
  S   S411      1.0  0.46669  0.72133  0.38655  1.0000
  Fe  Fe208     1.0  0.53522  0.72971  0.35828  1.0000
  S   S412      1.0  0.56277  0.71576  0.34212  1.0000
  Fe  Fe209     1.0  0.50862  0.76816  0.35641  1.0000
  S   S413      1.0  0.49991  0.79786  0.33961  1.0000
  S   S414      1.0  0.52064  0.71715  0.38764  1.0000
  S   S415      1.0  0.49184  0.75937  0.38559  1.0000
  C   C2963     1.0  0.55061  0.80280  0.36482  1.0000
  C   C2964     1.0  0.56129  0.79800  0.39405  1.0000
  H   H2366     1.0  0.40337  0.79060  0.36489  1.0000
  H   H2367     1.0  0.53207  0.75769  0.45224  1.0000
  H   H2368     1.0  0.56099  0.74351  0.39840  1.0000
  H   H2369     1.0  0.52356  0.88993  0.99209  1.0000
  C   C2965     1.0  0.44774  0.63028  0.33228  1.0000
  S   S416      1.0  0.40879  0.82458  0.20279  1.0000
  C   C2966     1.0  0.41140  0.76733  0.28655  1.0000
  C   C2967     1.0  0.46345  0.62974  0.33941  1.0000
  C   C2968     1.0  0.58753  0.76375  0.35618  1.0000
  C   C2969     1.0  0.58156  0.77523  0.20431  1.0000
  C   C2970     1.0  0.50213  0.87255  0.36032  1.0000
  H   H2370     1.0  0.56176  0.76291  0.45679  1.0000
  H   H2371     1.0  0.53542  0.86555  0.10235  1.0000
  Fe  Fe210     1.0  0.52834  0.85705  0.19197  1.0000
  S   S417      1.0  0.50751  0.88331  0.19919  1.0000
  S   S418      1.0  0.54354  0.85858  0.16159  1.0000
  Fe  Fe211     1.0  0.52428  0.83551  0.23281  1.0000
  S   S419      1.0  0.50354  0.86027  0.24330  1.0000
  S   S420      1.0  0.53457  0.80708  0.25165  1.0000
  Fe  Fe212     1.0  0.49004  0.86272  0.21898  1.0000
  S   S421      1.0  0.45790  0.86967  0.22576  1.0000
  Fe  Fe213     1.0  0.52281  0.87858  0.22268  1.0000
  S   S422      1.0  0.52903  0.90476  0.22805  1.0000
  S   S423      1.0  0.50961  0.83661  0.20969  1.0000
  S   S424      1.0  0.54487  0.85362  0.21414  1.0000
  C   C2971     1.0  0.41981  0.83195  0.27725  1.0000
  C   C2972     1.0  0.55178  0.90325  0.23159  1.0000
  C   C2973     1.0  0.57925  0.77842  0.23630  1.0000
  C   C2974     1.0  0.56969  0.88116  0.10770  1.0000
  C   C2975     1.0  0.57335  0.74900  0.29748  1.0000
  H   H2372     1.0  0.56519  0.73799  0.30063  1.0000
  C   C2976     1.0  0.56247  0.88572  0.23934  1.0000
  H   H2373     1.0  0.57234  0.79580  0.40178  1.0000
  H   H2374     1.0  0.58273  0.77928  0.31915  1.0000
  C   C2977     1.0  0.55627  0.93049  0.00197  1.0000
  H   H2375     1.0  0.55721  0.87278  0.24223  1.0000
  H   H2376     1.0  0.52106  0.80302  0.36795  1.0000
  C   C2978     1.0  0.42226  0.83763  0.20870  1.0000
  C   C2979     1.0  0.44197  0.83439  0.20202  1.0000
  C   C2980     1.0  0.45302  0.84451  0.20668  1.0000
  C   C2981     1.0  0.44444  0.85769  0.21836  1.0000
  C   C2982     1.0  0.42471  0.86101  0.22491  1.0000
  C   C2983     1.0  0.41364  0.85103  0.22011  1.0000
  H   H2377     1.0  0.44869  0.82408  0.19314  1.0000
  H   H2378     1.0  0.46819  0.84194  0.20143  1.0000
  H   H2379     1.0  0.41793  0.87130  0.23379  1.0000
  H   H2380     1.0  0.57208  0.67817  0.38293  1.0000
  C   C2984     1.0  0.53220  0.80209  0.37519  1.0000
  H   H2381     1.0  0.53988  0.79484  0.41972  1.0000
  C   C2985     1.0  0.56693  0.84536  0.15944  1.0000
  C   C2986     1.0  0.57063  0.82548  0.16628  1.0000
  P   P99       1.0  0.57577  0.85144  0.08850  1.0000
  C   C2987     1.0  0.57660  0.84846  0.32093  1.0000
  H   H2382     1.0  0.55909  0.81836  0.17404  1.0000
  C   C2988     1.0  0.56538  0.80051  0.37420  1.0000
  C   C2989     1.0  0.50887  0.79963  0.31517  1.0000
  C   C2990     1.0  0.52334  0.78528  0.30832  1.0000
  C   C2991     1.0  0.53090  0.78749  0.28873  1.0000
  C   C2992     1.0  0.52406  0.80403  0.27601  1.0000
  C   C2993     1.0  0.50917  0.81799  0.28291  1.0000
  C   C2994     1.0  0.50161  0.81582  0.30242  1.0000
  H   H2383     1.0  0.52890  0.77265  0.31811  1.0000
  H   H2384     1.0  0.54222  0.77651  0.28344  1.0000
  H   H2385     1.0  0.50343  0.83050  0.27333  1.0000
  H   H2386     1.0  0.49010  0.82670  0.30759  1.0000
  C   C2995     1.0  0.57634  0.97597  0.23511  1.0000
  H   H2387     1.0  0.55074  0.93357  0.22132  1.0000
  C   C2996     1.0  0.50688  0.73015  0.30089  1.0000
  C   C2997     1.0  0.43514  0.84103  0.27271  1.0000
  C   C2998     1.0  0.40910  0.78342  0.24858  1.0000
  C   C2999     1.0  0.39609  0.79020  0.32173  1.0000
  C   C3000     1.0  0.45068  0.83275  0.28139  1.0000
  C   C3001     1.0  0.52624  0.84457  0.12683  1.0000
  H   H2388     1.0  0.48497  0.76930  0.31010  1.0000
  H   H2389     1.0  0.49627  0.81278  0.25117  1.0000
  C   C3002     1.0  0.45105  0.69646  0.34461  1.0000
  C   C3003     1.0  0.43765  0.70078  0.36066  1.0000
  C   C3004     1.0  0.44246  0.70884  0.37329  1.0000
  C   C3005     1.0  0.46051  0.71289  0.36970  1.0000
  C   C3006     1.0  0.47365  0.70927  0.35325  1.0000
  C   C3007     1.0  0.46890  0.70107  0.34071  1.0000
  H   H2390     1.0  0.42386  0.69724  0.36373  1.0000
  H   H2391     1.0  0.43233  0.71154  0.38605  1.0000
  H   H2392     1.0  0.48766  0.71214  0.35055  1.0000
  H   H2393     1.0  0.47932  0.69774  0.32833  1.0000
  H   H2394     1.0  0.53600  0.92264  0.99140  1.0000
  C   C3008     1.0  0.55176  0.66538  0.34112  1.0000
  C   C3009     1.0  0.54926  0.68430  0.34305  1.0000
  C   C3010     1.0  0.56508  0.69181  0.34139  1.0000
  C   C3011     1.0  0.52620  0.67779  0.29219  1.0000
  C   C3012     1.0  0.47926  0.65741  0.37908  1.0000
  H   H2395     1.0  0.53955  0.65966  0.34214  1.0000
  H   H2396     1.0  0.53518  0.69311  0.34553  1.0000
  C   C3013     1.0  0.39654  0.94115  0.11661  1.0000
  H   H2397     1.0  0.51426  0.79781  0.40310  1.0000
  H   H2398     1.0  0.52122  0.82178  0.15126  1.0000
  H   H2399     1.0  0.50231  0.88170  0.36940  1.0000
  H   H2400     1.0  0.52161  0.67769  0.41498  1.0000
  C   C3014     1.0  0.52834  0.79923  0.39497  1.0000
  H   H2401     1.0  0.56558  0.90341  0.12285  1.0000
  C   C3015     1.0  0.54451  0.75036  0.42500  1.0000
  C   C3016     1.0  0.56120  0.74763  0.41118  1.0000
  H   H2402     1.0  0.54542  0.64411  0.46406  1.0000
  C   C3017     1.0  0.57708  0.68486  0.39139  1.0000
  C   C3018     1.0  0.54490  0.75559  0.44153  1.0000
  C   C3019     1.0  0.49943  0.66387  0.31091  1.0000
  H   H2403     1.0  0.41741  0.75433  0.24466  1.0000
  C   C3020     1.0  0.57244  0.75844  0.31164  1.0000
  H   H2404     1.0  0.49809  0.62207  0.30053  1.0000
  H   H2405     1.0  0.39845  0.85369  0.22526  1.0000
  H   H2406     1.0  0.44079  0.74165  0.30990  1.0000
  H   H2407     1.0  0.56010  0.80930  0.31017  1.0000
  C   C3021     1.0  0.51862  0.59048  0.33157  1.0000
  C   C3022     1.0  0.54286  0.67086  0.44309  1.0000
  C   C3023     1.0  0.53263  0.57364  0.33317  1.0000
  C   C3024     1.0  0.41965  0.81476  0.29102  1.0000
  C   C3025     1.0  0.53406  0.69041  0.44006  1.0000
  H   H2408     1.0  0.47023  0.62252  0.28830  1.0000
  H   H2409     1.0  0.57916  0.86993  0.14477  1.0000
  C   C3026     1.0  0.52852  0.64904  0.38412  1.0000
  C   C3027     1.0  0.53963  0.85173  0.11140  1.0000
  C   C3028     1.0  0.54606  0.97778  0.25708  1.0000
  H   H2410     1.0  0.42607  0.74524  0.34254  1.0000
  C   C3029     1.0  0.57839  0.75581  0.43046  1.0000
  C   C3030     1.0  0.56475  0.90968  0.97951  1.0000
  C   C3031     1.0  0.57984  0.88502  0.24365  1.0000
  H   H2411     1.0  0.55415  0.62859  0.37665  1.0000
  C   C3032     1.0  0.43566  0.80617  0.29913  1.0000
  C   C3033     1.0  0.54789  0.57231  0.34134  1.0000
  C   C3034     1.0  0.45019  0.62755  0.31393  1.0000
  C   C3035     1.0  0.54745  0.65692  0.40806  1.0000
  H   H2412     1.0  0.58001  0.87191  0.99399  1.0000
  C   C3036     1.0  0.52123  0.69802  0.45484  1.0000
  H   H2413     1.0  0.40861  0.80815  0.33151  1.0000
  C   C3037     1.0  0.58189  0.85453  0.14943  1.0000
  H   H2414     1.0  0.44310  0.80796  0.24347  1.0000
  C   C3038     1.0  0.57528  0.63922  0.43192  1.0000
  C   C3039     1.0  0.46839  0.62432  0.30264  1.0000
  H   H2415     1.0  0.55308  0.93603  0.27976  1.0000
  H   H2416     1.0  0.57988  0.98350  0.31069  1.0000
  C   C3040     1.0  0.54511  0.85783  0.04826  1.0000
  C   C3041     1.0  0.57325  0.67953  0.41129  1.0000
  H   H2417     1.0  0.56095  0.58681  0.35431  1.0000
  H   H2418     1.0  0.46335  0.80850  0.30074  1.0000
  C   C3042     1.0  0.54903  0.58772  0.34813  1.0000
  C   C3043     1.0  0.57566  0.84377  0.99731  1.0000
  H   H2419     1.0  0.40628  0.92746  0.11612  1.0000
  H   H2420     1.0  0.56345  0.75491  0.32551  1.0000
  C   C3044     1.0  0.45101  0.81524  0.29450  1.0000
  C   C3045     1.0  0.45562  0.80169  0.24955  1.0000
  C   C3046     1.0  0.52887  0.66685  0.40683  1.0000
  C   C3047     1.0  0.48182  0.62651  0.32816  1.0000
  P   P100      1.0  0.55964  0.66147  0.42378  1.0000
  C   C3048     1.0  0.53498  0.60447  0.34671  1.0000
  C   C3049     1.0  0.45757  0.78334  0.26128  1.0000
  H   H2421     1.0  0.50004  0.78048  0.27196  1.0000
  C   C3050     1.0  0.51983  0.60615  0.33810  1.0000
  C   C3051     1.0  0.53146  0.82699  0.13896  1.0000
  H   H2422     1.0  0.53713  0.69989  0.42626  1.0000
  H   H2423     1.0  0.57477  0.77621  0.19281  1.0000
  H   H2424     1.0  0.55332  0.62267  0.44058  1.0000
  C   C3052     1.0  0.56206  0.87169  0.97548  1.0000
  H   H2425     1.0  0.58762  0.87157  0.25039  1.0000
  C   C3053     1.0  0.46432  0.75475  0.30761  1.0000
  C   C3054     1.0  0.51706  0.68622  0.47279  1.0000
  C   C3055     1.0  0.48651  0.65303  0.36114  1.0000
  H   H2426     1.0  0.48422  0.66501  0.31489  1.0000
  H   H2427     1.0  0.51196  0.85293  0.12978  1.0000
  C   C3056     1.0  0.49407  0.63399  0.35936  1.0000
  C   C3057     1.0  0.53869  0.65911  0.46121  1.0000
  H   H2428     1.0  0.58528  0.74622  0.26865  1.0000
  C   C3058     1.0  0.56572  0.86033  0.06748  1.0000
  C   C3059     1.0  0.55001  0.81646  0.13554  1.0000
  C   C3060     1.0  0.46336  0.76638  0.33544  1.0000
  P   P101      1.0  0.50206  0.62820  0.33614  1.0000
  C   C3061     1.0  0.50667  0.67887  0.29756  1.0000
  C   C3062     1.0  0.56743  0.83213  0.99132  1.0000
  C   C3063     1.0  0.57313  0.86341  0.98932  1.0000
  H   H2429     1.0  0.54693  0.84026  0.07597  1.0000
  C   C3064     1.0  0.46591  0.87619  0.28830  1.0000
  C   C3065     1.0  0.46723  0.88931  0.27085  1.0000
  C   C3066     1.0  0.48300  0.89781  0.26360  1.0000
  C   C3067     1.0  0.49758  0.89298  0.27362  1.0000
  C   C3068     1.0  0.49643  0.87980  0.29119  1.0000
  C   C3069     1.0  0.48045  0.87140  0.29841  1.0000
  P   P102      1.0  0.51615  0.87265  0.30322  1.0000
  C   C3070     1.0  0.53233  0.85241  0.29477  1.0000
  C   C3071     1.0  0.52809  0.89256  0.29674  1.0000
  C   C3072     1.0  0.54774  0.88988  0.28964  1.0000
  C   C3073     1.0  0.55670  0.90550  0.28381  1.0000
  C   C3074     1.0  0.54610  0.92394  0.28476  1.0000
  C   C3075     1.0  0.52653  0.92677  0.29177  1.0000
  C   C3076     1.0  0.51754  0.91115  0.29774  1.0000
  C   C3077     1.0  0.54124  0.83690  0.30725  1.0000
  C   C3078     1.0  0.55393  0.82151  0.30037  1.0000
  C   C3079     1.0  0.55839  0.82179  0.28096  1.0000
  C   C3080     1.0  0.55006  0.83742  0.26842  1.0000
  C   C3081     1.0  0.53692  0.85257  0.27530  1.0000
  C   C3082     1.0  0.50789  0.86624  0.32873  1.0000
  C   C3083     1.0  0.50173  0.84889  0.33700  1.0000
  C   C3084     1.0  0.49576  0.84349  0.35667  1.0000
  C   C3085     1.0  0.49596  0.85530  0.36835  1.0000
  C   C3086     1.0  0.48565  0.80437  0.25391  1.0000
  C   C3087     1.0  0.50810  0.87802  0.34059  1.0000
  H   H2430     1.0  0.45374  0.86950  0.29382  1.0000
  H   H2431     1.0  0.45629  0.89257  0.26268  1.0000
  H   H2432     1.0  0.48436  0.90757  0.24979  1.0000
  H   H2433     1.0  0.50996  0.89923  0.26729  1.0000
  H   H2434     1.0  0.47913  0.86101  0.31169  1.0000
  H   H2435     1.0  0.55617  0.87589  0.28806  1.0000
  H   H2436     1.0  0.57183  0.90340  0.27803  1.0000
  H   H2437     1.0  0.51460  0.71316  0.45228  1.0000
  H   H2438     1.0  0.51827  0.94111  0.29222  1.0000
  H   H2439     1.0  0.50231  0.91359  0.30275  1.0000
  H   H2440     1.0  0.53844  0.83651  0.32228  1.0000
  H   H2441     1.0  0.58245  0.93201  0.22722  1.0000
  H   H2442     1.0  0.53213  0.97433  0.26180  1.0000
  H   H2443     1.0  0.55326  0.83745  0.25341  1.0000
  H   H2444     1.0  0.53037  0.86442  0.26538  1.0000
  H   H2445     1.0  0.50182  0.83931  0.32827  1.0000
  H   H2446     1.0  0.49105  0.83003  0.36279  1.0000
  H   H2447     1.0  0.51294  0.89135  0.33478  1.0000
  C   C3088     1.0  0.55206  0.85177  0.06504  1.0000
  H   H2448     1.0  0.40049  0.81062  0.25662  1.0000
  C   C3089     1.0  0.56349  0.82364  0.12022  1.0000
  C   C3090     1.0  0.57056  0.77923  0.22158  1.0000
  H   H2449     1.0  0.54427  0.73692  0.25382  1.0000
  C   C3091     1.0  0.50057  0.90474  0.97792  1.0000
  C   C3092     1.0  0.47203  0.76408  0.31696  1.0000
  C   C3093     1.0  0.50103  0.74066  0.28397  1.0000
  H   H2450     1.0  0.53454  0.85121  0.04651  1.0000
  H   H2451     1.0  0.51038  0.75052  0.25368  1.0000
  H   H2452     1.0  0.54111  0.80771  0.46774  1.0000
  H   H2453     1.0  0.57961  0.93595  0.01024  1.0000
  H   H2454     1.0  0.55644  0.87721  0.11559  1.0000
  H   H2455     1.0  0.57007  0.81678  0.99695  1.0000
  C   C3094     1.0  0.47393  0.77510  0.26887  1.0000
  H   H2456     1.0  0.56771  0.86265  0.32081  1.0000
  H   H2457     1.0  0.46373  0.71492  0.30168  1.0000
  H   H2458     1.0  0.55341  0.80435  0.34957  1.0000
  C   C3095     1.0  0.53852  0.66169  0.30014  1.0000
  H   H2459     1.0  0.45010  0.69465  0.28978  1.0000
  H   H2460     1.0  0.57232  0.76835  0.35925  1.0000
  S   S425      1.0  0.39202  0.67922  0.35463  1.0000
  C   C3096     1.0  0.46974  0.81212  0.24582  1.0000
  C   C3097     1.0  0.53956  0.72493  0.28394  1.0000
  H   H2461     1.0  0.44641  0.77555  0.26424  1.0000
  H   H2462     1.0  0.57111  0.63580  0.39713  1.0000
  H   H2463     1.0  0.54682  0.87667  0.02059  1.0000
  H   H2464     1.0  0.49709  0.69135  0.29142  1.0000
  H   H2465     1.0  0.44059  0.76058  0.35930  1.0000
  C   C3098     1.0  0.57824  0.75017  0.41401  1.0000
  C   C3099     1.0  0.57295  0.87435  0.05251  1.0000
  H   H2466     1.0  0.46278  0.83954  0.27735  1.0000
  C   C3100     1.0  0.58189  0.87112  0.09411  1.0000
  H   H2467     1.0  0.49668  0.72793  0.31417  1.0000
  H   H2468     1.0  0.58412  0.88053  0.05362  1.0000
  C   C3101     1.0  0.39861  0.78628  0.35447  1.0000
  H   H2469     1.0  0.53179  0.68941  0.28186  1.0000
  C   C3102     1.0  0.47965  0.64282  0.39542  1.0000
  C   C3103     1.0  0.45473  0.70723  0.28027  1.0000
  C   C3104     1.0  0.40178  0.79604  0.33544  1.0000
  H   H2470     1.0  0.43520  0.85429  0.26207  1.0000
  C   C3105     1.0  0.57487  0.89612  0.11197  1.0000
  S   S426      1.0  0.39892  0.71841  0.32224  1.0000
  C   C3106     1.0  0.51462  0.74270  0.26694  1.0000
  H   H2471     1.0  0.55845  0.98384  0.34195  1.0000
  H   H2472     1.0  0.50691  0.59110  0.32532  1.0000
  C   C3107     1.0  0.56818  0.62231  0.43928  1.0000
  H   H2473     1.0  0.41254  0.76075  0.30106  1.0000
  H   H2474     1.0  0.48983  0.89991  0.98991  1.0000
  C   C3108     1.0  0.53134  0.64659  0.31335  1.0000
  C   C3109     1.0  0.54281  0.79747  0.40435  1.0000
  H   H2475     1.0  0.55525  0.78343  0.22345  1.0000
  H   H2476     1.0  0.57050  0.78208  0.24939  1.0000
  C   C3110     1.0  0.58474  0.75370  0.27947  1.0000
  C   C3111     1.0  0.56168  0.75857  0.44411  1.0000
  H   H2477     1.0  0.46102  0.63251  0.35345  1.0000
  C   C3112     1.0  0.46658  0.73967  0.25575  1.0000
  C   C3113     1.0  0.58913  0.81473  0.16210  1.0000
  H   H2478     1.0  0.47326  0.67216  0.38030  1.0000
  H   H2479     1.0  0.48594  0.66444  0.34869  1.0000
  C   C3114     1.0  0.49417  0.61934  0.37587  1.0000
  H   H2480     1.0  0.40804  0.78968  0.23388  1.0000
  C   C3115     1.0  0.57685  0.91913  0.23075  1.0000
  C   C3116     1.0  0.56996  0.65373  0.33846  1.0000
  H   H2481     1.0  0.46821  0.82646  0.23712  1.0000
  H   H2482     1.0  0.47405  0.64630  0.40929  1.0000
  C   C3117     1.0  0.40471  0.79525  0.26156  1.0000
  H   H2483     1.0  0.53617  0.61628  0.35203  1.0000
  H   H2484     1.0  0.55371  0.66085  0.29621  1.0000
  H   H2485     1.0  0.54130  0.63430  0.31902  1.0000
  H   H2486     1.0  0.49137  0.85104  0.38361  1.0000
  C   C3118     1.0  0.55847  0.84147  0.10811  1.0000
  C   C3119     1.0  0.46756  0.73566  0.27502  1.0000
  H   H2487     1.0  0.49948  0.60446  0.37492  1.0000
  H   H2488     1.0  0.40827  0.83827  0.26977  1.0000
  H   H2489     1.0  0.56779  0.80968  0.27560  1.0000
  C   C3120     1.0  0.48715  0.62378  0.39382  1.0000
  H   H2490     1.0  0.48735  0.61244  0.40649  1.0000
  H   H2491     1.0  0.43357  0.63333  0.34082  1.0000
  C   C3121     1.0  0.55656  0.64324  0.39693  1.0000
  C   C3122     1.0  0.51170  0.64762  0.31906  1.0000
  H   H2492     1.0  0.55442  0.71888  0.28400  1.0000
  H   H2493     1.0  0.58466  0.83750  0.00763  1.0000
  H   H2494     1.0  0.57217  0.89064  0.02403  1.0000
  C   C3123     1.0  0.54700  0.63913  0.38524  1.0000
  H   H2495     1.0  0.53173  0.56161  0.32802  1.0000
  C   C3124     1.0  0.57545  0.92868  0.00165  1.0000
  C   C3125     1.0  0.55207  0.87212  0.03363  1.0000
  H   H2496     1.0  0.55886  0.55934  0.34242  1.0000
  C   C3126     1.0  0.40565  0.78727  0.28071  1.0000
  H   H2497     1.0  0.43792  0.62829  0.30838  1.0000
  H   H2498     1.0  0.43637  0.79237  0.30892  1.0000
  C   C3127     1.0  0.48413  0.62393  0.30966  1.0000
  C   C3128     1.0  0.44736  0.74850  0.31677  1.0000
  C   C3129     1.0  0.58763  0.69898  0.38212  1.0000
  C   C3130     1.0  0.48771  0.78601  0.26558  1.0000
  H   H2499     1.0  0.44653  0.70310  0.25633  1.0000
  C   C3131     1.0  0.46228  0.71890  0.28702  1.0000
  H   H2500     1.0  0.45774  0.73150  0.23431  1.0000
  C   C3132     1.0  0.45283  0.71192  0.26137  1.0000
  H   H2501     1.0  0.46968  0.77316  0.34274  1.0000
  H   H2502     1.0  0.50539  0.67116  0.39347  1.0000
  C   C3133     1.0  0.53383  0.73498  0.26696  1.0000
  C   C3134     1.0  0.58013  0.68843  0.42174  1.0000
  C   C3135     1.0  0.41561  0.75553  0.27356  1.0000
  P   P103      1.0  0.47634  0.75138  0.28400  1.0000
  C   C3136     1.0  0.52609  0.72248  0.30088  1.0000
  C   C3137     1.0  0.51952  0.66305  0.39474  1.0000
  H   H2503     1.0  0.52140  0.64619  0.37461  1.0000
  C   C3138     1.0  0.44688  0.75947  0.34471  1.0000
  H   H2504     1.0  0.47148  0.75189  0.24584  1.0000
  C   C3139     1.0  0.45901  0.72798  0.24904  1.0000
  H   H2505     1.0  0.53056  0.71466  0.31404  1.0000
  C   C3140     1.0  0.39093  0.97547  0.11362  1.0000
  C   C3141     1.0  0.56617  0.88017  0.03566  1.0000
  C   C3142     1.0  0.55895  0.91998  0.22741  1.0000
  H   H2506     1.0  0.56851  0.83888  0.35117  1.0000
  C   C3143     1.0  0.51967  0.89915  0.97913  1.0000
  C   C3144     1.0  0.57707  0.83496  0.33809  1.0000
  C   C3145     1.0  0.58326  0.77224  0.30804  1.0000
  S   S427      1.0  0.57290  0.62984  0.33679  1.0000
  H   H2507     1.0  0.54557  0.93925  0.01078  1.0000
  C   C3146     1.0  0.39014  0.73781  0.43352  1.0000
  H   H2508     1.0  0.40746  0.72478  0.41044  1.0000
  H   H2509     1.0  0.55420  0.96292  0.23402  1.0000
  P   P104      1.0  0.39987  0.80290  0.29716  1.0000
  C   C3147     1.0  0.55642  0.84020  0.97753  1.0000
  H   H2510     1.0  0.40178  0.74235  0.43600  1.0000
  H   H2511     1.0  0.57777  0.81528  0.11822  1.0000
  H   H2512     1.0  0.58593  0.97122  0.22279  1.0000
  S   S428      1.0  0.39101  0.72079  0.27230  1.0000
  C   C3148     1.0  0.58565  0.66124  0.33719  1.0000
  H   H2513     1.0  0.41867  0.95713  0.10931  1.0000
  C   C3149     1.0  0.40351  0.95786  0.11279  1.0000
  C   C3150     1.0  0.55846  0.97136  0.24140  1.0000
  C   C3151     1.0  0.39339  0.72783  0.41913  1.0000
  C   C3152     1.0  0.58722  0.90164  0.23906  1.0000
  C   C3153     1.0  0.58325  0.68032  0.33835  1.0000
  C   C3154     1.0  0.58034  0.60473  0.44435  1.0000
  C   C3155     1.0  0.58756  0.84366  0.30393  1.0000
  C   C3156     1.0  0.58928  0.91735  0.99035  1.0000
  C   C3157     1.0  0.58869  0.81660  0.33839  1.0000
  P   P105      1.0  0.58943  0.79946  0.36072  1.0000
  H   H2514     1.0  0.58722  0.85408  0.29059  1.0000
  C   C3158     1.0  0.40506  0.66886  0.66890  1.0000
  C   C3159     1.0  0.55403  0.76016  0.50380  1.0000
  S   S429      1.0  0.42131  0.70641  0.71822  1.0000
  H   H2515     1.0  0.40341  0.88350  0.86752  1.0000
  C   C3160     1.0  0.39565  0.68106  0.65473  1.0000
  C   C3161     1.0  0.40883  0.70268  0.77857  1.0000
  C   C3162     1.0  0.47201  0.78473  0.79891  1.0000
  C   C3163     1.0  0.39050  0.63241  0.65703  1.0000
  C   C3164     1.0  0.57998  0.48592  0.77692  1.0000
  H   H2516     1.0  0.39758  0.85143  0.87482  1.0000
  C   C3165     1.0  0.54017  0.70845  0.64202  1.0000
  S   S430      1.0  0.55183  0.89340  0.78708  1.0000
  Fe  Fe214     1.0  0.51572  0.73428  0.70867  1.0000
  S   S431      1.0  0.53412  0.75484  0.70642  1.0000
  S   S432      1.0  0.49543  0.74170  0.68870  1.0000
  Fe  Fe215     1.0  0.53083  0.70626  0.74201  1.0000
  S   S433      1.0  0.55019  0.72427  0.74295  1.0000
  S   S434      1.0  0.52760  0.67860  0.76318  1.0000
  Fe  Fe216     1.0  0.52609  0.74912  0.73822  1.0000
  S   S435      1.0  0.51700  0.77255  0.75464  1.0000
  Fe  Fe217     1.0  0.55685  0.72850  0.71118  1.0000
  C   C3166     1.0  0.53369  0.90526  0.96365  1.0000
  S   S436      1.0  0.50572  0.73082  0.74014  1.0000
  S   S437      1.0  0.53941  0.70821  0.71057  1.0000
  H   H2517     1.0  0.48980  0.66411  0.77917  1.0000
  C   C3167     1.0  0.47844  0.76267  0.85567  1.0000
  C   C3168     1.0  0.39843  0.61334  0.65587  1.0000
  H   H2518     1.0  0.41126  0.68956  0.61374  1.0000
  H   H2519     1.0  0.50282  0.49010  0.72329  1.0000
  C   C3169     1.0  0.47450  0.80367  0.79510  1.0000
  C   C3170     1.0  0.50431  0.52850  0.68154  1.0000
  C   C3171     1.0  0.52267  0.75746  0.80482  1.0000
  C   C3172     1.0  0.48763  0.53222  0.67484  1.0000
  C   C3173     1.0  0.44797  0.77058  0.73541  1.0000
  H   H2520     1.0  0.52686  0.75531  0.50369  1.0000
  C   C3174     1.0  0.55356  0.85992  0.96981  1.0000
  H   H2521     1.0  0.57185  0.79931  0.47727  1.0000
  P   P106      1.0  0.55980  0.72034  0.63034  1.0000
  Fe  Fe218     1.0  0.41024  0.84639  0.81639  1.0000
  S   S438      1.0  0.43504  0.86102  0.80952  1.0000
  S   S439      1.0  0.41418  0.81542  0.81635  1.0000
  Fe  Fe219     1.0  0.55666  0.86276  0.80326  1.0000
  S   S440      1.0  0.54968  0.85314  0.83499  1.0000
  C   C3175     1.0  0.57375  0.55932  0.74326  1.0000
  Fe  Fe220     1.0  0.56807  0.82202  0.79652  1.0000
  S   S441      1.0  0.56268  0.80905  0.82781  1.0000
  H   H2522     1.0  0.58608  0.65717  0.80506  1.0000
  Fe  Fe221     1.0  0.53599  0.83212  0.82924  1.0000
  S   S442      1.0  0.50785  0.82464  0.84605  1.0000
  Fe  Fe222     1.0  0.57674  0.83116  0.83072  1.0000
  H   H2523     1.0  0.47531  0.76074  0.88561  1.0000
  S   S443      1.0  0.54071  0.84365  0.79781  1.0000
  H   H2524     1.0  0.57231  0.56875  0.78058  1.0000
  C   C3176     1.0  0.45541  0.84991  0.81925  1.0000
  C   C3177     1.0  0.47148  0.85812  0.81236  1.0000
  C   C3178     1.0  0.48773  0.85021  0.82021  1.0000
  C   C3179     1.0  0.48797  0.83412  0.83521  1.0000
  C   C3180     1.0  0.47191  0.82580  0.84208  1.0000
  C   C3181     1.0  0.45573  0.83356  0.83401  1.0000
  H   H2525     1.0  0.47134  0.87074  0.80094  1.0000
  H   H2526     1.0  0.49990  0.85686  0.81491  1.0000
  H   H2527     1.0  0.47199  0.81334  0.85367  1.0000
  H   H2528     1.0  0.44341  0.82712  0.83940  1.0000
  C   C3182     1.0  0.57942  0.62922  0.76546  1.0000
  C   C3183     1.0  0.57523  0.83411  0.89897  1.0000
  C   C3184     1.0  0.57812  0.83166  0.88028  1.0000
  H   H2529     1.0  0.56577  0.54802  0.74837  1.0000
  C   C3185     1.0  0.39392  0.89620  0.82323  1.0000
  H   H2530     1.0  0.55763  0.74663  0.51356  1.0000
  H   H2531     1.0  0.56127  0.83468  0.90799  1.0000
  H   H2532     1.0  0.56641  0.83046  0.87499  1.0000
  H   H2533     1.0  0.48406  0.80733  0.80157  1.0000
  C   C3186     1.0  0.41912  0.76181  0.82715  1.0000
  C   C3187     1.0  0.57167  0.94098  0.80020  1.0000
  C   C3188     1.0  0.55746  0.94504  0.78987  1.0000
  C   C3189     1.0  0.55204  0.93025  0.78563  1.0000
  H   H2534     1.0  0.40846  0.76744  0.78428  1.0000
  C   C3190     1.0  0.46854  0.76621  0.87349  1.0000
  H   H2535     1.0  0.47984  0.69792  0.84058  1.0000
  H   H2536     1.0  0.55073  0.95977  0.78489  1.0000
  H   H2537     1.0  0.54116  0.93363  0.77743  1.0000
  H   H2538     1.0  0.49464  0.71633  0.78003  1.0000
  C   C3191     1.0  0.54110  0.75915  0.80398  1.0000
  C   C3192     1.0  0.54270  0.74883  0.65121  1.0000
  H   H2539     1.0  0.39181  0.89691  0.93253  1.0000
  H   H2540     1.0  0.44449  0.78693  0.83012  1.0000
  H   H2541     1.0  0.40120  0.89832  0.80845  1.0000
  C   C3193     1.0  0.53828  0.78297  0.63794  1.0000
  C   C3194     1.0  0.40579  0.64299  0.62438  1.0000
  C   C3195     1.0  0.53467  0.78161  0.75901  1.0000
  C   C3196     1.0  0.55391  0.77332  0.75419  1.0000
  C   C3197     1.0  0.56764  0.78051  0.75841  1.0000
  C   C3198     1.0  0.56216  0.79566  0.76798  1.0000
  C   C3199     1.0  0.54292  0.80399  0.77264  1.0000
  C   C3200     1.0  0.52926  0.79707  0.76808  1.0000
  H   H2542     1.0  0.55817  0.76118  0.74753  1.0000
  C   C3201     1.0  0.54796  0.77933  0.62013  1.0000
  H   H2543     1.0  0.53845  0.81560  0.78002  1.0000
  H   H2544     1.0  0.51441  0.80349  0.77196  1.0000
  C   C3202     1.0  0.54784  0.65996  0.76388  1.0000
  C   C3203     1.0  0.54562  0.64170  0.77451  1.0000
  C   C3204     1.0  0.56129  0.62639  0.77516  1.0000
  H   H2545     1.0  0.50959  0.54025  0.68294  1.0000
  H   H2546     1.0  0.54838  0.78971  0.70846  1.0000
  C   C3205     1.0  0.56596  0.66292  0.75418  1.0000
  H   H2547     1.0  0.53167  0.63932  0.78204  1.0000
  H   H2548     1.0  0.55933  0.61225  0.78314  1.0000
  H   H2549     1.0  0.49286  0.75445  0.85418  1.0000
  H   H2550     1.0  0.56760  0.67699  0.74582  1.0000
  H   H2551     1.0  0.40486  0.72332  0.65646  1.0000
  C   C3206     1.0  0.50739  0.49426  0.68479  1.0000
  C   C3207     1.0  0.45120  0.81424  0.77521  1.0000
  S   S444      1.0  0.57947  0.80344  0.77459  1.0000
  H   H2552     1.0  0.49856  0.68326  0.67076  1.0000
  H   H2553     1.0  0.56890  0.75663  0.67191  1.0000
  C   C3208     1.0  0.56207  0.78973  0.48351  1.0000
  C   C3209     1.0  0.57868  0.88827  0.93047  1.0000
  C   C3210     1.0  0.55236  0.74494  0.63332  1.0000
  H   H2554     1.0  0.39369  0.68169  0.77838  1.0000
  Fe  Fe223     1.0  0.39079  0.72168  0.71721  1.0000
  C   C3211     1.0  0.44850  0.79549  0.77902  1.0000
  C   C3212     1.0  0.39807  0.70474  0.59012  1.0000
  C   C3213     1.0  0.43736  0.77203  0.72203  1.0000
  H   H2555     1.0  0.43754  0.73732  0.84057  1.0000
  C   C3214     1.0  0.48060  0.72791  0.83011  1.0000
  C   C3215     1.0  0.48088  0.51706  0.67295  1.0000
  H   H2556     1.0  0.52080  0.74749  0.79758  1.0000
  H   H2557     1.0  0.42727  0.79319  0.86145  1.0000
  H   H2558     1.0  0.51820  0.73436  0.63928  1.0000
  H   H2559     1.0  0.53280  0.79759  0.63978  1.0000
  H   H2560     1.0  0.58062  0.91745  0.87184  1.0000
  H   H2561     1.0  0.55309  0.75073  0.79604  1.0000
  H   H2562     1.0  0.55396  0.65137  0.81120  1.0000
  C   C3216     1.0  0.48226  0.70924  0.82810  1.0000
  C   C3217     1.0  0.44121  0.71733  0.71037  1.0000
  C   C3218     1.0  0.45690  0.70907  0.71899  1.0000
  C   C3219     1.0  0.47338  0.71674  0.71268  1.0000
  C   C3220     1.0  0.47446  0.73251  0.69743  1.0000
  C   C3221     1.0  0.45888  0.74063  0.68859  1.0000
  C   C3222     1.0  0.44223  0.73316  0.69512  1.0000
  H   H2563     1.0  0.45630  0.69668  0.73062  1.0000
  H   H2564     1.0  0.48539  0.71021  0.71938  1.0000
  H   H2565     1.0  0.45964  0.75280  0.67672  1.0000
  H   H2566     1.0  0.43031  0.73948  0.68822  1.0000
  H   H2567     1.0  0.41116  0.73852  0.74626  1.0000
  C   C3223     1.0  0.41477  0.69578  0.67353  1.0000
  H   H2568     1.0  0.55817  0.77450  0.81113  1.0000
  H   H2569     1.0  0.49076  0.69213  0.75230  1.0000
  C   C3224     1.0  0.53526  0.96123  0.88643  1.0000
  H   H2570     1.0  0.44288  0.82567  0.76637  1.0000
  C   C3225     1.0  0.56693  0.77246  0.49644  1.0000
  H   H2571     1.0  0.46500  0.72061  0.75241  1.0000
  H   H2572     1.0  0.48894  0.69062  0.80841  1.0000
  C   C3226     1.0  0.48876  0.73838  0.79589  1.0000
  H   H2573     1.0  0.55058  0.83108  0.97240  1.0000
  C   C3227     1.0  0.52864  0.67939  0.65911  1.0000
  H   H2574     1.0  0.39523  0.60197  0.66811  1.0000
  H   H2575     1.0  0.40157  0.78420  0.81029  1.0000
  C   C3228     1.0  0.47890  0.69244  0.76431  1.0000
  C   C3229     1.0  0.40525  0.70805  0.65963  1.0000
  H   H2576     1.0  0.54005  0.73734  0.66343  1.0000
  C   C3230     1.0  0.49532  0.91643  0.96123  1.0000
  C   C3231     1.0  0.50919  0.89064  0.91766  1.0000
  C   C3232     1.0  0.52144  0.87615  0.92761  1.0000
  C   C3233     1.0  0.54080  0.87227  0.91973  1.0000
  C   C3234     1.0  0.54802  0.88289  0.90198  1.0000
  C   C3235     1.0  0.53581  0.89747  0.89190  1.0000
  C   C3236     1.0  0.51633  0.90124  0.89984  1.0000
  P   P107      1.0  0.54463  0.91096  0.86864  1.0000
  C   C3237     1.0  0.54381  0.93539  0.86942  1.0000
  C   C3238     1.0  0.56904  0.90016  0.86034  1.0000
  C   C3239     1.0  0.57759  0.55827  0.79224  1.0000
  C   C3240     1.0  0.51013  0.69013  0.66234  1.0000
  H   H2577     1.0  0.45363  0.75663  0.76309  1.0000
  H   H2578     1.0  0.46799  0.51996  0.66768  1.0000
  C   C3241     1.0  0.57355  0.88542  0.85044  1.0000
  C   C3242     1.0  0.55356  0.94695  0.85382  1.0000
  H   H2579     1.0  0.55687  0.77404  0.56811  1.0000
  H   H2580     1.0  0.43598  0.69284  0.80677  1.0000
  C   C3243     1.0  0.52831  0.91697  0.94689  1.0000
  C   C3244     1.0  0.53477  0.94261  0.88584  1.0000
  C   C3245     1.0  0.53071  0.90969  0.85266  1.0000
  C   C3246     1.0  0.52774  0.92457  0.83680  1.0000
  C   C3247     1.0  0.51756  0.92299  0.82421  1.0000
  C   C3248     1.0  0.51045  0.90651  0.82720  1.0000
  C   C3249     1.0  0.51318  0.89171  0.84301  1.0000
  C   C3250     1.0  0.52331  0.89324  0.85566  1.0000
  H   H2581     1.0  0.49412  0.89342  0.92360  1.0000
  H   H2582     1.0  0.51592  0.86767  0.94125  1.0000
  H   H2583     1.0  0.55026  0.86070  0.92715  1.0000
  H   H2584     1.0  0.56305  0.87930  0.89608  1.0000
  H   H2585     1.0  0.50667  0.91220  0.89208  1.0000
  H   H2586     1.0  0.40528  0.93624  0.82271  1.0000
  C   C3251     1.0  0.56015  0.91112  0.79236  1.0000
  C   C3252     1.0  0.54461  0.79456  0.47800  1.0000
  H   H2587     1.0  0.46223  0.66438  0.80642  1.0000
  H   H2588     1.0  0.56260  0.88070  0.84703  1.0000
  H   H2589     1.0  0.56120  0.94141  0.84130  1.0000
  H   H2590     1.0  0.54544  0.70394  0.60636  1.0000
  C   C3253     1.0  0.58907  0.86697  0.75230  1.0000
  C   C3254     1.0  0.55394  0.96555  0.85439  1.0000
  H   H2591     1.0  0.52764  0.93389  0.89830  1.0000
  H   H2592     1.0  0.53362  0.93720  0.83370  1.0000
  H   H2593     1.0  0.51577  0.93426  0.81172  1.0000
  H   H2594     1.0  0.50326  0.90498  0.81700  1.0000
  H   H2595     1.0  0.50800  0.87874  0.84508  1.0000
  H   H2596     1.0  0.52587  0.88125  0.86741  1.0000
  C   C3255     1.0  0.43118  0.74374  0.82826  1.0000
  C   C3256     1.0  0.40766  0.71997  0.78366  1.0000
  C   C3257     1.0  0.57205  0.56254  0.81029  1.0000
  H   H2597     1.0  0.55009  0.79119  0.60814  1.0000
  H   H2598     1.0  0.53878  0.92169  0.93460  1.0000
  C   C3258     1.0  0.44810  0.69300  0.79503  1.0000
  H   H2599     1.0  0.44399  0.71989  0.81492  1.0000
  C   C3259     1.0  0.53553  0.76772  0.65341  1.0000
  C   C3260     1.0  0.57445  0.90683  0.80276  1.0000
  C   C3261     1.0  0.45133  0.78093  0.84210  1.0000
  H   H2600     1.0  0.47994  0.54686  0.67109  1.0000
  P   P108      1.0  0.55835  0.89715  0.96520  1.0000
  C   C3262     1.0  0.42400  0.76058  0.72616  1.0000
  C   C3263     1.0  0.41010  0.60904  0.63895  1.0000
  C   C3264     1.0  0.54101  0.68120  0.80335  1.0000
  C   C3265     1.0  0.46990  0.77007  0.83980  1.0000
  H   H2601     1.0  0.56095  0.81790  0.68781  1.0000
  C   C3266     1.0  0.48388  0.74264  0.81401  1.0000
  H   H2602     1.0  0.47690  0.73071  0.84424  1.0000
  P   P109      1.0  0.48309  0.76650  0.81655  1.0000
  H   H2603     1.0  0.46581  0.83299  0.78081  1.0000
  C   C3267     1.0  0.46414  0.81834  0.78330  1.0000
  H   H2604     1.0  0.56033  0.70832  0.67085  1.0000
  H   H2605     1.0  0.42289  0.62055  0.61011  1.0000
  H   H2606     1.0  0.57527  0.65716  0.61237  1.0000
  C   C3268     1.0  0.44876  0.70915  0.77994  1.0000
  H   H2607     1.0  0.58245  0.77406  0.75459  1.0000
  C   C3269     1.0  0.58684  0.77279  0.56326  1.0000
  H   H2608     1.0  0.58251  0.69423  0.75832  1.0000
  H   H2609     1.0  0.49222  0.71830  0.65787  1.0000
  H   H2610     1.0  0.45840  0.77938  0.73218  1.0000
  H   H2611     1.0  0.52710  0.50695  0.69163  1.0000
  H   H2612     1.0  0.53141  0.66409  0.66490  1.0000
  H   H2613     1.0  0.41598  0.76929  0.83862  1.0000
  H   H2614     1.0  0.58098  0.89204  0.80770  1.0000
  C   C3270     1.0  0.54400  0.77253  0.81245  1.0000
  H   H2615     1.0  0.45574  0.76663  0.79439  1.0000
  C   C3271     1.0  0.39562  0.70077  0.65034  1.0000
  H   H2616     1.0  0.40873  0.65417  0.61199  1.0000
  C   C3272     1.0  0.48730  0.70511  0.81004  1.0000
  H   H2617     1.0  0.44242  0.78007  0.88934  1.0000
  C   C3273     1.0  0.55623  0.66593  0.80656  1.0000
  H   H2618     1.0  0.57516  0.87433  0.93593  1.0000
  H   H2619     1.0  0.55630  0.70086  0.57301  1.0000
  H   H2620     1.0  0.55800  0.77005  0.53605  1.0000
  S   S445      1.0  0.58661  0.83745  0.92995  1.0000
  H   H2621     1.0  0.56441  0.71786  0.78682  1.0000
  C   C3274     1.0  0.41101  0.77024  0.81124  1.0000
  C   C3275     1.0  0.49073  0.49815  0.67783  1.0000
  P   P110      1.0  0.42881  0.72924  0.77962  1.0000
  C   C3276     1.0  0.58861  0.92405  0.91577  1.0000
  C   C3277     1.0  0.58037  0.92183  0.80655  1.0000
  C   C3278     1.0  0.57057  0.80425  0.69102  1.0000
  H   H2622     1.0  0.58642  0.77432  0.57743  1.0000
  C   C3279     1.0  0.41456  0.67623  0.67827  1.0000
  C   C3280     1.0  0.44149  0.78449  0.85991  1.0000
  C   C3281     1.0  0.57703  0.64284  0.69875  1.0000
  C   C3282     1.0  0.57267  0.90211  0.94160  1.0000
  H   H2623     1.0  0.41954  0.88986  0.83377  1.0000
  C   C3283     1.0  0.43476  0.73389  0.81366  1.0000
  C   C3284     1.0  0.45007  0.77713  0.87561  1.0000
  H   H2624     1.0  0.42188  0.70151  0.68101  1.0000
  H   H2625     1.0  0.48052  0.92070  0.96028  1.0000
  H   H2626     1.0  0.52762  0.77050  0.66714  1.0000
  C   C3285     1.0  0.44522  0.75767  0.75291  1.0000
  H   H2627     1.0  0.50710  0.69219  0.48421  1.0000
  C   C3286     1.0  0.42137  0.74747  0.74355  1.0000
  C   C3287     1.0  0.41487  0.76063  0.79651  1.0000
  H   H2628     1.0  0.49838  0.79198  0.82979  1.0000
  C   C3288     1.0  0.42640  0.74221  0.79775  1.0000
  H   H2629     1.0  0.39683  0.95726  0.79284  1.0000
  C   C3289     1.0  0.39841  0.69313  0.60828  1.0000
  H   H2630     1.0  0.53229  0.71165  0.79349  1.0000
  C   C3290     1.0  0.58395  0.50251  0.77932  1.0000
  C   C3291     1.0  0.56228  0.70335  0.79289  1.0000
  H   H2631     1.0  0.55794  0.68003  0.64687  1.0000
  H   H2632     1.0  0.56183  0.75814  0.60379  1.0000
  C   C3292     1.0  0.43195  0.74598  0.75706  1.0000
  C   C3293     1.0  0.46284  0.67681  0.79481  1.0000
  H   H2633     1.0  0.43805  0.79252  0.77312  1.0000
  C   C3294     1.0  0.54402  0.69990  0.79657  1.0000
  C   C3295     1.0  0.39066  0.94333  0.82239  1.0000
  C   C3296     1.0  0.57586  0.59158  0.72557  1.0000
  H   H2634     1.0  0.52699  0.67846  0.80543  1.0000
  C   C3297     1.0  0.47828  0.67657  0.77946  1.0000
  C   C3298     1.0  0.50652  0.70989  0.65499  1.0000
  C   C3299     1.0  0.52851  0.78420  0.82176  1.0000
  C   C3300     1.0  0.39383  0.64738  0.64129  1.0000
  H   H2635     1.0  0.57482  0.55309  0.83953  1.0000
  H   H2636     1.0  0.43958  0.78192  0.70841  1.0000
  C   C3301     1.0  0.51013  0.78258  0.82264  1.0000
  H   H2637     1.0  0.50513  0.93148  0.93275  1.0000
  C   C3302     1.0  0.39542  0.82651  0.89696  1.0000
  C   C3303     1.0  0.39273  0.69486  0.78264  1.0000
  H   H2638     1.0  0.40784  0.81778  0.88981  1.0000
  H   H2639     1.0  0.58110  0.65864  0.71715  1.0000
  H   H2640     1.0  0.42145  0.66689  0.68951  1.0000
  H   H2641     1.0  0.49164  0.74945  0.78325  1.0000
  C   C3304     1.0  0.57945  0.71515  0.56745  1.0000
  C   C3305     1.0  0.50701  0.76910  0.81429  1.0000
  C   C3306     1.0  0.52141  0.71899  0.64461  1.0000
  H   H2642     1.0  0.52262  0.65766  0.48992  1.0000
  C   C3307     1.0  0.45868  0.78083  0.79099  1.0000
  H   H2643     1.0  0.58240  0.74276  0.82646  1.0000
  C   C3308     1.0  0.55758  0.70975  0.59780  1.0000
  C   C3309     1.0  0.53660  0.76502  0.49824  1.0000
  C   C3310     1.0  0.38991  0.72985  0.79184  1.0000
  C   C3311     1.0  0.57583  0.77079  0.70686  1.0000
  C   C3312     1.0  0.46426  0.70868  0.76452  1.0000
  H   H2644     1.0  0.53065  0.79482  0.82802  1.0000
  C   C3313     1.0  0.55482  0.76043  0.61778  1.0000
  H   H2645     1.0  0.42208  0.69533  0.77117  1.0000
  H   H2646     1.0  0.56184  0.64499  0.70403  1.0000
  H   H2647     1.0  0.57290  0.93120  0.94224  1.0000
  C   C3314     1.0  0.49049  0.71967  0.79397  1.0000
  H   H2648     1.0  0.57035  0.75840  0.71562  1.0000
  C   C3315     1.0  0.41386  0.62387  0.62324  1.0000
  C   C3316     1.0  0.58928  0.49611  0.74283  1.0000
  C   C3317     1.0  0.57904  0.54966  0.82560  1.0000
  H   H2649     1.0  0.56983  0.60500  0.71706  1.0000
  S   S446      1.0  0.58454  0.84222  0.79918  1.0000
  H   H2650     1.0  0.41050  0.71017  0.58175  1.0000
  H   H2651     1.0  0.55300  0.57803  0.72759  1.0000
  H   H2652     1.0  0.41582  0.76166  0.71576  1.0000
  H   H2653     1.0  0.57710  0.62703  0.67847  1.0000
  C   C3318     1.0  0.56371  0.70795  0.57885  1.0000
  C   C3319     1.0  0.57753  0.92016  0.93404  1.0000
  C   C3320     1.0  0.58831  0.76818  0.52670  1.0000
  C   C3321     1.0  0.54362  0.68848  0.64891  1.0000
  C   C3322     1.0  0.57097  0.77021  0.53981  1.0000
  C   C3323     1.0  0.56711  0.71891  0.60549  1.0000
  C   C3324     1.0  0.58184  0.64759  0.75517  1.0000
  C   C3325     1.0  0.56346  0.78838  0.70262  1.0000
  C   C3326     1.0  0.57026  0.77255  0.55802  1.0000
  C   C3327     1.0  0.52579  0.66678  0.47598  1.0000
  C   C3328     1.0  0.58573  0.63269  0.68434  1.0000
  C   C3329     1.0  0.56636  0.57639  0.73157  1.0000
  S   S447      1.0  0.39754  0.81392  0.77197  1.0000
  H   H2654     1.0  0.54511  0.86591  0.95906  1.0000
  H   H2655     1.0  0.58017  0.77117  0.63789  1.0000
  H   H2656     1.0  0.57759  0.94813  0.73049  1.0000
  C   C3330     1.0  0.57449  0.70383  0.66306  1.0000
  C   C3331     1.0  0.58304  0.75128  0.66456  1.0000
  C   C3332     1.0  0.57868  0.70817  0.64311  1.0000
  C   C3333     1.0  0.50918  0.92254  0.94573  1.0000
  C   C3334     1.0  0.39509  0.88756  0.85664  1.0000
  H   H2657     1.0  0.56259  0.57605  0.81228  1.0000
  H   H2658     1.0  0.40482  0.65375  0.67304  1.0000
  C   C3335     1.0  0.57772  0.68806  0.79603  1.0000
  C   C3336     1.0  0.58372  0.90598  0.86438  1.0000
  C   C3337     1.0  0.40426  0.89137  0.83755  1.0000
  H   H2659     1.0  0.51854  0.78579  0.48077  1.0000
  H   H2660     1.0  0.39932  0.79477  0.74295  1.0000
  C   C3338     1.0  0.57453  0.66931  0.80294  1.0000
  C   C3339     1.0  0.54483  0.97271  0.87069  1.0000
  H   H2661     1.0  0.48528  0.48675  0.67602  1.0000
  H   H2662     1.0  0.57445  0.86661  0.75940  1.0000
  C   C3340     1.0  0.58269  0.72648  0.59376  1.0000
  C   C3341     1.0  0.51419  0.50961  0.68644  1.0000
  C   C3342     1.0  0.58814  0.94354  0.73923  1.0000
  H   H2663     1.0  0.58306  0.63114  0.63964  1.0000
  H   H2664     1.0  0.56154  0.97430  0.84217  1.0000
  S   S448      1.0  0.57736  0.96060  0.80499  1.0000
  C   C3343     1.0  0.53190  0.78220  0.48533  1.0000
  H   H2665     1.0  0.41611  0.59423  0.63803  1.0000
  H   H2666     1.0  0.58499  0.71033  0.82158  1.0000
  S   S449      1.0  0.58787  0.72511  0.69802  1.0000
  H   H2667     1.0  0.58079  0.96989  0.74913  1.0000
  H   H2668     1.0  0.58202  0.50452  0.79355  1.0000
  C   C3344     1.0  0.58791  0.65046  0.70629  1.0000
  H   H2669     1.0  0.52841  0.96673  0.89914  1.0000
  Fe  Fe224     1.0  0.39211  0.82522  0.79852  1.0000
  H   H2670     1.0  0.58432  0.71355  0.55285  1.0000
  C   C3345     1.0  0.58897  0.72435  0.57493  1.0000
  P   P111      1.0  0.58980  0.76540  0.50297  1.0000
  C   C3346     1.0  0.58961  0.73915  0.81287  1.0000
  C   C3347     1.0  0.58871  0.65481  0.61646  1.0000
  H   H2671     1.0  0.58526  0.69064  0.68858  1.0000
  C   C3348     1.0  0.58857  0.69351  0.67321  1.0000
  C   C3349     1.0  0.58942  0.75948  0.64534  1.0000
  C   C3350     1.0  0.68650  0.99631  0.17702  1.0000
  H   H2672     1.0  0.66241  0.01624  0.30988  1.0000
  H   H2673     1.0  0.70902  0.14686  0.42919  1.0000
  C   C3351     1.0  0.69280  0.04529  0.37156  1.0000
  C   C3352     1.0  0.69576  0.18145  0.10455  1.0000
  H   H2674     1.0  0.68986  0.27899  0.40056  1.0000
  C   C3353     1.0  0.66200  0.35027  0.45115  1.0000
  H   H2675     1.0  0.63629  0.34127  0.32826  1.0000
  H   H2676     1.0  0.74468  0.29230  0.38627  1.0000
  Fe  Fe225     1.0  0.62497  0.26467  0.10553  1.0000
  S   S450      1.0  0.60781  0.25009  0.09562  1.0000
  C   C3354     1.0  0.65980  0.04234  0.38085  1.0000
  Fe  Fe226     1.0  0.66169  0.24974  0.08038  1.0000
  S   S451      1.0  0.64814  0.23373  0.06775  1.0000
  S   S452      1.0  0.69270  0.25097  0.07167  1.0000
  Fe  Fe227     1.0  0.62454  0.25973  0.06637  1.0000
  S   S453      1.0  0.60978  0.27339  0.04166  1.0000
  Fe  Fe228     1.0  0.63242  0.22498  0.09768  1.0000
  S   S454      1.0  0.62604  0.19541  0.10794  1.0000
  S   S455      1.0  0.63965  0.27667  0.07611  1.0000
  S   S456      1.0  0.64800  0.23862  0.11051  1.0000
  C   C3355     1.0  0.61796  0.28570  0.19751  1.0000
  H   H2677     1.0  0.74043  0.98784  0.34916  1.0000
  C   C3356     1.0  0.61748  0.32319  0.34568  1.0000
  C   C3357     1.0  0.72964  0.08486  0.35121  1.0000
  Fe  Fe229     1.0  0.62273  0.12130  0.24594  1.0000
  S   S457      1.0  0.64487  0.10479  0.22648  1.0000
  S   S458      1.0  0.63024  0.12613  0.27143  1.0000
  H   H2678     1.0  0.73311  0.08519  0.33612  1.0000
  S   S459      1.0  0.61271  0.11032  0.20156  1.0000
  Fe  Fe230     1.0  0.62252  0.08947  0.22681  1.0000
  H   H2679     1.0  0.75026  0.29164  0.98332  1.0000
  Fe  Fe231     1.0  0.63303  0.12720  0.20329  1.0000
  S   S460      1.0  0.65456  0.14104  0.18036  1.0000
  S   S461      1.0  0.60118  0.10420  0.24841  1.0000
  S   S462      1.0  0.61208  0.14490  0.22282  1.0000
  H   H2680     1.0  0.65262  0.16613  0.20454  1.0000
  S   S463      1.0  0.61478  0.99516  0.19853  1.0000
  H   H2681     1.0  0.73611  0.10763  0.38224  1.0000
  C   C3358     1.0  0.70867  0.29296  0.45667  1.0000
  Fe  Fe232     1.0  0.73297  0.44321  0.19007  1.0000
  S   S464      1.0  0.74437  0.45665  0.15967  1.0000
  S   S465      1.0  0.70241  0.44214  0.20369  1.0000
  C   C3359     1.0  0.67221  0.24753  0.15136  1.0000
  S   S466      1.0  0.72503  0.21472  0.46798  1.0000
  C   C3360     1.0  0.75559  0.33724  0.45593  1.0000
  H   H2682     1.0  0.72993  0.34888  0.44529  1.0000
  H   H2683     1.0  0.65407  0.23135  0.44132  1.0000
  C   C3361     1.0  0.74877  0.23914  0.46406  1.0000
  S   S467      1.0  0.74734  0.45889  0.20195  1.0000
  S   S468      1.0  0.75582  0.41651  0.19114  1.0000
  Fe  Fe233     1.0  0.75064  0.35133  0.09627  1.0000
  S   S469      1.0  0.74804  0.32879  0.12306  1.0000
  S   S470      1.0  0.73806  0.38186  0.09921  1.0000
  Fe  Fe234     1.0  0.77085  0.32228  0.07160  1.0000
  S   S471      1.0  0.77010  0.29740  0.09680  1.0000
  H   H2684     1.0  0.65225  0.02240  0.40713  1.0000
  Fe  Fe235     1.0  0.74014  0.31243  0.10600  1.0000
  S   S472      1.0  0.71482  0.29863  0.11858  1.0000
  H   H2685     1.0  0.60929  0.32155  0.26426  1.0000
  S   S473      1.0  0.74023  0.33602  0.07996  1.0000
  C   C3362     1.0  0.75768  0.28875  0.24089  1.0000
  C   C3363     1.0  0.74191  0.03137  0.12475  1.0000
  C   C3364     1.0  0.76521  0.30264  0.46292  1.0000
  Fe  Fe236     1.0  0.73110  0.19952  0.40591  1.0000
  S   S474      1.0  0.72504  0.22600  0.38357  1.0000
  S   S475      1.0  0.73819  0.16964  0.40104  1.0000
  C   C3365     1.0  0.66377  0.31180  0.01491  1.0000
  C   C3366     1.0  0.66717  0.22208  0.29712  1.0000
  Fe  Fe237     1.0  0.72451  0.14692  0.27564  1.0000
  S   S476      1.0  0.71879  0.12634  0.30362  1.0000
  S   S477      1.0  0.70914  0.15134  0.25196  1.0000
  Fe  Fe238     1.0  0.71978  0.15031  0.31621  1.0000
  S   S478      1.0  0.69784  0.16080  0.34036  1.0000
  S   S479      1.0  0.72311  0.17148  0.28844  1.0000
  C   C3367     1.0  0.70863  0.16318  0.35762  1.0000
  C   C3368     1.0  0.72520  0.15026  0.36152  1.0000
  C   C3369     1.0  0.73394  0.15210  0.37519  1.0000
  C   C3370     1.0  0.72643  0.16723  0.38465  1.0000
  C   C3371     1.0  0.70979  0.18020  0.38087  1.0000
  C   C3372     1.0  0.70073  0.17801  0.36752  1.0000
  H   H2686     1.0  0.73117  0.13873  0.35412  1.0000
  H   H2687     1.0  0.74681  0.14207  0.37808  1.0000
  H   H2688     1.0  0.70388  0.19183  0.38828  1.0000
  C   C3373     1.0  0.77561  0.32687  0.02281  1.0000
  H   H2689     1.0  0.64267  0.25169  0.24142  1.0000
  C   C3374     1.0  0.77616  0.32975  0.98933  1.0000
  C   C3375     1.0  0.75950  0.34382  0.99050  1.0000
  C   C3376     1.0  0.75097  0.34944  0.00782  1.0000
  C   C3377     1.0  0.75893  0.34092  0.02396  1.0000
  H   H2690     1.0  0.60144  0.22515  0.34467  1.0000
  C   C3378     1.0  0.77849  0.43826  0.07774  1.0000
  H   H2691     1.0  0.73807  0.36030  0.00877  1.0000
  H   H2692     1.0  0.75215  0.34518  0.03728  1.0000
  C   C3379     1.0  0.75068  0.39043  0.11094  1.0000
  C   C3380     1.0  0.74191  0.00527  0.23385  1.0000
  C   C3381     1.0  0.65132  0.40822  0.43938  1.0000
  C   C3382     1.0  0.66592  0.39543  0.43042  1.0000
  C   C3383     1.0  0.75112  0.41149  0.13089  1.0000
  C   C3384     1.0  0.74107  0.40392  0.12214  1.0000
  H   H2693     1.0  0.67767  0.39469  0.98147  1.0000
  S   S480      1.0  0.69129  0.43248  0.29255  1.0000
  H   H2694     1.0  0.74363  0.42183  0.13957  1.0000
  H   H2695     1.0  0.72584  0.40850  0.12408  1.0000
  P   P112      1.0  0.62275  0.25532  0.32682  1.0000
  C   C3385     1.0  0.65191  0.13363  0.26602  1.0000
  C   C3386     1.0  0.66154  0.13825  0.24719  1.0000
  C   C3387     1.0  0.67898  0.14384  0.24307  1.0000
  C   C3388     1.0  0.68696  0.14480  0.25773  1.0000
  C   C3389     1.0  0.67715  0.14057  0.27656  1.0000
  C   C3390     1.0  0.65965  0.13498  0.28069  1.0000
  H   H2696     1.0  0.65560  0.13740  0.23577  1.0000
  H   H2697     1.0  0.68652  0.14693  0.22848  1.0000
  H   H2698     1.0  0.68304  0.14159  0.28793  1.0000
  H   H2699     1.0  0.65214  0.13164  0.29527  1.0000
  C   C3391     1.0  0.62509  0.04066  0.22364  1.0000
  C   C3392     1.0  0.61625  0.04633  0.20809  1.0000
  C   C3393     1.0  0.61292  0.03231  0.20046  1.0000
  C   C3394     1.0  0.61890  0.01269  0.20804  1.0000
  C   C3395     1.0  0.73342  0.38197  0.25824  1.0000
  H   H2700     1.0  0.61182  0.06142  0.20214  1.0000
  C   C3396     1.0  0.66301  0.27030  0.40937  1.0000
  H   H2701     1.0  0.63729  0.47797  0.26598  1.0000
  C   C3397     1.0  0.69873  0.26483  0.08418  1.0000
  C   C3398     1.0  0.68644  0.26962  0.10065  1.0000
  C   C3399     1.0  0.69151  0.28019  0.11087  1.0000
  C   C3400     1.0  0.70878  0.28622  0.10466  1.0000
  C   C3401     1.0  0.72094  0.28188  0.08791  1.0000
  C   C3402     1.0  0.71600  0.27098  0.07780  1.0000
  H   H2702     1.0  0.67297  0.26525  0.10554  1.0000
  H   H2703     1.0  0.68184  0.28407  0.12345  1.0000
  H   H2704     1.0  0.73427  0.28656  0.08298  1.0000
  H   H2705     1.0  0.72552  0.26736  0.06503  1.0000
  C   C3403     1.0  0.61256  0.26006  0.02438  1.0000
  C   C3404     1.0  0.60749  0.26939  0.00686  1.0000
  C   C3405     1.0  0.75764  0.40271  0.01715  1.0000
  P   P113      1.0  0.65527  0.19057  0.46080  1.0000
  C   C3406     1.0  0.62247  0.23003  0.01371  1.0000
  C   C3407     1.0  0.61979  0.24032  0.02786  1.0000
  Fe  Fe239     1.0  0.59259  0.12625  0.22322  1.0000
  H   H2706     1.0  0.70832  0.34875  0.41340  1.0000
  C   C3408     1.0  0.69643  0.03153  0.38800  1.0000
  H   H2707     1.0  0.62322  0.23301  0.04150  1.0000
  C   C3409     1.0  0.63353  0.18099  0.12857  1.0000
  C   C3410     1.0  0.62443  0.16596  0.13911  1.0000
  C   C3411     1.0  0.63033  0.15397  0.15547  1.0000
  C   C3412     1.0  0.64592  0.15650  0.16080  1.0000
  C   C3413     1.0  0.65511  0.17140  0.15021  1.0000
  C   C3414     1.0  0.64867  0.18394  0.13435  1.0000
  H   H2708     1.0  0.60855  0.02265  0.27629  1.0000
  H   H2709     1.0  0.62322  0.14243  0.16358  1.0000
  H   H2710     1.0  0.66725  0.17312  0.15433  1.0000
  H   H2711     1.0  0.65579  0.19545  0.12625  1.0000
  C   C3415     1.0  0.66093  0.35802  0.46657  1.0000
  C   C3416     1.0  0.68430  0.00233  0.32573  1.0000
  C   C3417     1.0  0.69366  0.43463  0.26804  1.0000
  C   C3418     1.0  0.67794  0.43920  0.25957  1.0000
  C   C3419     1.0  0.68058  0.44131  0.23979  1.0000
  C   C3420     1.0  0.69892  0.43871  0.22853  1.0000
  C   C3421     1.0  0.71452  0.43369  0.23714  1.0000
  C   C3422     1.0  0.71190  0.43183  0.25678  1.0000
  H   H2712     1.0  0.66382  0.44132  0.26817  1.0000
  H   H2713     1.0  0.66846  0.44508  0.23320  1.0000
  H   H2714     1.0  0.72867  0.43114  0.22868  1.0000
  H   H2715     1.0  0.63928  0.38839  0.40040  1.0000
  C   C3423     1.0  0.76420  0.30449  0.24181  1.0000
  H   H2716     1.0  0.77153  0.28427  0.00606  1.0000
  C   C3424     1.0  0.73590  0.09755  0.35784  1.0000
  H   H2717     1.0  0.75864  0.29131  0.03819  1.0000
  C   C3425     1.0  0.74149  0.25061  0.99413  1.0000
  Fe  Fe240     1.0  0.61059  0.33372  0.44510  1.0000
  H   H2718     1.0  0.67729  0.30949  0.41149  1.0000
  C   C3426     1.0  0.75291  0.46592  0.26041  1.0000
  C   C3427     1.0  0.64882  0.30472  0.42193  1.0000
  C   C3428     1.0  0.61535  0.43287  0.40639  1.0000
  C   C3429     1.0  0.67247  0.20223  0.25045  1.0000
  H   H2719     1.0  0.61640  0.44777  0.40129  1.0000
  H   H2720     1.0  0.68789  0.18802  0.36457  1.0000
  H   H2721     1.0  0.71363  0.03696  0.14121  1.0000
  C   C3430     1.0  0.71712  0.15682  0.44985  1.0000
  C   C3431     1.0  0.65759  0.28000  0.02029  1.0000
  C   C3432     1.0  0.74319  0.00154  0.34908  1.0000
  C   C3433     1.0  0.71488  0.07168  0.38341  1.0000
  H   H2722     1.0  0.67602  0.41942  0.46590  1.0000
  H   H2723     1.0  0.76541  0.26364  0.41122  1.0000
  H   H2724     1.0  0.75497  0.27768  0.25354  1.0000
  H   H2725     1.0  0.61783  0.16792  0.31945  1.0000
  C   C3434     1.0  0.62976  0.41858  0.39933  1.0000
  H   H2726     1.0  0.68792  0.26027  0.44958  1.0000
  C   C3435     1.0  0.72858  0.03339  0.14154  1.0000
  C   C3436     1.0  0.61411  0.30890  0.36188  1.0000
  H   H2727     1.0  0.62684  0.19918  0.31460  1.0000
  H   H2728     1.0  0.63739  0.41139  0.43611  1.0000
  C   C3437     1.0  0.69998  0.28434  0.44760  1.0000
  C   C3438     1.0  0.61991  0.17021  0.28966  1.0000
  H   H2729     1.0  0.69005  0.09834  0.28566  1.0000
  C   C3439     1.0  0.61309  0.00732  0.27758  1.0000
  H   H2730     1.0  0.67308  0.20339  0.42084  1.0000
  Fe  Fe241     1.0  0.77818  0.31617  0.11141  1.0000
  H   H2731     1.0  0.61804  0.19319  0.45237  1.0000
  C   C3440     1.0  0.76829  0.32061  0.46239  1.0000
  C   C3441     1.0  0.62426  0.18114  0.27125  1.0000
  H   H2732     1.0  0.74729  0.28728  0.45751  1.0000
  C   C3442     1.0  0.71234  0.06150  0.31600  1.0000
  Fe  Fe242     1.0  0.76855  0.43116  0.16174  1.0000
  H   H2733     1.0  0.62173  0.29652  0.43010  1.0000
  H   H2734     1.0  0.71394  0.21414  0.22397  1.0000
  H   H2735     1.0  0.63431  0.26596  0.41883  1.0000
  Fe  Fe243     1.0  0.76102  0.46987  0.17197  1.0000
  C   C3443     1.0  0.72140  0.33819  0.38798  1.0000
  H   H2736     1.0  0.78568  0.13848  0.44600  1.0000
  H   H2737     1.0  0.63267  0.99210  0.22930  1.0000
  C   C3444     1.0  0.77301  0.18272  0.35566  1.0000
  C   C3445     1.0  0.69051  0.33625  0.07507  1.0000
  C   C3446     1.0  0.67706  0.32683  0.08833  1.0000
  C   C3447     1.0  0.66846  0.31516  0.08281  1.0000
  C   C3448     1.0  0.71828  0.30759  0.02044  1.0000
  H   H2738     1.0  0.62612  0.18073  0.18767  1.0000
  H   H2739     1.0  0.66127  0.35092  0.02965  1.0000
  H   H2740     1.0  0.69731  0.34509  0.07948  1.0000
  H   H2741     1.0  0.67365  0.32820  0.10299  1.0000
  H   H2742     1.0  0.65817  0.30766  0.09314  1.0000
  H   H2743     1.0  0.65796  0.23458  0.21222  1.0000
  C   C3449     1.0  0.68889  0.34302  0.01206  1.0000
  C   C3450     1.0  0.61791  0.25548  0.35174  1.0000
  C   C3451     1.0  0.64589  0.28191  0.30876  1.0000
  C   C3452     1.0  0.64926  0.30040  0.30050  1.0000
  C   C3453     1.0  0.63407  0.31601  0.29849  1.0000
  S   S481      1.0  0.60658  0.35254  0.46545  1.0000
  C   C3454     1.0  0.78046  0.39251  0.11680  1.0000
  C   C3455     1.0  0.61043  0.25631  0.39039  1.0000
  C   C3456     1.0  0.62910  0.25329  0.38014  1.0000
  C   C3457     1.0  0.63287  0.25300  0.36086  1.0000
  H   H2744     1.0  0.65784  0.27010  0.31070  1.0000
  H   H2745     1.0  0.66364  0.30268  0.29592  1.0000
  H   H2746     1.0  0.63665  0.33039  0.29239  1.0000
  C   C3458     1.0  0.61681  0.21172  0.21705  1.0000
  H   H2747     1.0  0.66433  0.30431  0.46204  1.0000
  H   H2748     1.0  0.64067  0.25139  0.38712  1.0000
  H   H2749     1.0  0.64743  0.25092  0.35310  1.0000
  C   C3459     1.0  0.66805  0.00727  0.17837  1.0000
  C   C3460     1.0  0.60625  0.35771  0.15572  1.0000
  H   H2750     1.0  0.69215  0.23497  0.20311  1.0000
  H   H2751     1.0  0.63319  0.28154  0.19308  1.0000
  S   S482      1.0  0.78605  0.44535  0.17192  1.0000
  H   H2752     1.0  0.76909  0.16866  0.42782  1.0000
  C   C3461     1.0  0.72969  0.38939  0.03244  1.0000
  C   C3462     1.0  0.68477  0.27186  0.97825  1.0000
  H   H2753     1.0  0.59758  0.29295  0.31920  1.0000
  C   C3463     1.0  0.60361  0.37923  0.17603  1.0000
  C   C3464     1.0  0.62707  0.46248  0.25178  1.0000
  P   P114      1.0  0.63512  0.21342  0.24493  1.0000
  C   C3465     1.0  0.69235  0.17808  0.46708  1.0000
  H   H2754     1.0  0.61094  0.35396  0.14190  1.0000
  P   P115      1.0  0.69731  0.23195  0.98720  1.0000
  H   H2755     1.0  0.62149  0.28271  0.24472  1.0000
  C   C3466     1.0  0.76810  0.31877  0.22542  1.0000
  H   H2756     1.0  0.60588  0.03665  0.18858  1.0000
  C   C3467     1.0  0.71203  0.23327  0.01756  1.0000
  C   C3468     1.0  0.78335  0.11028  0.36111  1.0000
  C   C3469     1.0  0.75465  0.38426  0.04952  1.0000
  C   C3470     1.0  0.73683  0.38194  0.04902  1.0000
  H   H2757     1.0  0.77385  0.37948  0.22436  1.0000
  S   S483      1.0  0.59144  0.31460  0.46470  1.0000
  H   H2758     1.0  0.65421  0.38366  0.01016  1.0000
  H   H2759     1.0  0.75069  0.43183  0.08832  1.0000
  H   H2760     1.0  0.60678  0.22455  0.21998  1.0000
  C   C3471     1.0  0.66724  0.22584  0.22169  1.0000
  H   H2761     1.0  0.63308  0.29585  0.46982  1.0000
  H   H2762     1.0  0.75436  0.41216  0.06552  1.0000
  H   H2763     1.0  0.60639  0.08672  0.29769  1.0000
  C   C3472     1.0  0.59180  0.40262  0.30693  1.0000
  H   H2764     1.0  0.65650  0.00101  0.17820  1.0000
  H   H2765     1.0  0.76774  0.25757  0.46175  1.0000
  C   C3473     1.0  0.63147  0.99861  0.28043  1.0000
  C   C3474     1.0  0.74468  0.29459  0.99738  1.0000
  H   H2766     1.0  0.63024  0.47094  0.20410  1.0000
  C   C3475     1.0  0.62774  0.18719  0.19844  1.0000
  H   H2767     1.0  0.68748  0.20963  0.08756  1.0000
  H   H2768     1.0  0.65946  0.23943  0.97870  1.0000
  H   H2769     1.0  0.72846  0.37454  0.06162  1.0000
  C   C3476     1.0  0.68287  0.99474  0.25406  1.0000
  C   C3477     1.0  0.76126  0.02678  0.12483  1.0000
  C   C3478     1.0  0.66353  0.02880  0.39724  1.0000
  H   H2770     1.0  0.67826  0.48085  0.21028  1.0000
  H   H2771     1.0  0.71054  0.47648  0.29848  1.0000
  C   C3479     1.0  0.63937  0.45743  0.42487  1.0000
  H   H2772     1.0  0.78007  0.28951  0.38836  1.0000
  H   H2773     1.0  0.75644  0.30015  0.19388  1.0000
  S   S484      1.0  0.78593  0.31569  0.04280  1.0000
  C   C3480     1.0  0.69884  0.20075  0.13089  1.0000
  H   H2774     1.0  0.66316  0.38892  0.42031  1.0000
  S   S485      1.0  0.61769  0.38925  0.33058  1.0000
  H   H2775     1.0  0.67946  0.20223  0.18819  1.0000
  C   C3481     1.0  0.63163  0.20327  0.22692  1.0000
  C   C3482     1.0  0.71115  0.16809  0.46347  1.0000
  H   H2776     1.0  0.60306  0.20974  0.19578  1.0000
  C   C3483     1.0  0.76195  0.37466  0.23474  1.0000
  C   C3484     1.0  0.59590  0.27224  0.25010  1.0000
  C   C3485     1.0  0.71905  0.17170  0.20060  1.0000
  H   H2777     1.0  0.70377  0.15550  0.12478  1.0000
  C   C3486     1.0  0.68039  0.25385  0.98079  1.0000
  S   S486      1.0  0.67203  0.24846  0.40225  1.0000
  C   C3487     1.0  0.65245  0.23726  0.30195  1.0000
  C   C3488     1.0  0.76496  0.39515  0.03381  1.0000
  H   H2778     1.0  0.66713  0.30297  0.06040  1.0000
  C   C3489     1.0  0.66448  0.02635  0.17989  1.0000
  H   H2779     1.0  0.76602  0.24628  0.28296  1.0000
  C   C3490     1.0  0.70213  0.34948  0.99593  1.0000
  C   C3491     1.0  0.61994  0.23671  0.24611  1.0000
  H   H2780     1.0  0.71555  0.99569  0.17631  1.0000
  C   C3492     1.0  0.63837  0.24894  0.15922  1.0000
  H   H2781     1.0  0.73473  0.40519  0.00350  1.0000
  C   C3493     1.0  0.73166  0.17426  0.18310  1.0000
  S   S487      1.0  0.63420  0.44027  0.30315  1.0000
  H   H2782     1.0  0.76601  0.45590  0.26266  1.0000
  H   H2783     1.0  0.59345  0.19726  0.13795  1.0000
  C   C3494     1.0  0.62505  0.46035  0.23443  1.0000
  C   C3495     1.0  0.65997  0.21421  0.23891  1.0000
  C   C3496     1.0  0.72098  0.31844  0.41982  1.0000
  C   C3497     1.0  0.63658  0.29264  0.42373  1.0000
  H   H2784     1.0  0.60754  0.25679  0.40528  1.0000
  C   C3498     1.0  0.61207  0.29475  0.31345  1.0000
  H   H2785     1.0  0.61696  0.38377  0.14630  1.0000
  C   C3499     1.0  0.61550  0.31317  0.30496  1.0000
  H   H2786     1.0  0.70912  0.98987  0.33786  1.0000
  H   H2787     1.0  0.78059  0.32162  0.46690  1.0000
  H   H2788     1.0  0.60123  0.30353  0.36524  1.0000
  C   C3500     1.0  0.68560  0.21378  0.00386  1.0000
  C   C3501     1.0  0.59635  0.32685  0.24018  1.0000
  H   H2789     1.0  0.77723  0.17641  0.39297  1.0000
  H   H2790     1.0  0.74871  0.25097  0.02015  1.0000
  H   H2791     1.0  0.60133  0.27237  0.29579  1.0000
  C   C3502     1.0  0.69181  0.20243  0.24512  1.0000
  H   H2792     1.0  0.75061  0.40240  0.24170  1.0000
  C   C3503     1.0  0.67015  0.21878  0.01830  1.0000
  C   C3504     1.0  0.66187  0.20449  0.03180  1.0000
  C   C3505     1.0  0.66861  0.18526  0.03078  1.0000
  C   C3506     1.0  0.68386  0.18018  0.01637  1.0000
  C   C3507     1.0  0.69243  0.19434  0.00305  1.0000
  C   C3508     1.0  0.67196  0.20587  0.31110  1.0000
  C   C3509     1.0  0.70123  0.17102  0.12156  1.0000
  S   S488      1.0  0.70642  0.20908  0.42790  1.0000
  H   H2793     1.0  0.71604  0.38722  0.03202  1.0000
  H   H2794     1.0  0.59771  0.41538  0.30153  1.0000
  H   H2795     1.0  0.64504  0.44424  0.41986  1.0000
  C   C3510     1.0  0.59547  0.25930  0.38127  1.0000
  C   C3511     1.0  0.71609  0.33628  0.40770  1.0000
  C   C3512     1.0  0.64454  0.18684  0.22221  1.0000
  C   C3513     1.0  0.64369  0.27545  0.41728  1.0000
  C   C3514     1.0  0.75993  0.35554  0.23854  1.0000
  H   H2796     1.0  0.75499  0.48396  0.27752  1.0000
  C   C3515     1.0  0.60973  0.30410  0.20091  1.0000
  H   H2797     1.0  0.62336  0.37599  0.37913  1.0000
  C   C3516     1.0  0.69421  0.26708  0.45684  1.0000
  H   H2798     1.0  0.62399  0.25731  0.16051  1.0000
  H   H2799     1.0  0.66456  0.23366  0.01920  1.0000
  H   H2800     1.0  0.65002  0.20826  0.04300  1.0000
  H   H2801     1.0  0.66192  0.17432  0.04112  1.0000
  H   H2802     1.0  0.68903  0.16526  0.01551  1.0000
  C   C3517     1.0  0.72446  0.23832  0.02557  1.0000
  H   H2803     1.0  0.63938  0.21837  0.34928  1.0000
  C   C3518     1.0  0.59679  0.44048  0.46774  1.0000
  C   C3519     1.0  0.59817  0.33044  0.25703  1.0000
  S   S489      1.0  0.65665  0.40901  0.33485  1.0000
  H   H2804     1.0  0.70927  0.48067  0.18889  1.0000
  C   C3520     1.0  0.62717  0.30186  0.37374  1.0000
  C   C3521     1.0  0.64410  0.30840  0.36883  1.0000
  C   C3522     1.0  0.64802  0.32218  0.35205  1.0000
  C   C3523     1.0  0.63425  0.33000  0.34082  1.0000
  P   P116      1.0  0.67081  0.32907  0.34474  1.0000
  C   C3524     1.0  0.67239  0.34517  0.35844  1.0000
  C   C3525     1.0  0.68949  0.30793  0.34790  1.0000
  C   C3526     1.0  0.70724  0.30960  0.34956  1.0000
  C   C3527     1.0  0.72168  0.29329  0.35224  1.0000
  C   C3528     1.0  0.71847  0.27523  0.35340  1.0000
  C   C3529     1.0  0.70092  0.27342  0.35163  1.0000
  C   C3530     1.0  0.68656  0.28971  0.34860  1.0000
  C   C3531     1.0  0.68374  0.35895  0.35024  1.0000
  C   C3532     1.0  0.68475  0.37168  0.36062  1.0000
  C   C3533     1.0  0.67478  0.37053  0.37938  1.0000
  C   C3534     1.0  0.66400  0.35646  0.38785  1.0000
  C   C3535     1.0  0.66270  0.34390  0.37743  1.0000
  C   C3536     1.0  0.67396  0.34098  0.31991  1.0000
  C   C3537     1.0  0.66530  0.36037  0.31466  1.0000
  H   H2805     1.0  0.72323  0.39213  0.26590  1.0000
  C   C3538     1.0  0.67792  0.35973  0.28145  1.0000
  C   C3539     1.0  0.68643  0.34035  0.28652  1.0000
  C   C3540     1.0  0.68447  0.33098  0.30570  1.0000
  H   H2806     1.0  0.62420  0.29129  0.38670  1.0000
  H   H2807     1.0  0.65427  0.30246  0.37795  1.0000
  H   H2808     1.0  0.70995  0.32346  0.34881  1.0000
  H   H2809     1.0  0.73539  0.29448  0.35358  1.0000
  H   H2810     1.0  0.72965  0.26263  0.35571  1.0000
  H   H2811     1.0  0.69839  0.25932  0.35284  1.0000
  H   H2812     1.0  0.67318  0.28794  0.34702  1.0000
  H   H2813     1.0  0.69156  0.36019  0.33570  1.0000
  H   H2814     1.0  0.69283  0.38282  0.35394  1.0000
  H   H2815     1.0  0.67510  0.38081  0.38719  1.0000
  H   H2816     1.0  0.65622  0.35557  0.40240  1.0000
  H   H2817     1.0  0.65397  0.33341  0.38428  1.0000
  H   H2818     1.0  0.65680  0.36829  0.32537  1.0000
  H   H2819     1.0  0.67951  0.36708  0.26662  1.0000
  H   H2820     1.0  0.69461  0.33265  0.27556  1.0000
  H   H2821     1.0  0.69112  0.31598  0.30937  1.0000
  C   C3541     1.0  0.72821  0.01725  0.35135  1.0000
  P   P117      1.0  0.63614  0.43519  0.46204  1.0000
  H   H2822     1.0  0.71386  0.01549  0.35327  1.0000
  C   C3542     1.0  0.74020  0.39959  0.01642  1.0000
  C   C3543     1.0  0.73146  0.09755  0.37720  1.0000
  C   C3544     1.0  0.76728  0.02421  0.14171  1.0000
  C   C3545     1.0  0.74928  0.30128  0.45730  1.0000
  C   C3546     1.0  0.73450  0.03077  0.15861  1.0000
  C   C3547     1.0  0.75399  0.02620  0.15855  1.0000
  P   P118      1.0  0.71699  0.03362  0.18010  1.0000
  C   C3548     1.0  0.69771  0.02335  0.17964  1.0000
  C   C3549     1.0  0.72711  0.02197  0.20088  1.0000
  C   C3550     1.0  0.72213  0.00509  0.21293  1.0000
  C   C3551     1.0  0.67922  0.03444  0.18041  1.0000
  C   C3552     1.0  0.59428  0.36718  0.19143  1.0000
  C   C3553     1.0  0.71418  0.23697  0.99773  1.0000
  C   C3554     1.0  0.64270  0.23644  0.32091  1.0000
  C   C3555     1.0  0.78461  0.16311  0.40054  1.0000
  C   C3556     1.0  0.70846  0.05866  0.18091  1.0000
  C   C3557     1.0  0.70916  0.07302  0.16418  1.0000
  C   C3558     1.0  0.70183  0.09228  0.16511  1.0000
  C   C3559     1.0  0.69377  0.09730  0.18268  1.0000
  C   C3560     1.0  0.69295  0.08309  0.19934  1.0000
  C   C3561     1.0  0.70025  0.06385  0.19849  1.0000
  H   H2823     1.0  0.70435  0.18999  0.99217  1.0000
  C   C3562     1.0  0.73125  0.36303  0.26209  1.0000
  H   H2824     1.0  0.75906  0.02398  0.17141  1.0000
  Fe  Fe244     1.0  0.77098  0.43318  0.20101  1.0000
  H   H2825     1.0  0.67594  0.04923  0.18172  1.0000
  H   H2826     1.0  0.68823  0.99885  0.27928  1.0000
  P   P119      1.0  0.77774  0.33846  0.22653  1.0000
  C   C3563     1.0  0.70668  0.19719  0.16882  1.0000
  S   S490      1.0  0.61524  0.43540  0.34909  1.0000
  H   H2827     1.0  0.71515  0.06945  0.15042  1.0000
  H   H2828     1.0  0.70213  0.10337  0.15221  1.0000
  H   H2829     1.0  0.68796  0.11220  0.18338  1.0000
  H   H2830     1.0  0.68642  0.08699  0.21291  1.0000
  H   H2831     1.0  0.69934  0.05304  0.21157  1.0000
  H   H2832     1.0  0.66110  0.45687  0.46767  1.0000
  H   H2833     1.0  0.68340  0.19407  0.30749  1.0000
  C   C3564     1.0  0.59560  0.26037  0.30515  1.0000
  H   H2834     1.0  0.71761  0.35197  0.37867  1.0000
  C   C3565     1.0  0.61404  0.42720  0.46838  1.0000
  C   C3566     1.0  0.68541  0.16519  0.44364  1.0000
  C   C3567     1.0  0.69447  0.33370  0.45256  1.0000
  H   H2835     1.0  0.73549  0.18886  0.15377  1.0000
  C   C3568     1.0  0.77039  0.38461  0.10846  1.0000
  H   H2836     1.0  0.61599  0.15656  0.29179  1.0000
  H   H2837     1.0  0.71285  0.06729  0.28603  1.0000
  H   H2838     1.0  0.74419  0.10738  0.34783  1.0000
  S   S491      1.0  0.71952  0.25027  0.41689  1.0000
  C   C3569     1.0  0.64657  0.19733  0.43894  1.0000
  C   C3570     1.0  0.62776  0.19715  0.43916  1.0000
  C   C3571     1.0  0.62129  0.20209  0.42216  1.0000
  C   C3572     1.0  0.63352  0.20723  0.40483  1.0000
  C   C3573     1.0  0.65217  0.20764  0.40450  1.0000
  C   C3574     1.0  0.65865  0.20278  0.42145  1.0000
  H   H2839     1.0  0.69774  0.27316  0.98114  1.0000
  C   C3575     1.0  0.69189  0.20147  0.10065  1.0000
  H   H2840     1.0  0.67574  0.16394  0.43571  1.0000
  H   H2841     1.0  0.66061  0.38472  0.29170  1.0000
  C   C3576     1.0  0.67436  0.05052  0.36800  1.0000
  S   S492      1.0  0.75092  0.14136  0.31561  1.0000
  H   H2842     1.0  0.69160  0.46551  0.32993  1.0000
  C   C3577     1.0  0.61554  0.27043  0.24616  1.0000
  H   H2843     1.0  0.60677  0.20194  0.42241  1.0000
  H   H2844     1.0  0.62851  0.21107  0.39167  1.0000
  C   C3578     1.0  0.60940  0.37349  0.38041  1.0000
  H   H2845     1.0  0.67652  0.47798  0.26083  1.0000
  H   H2846     1.0  0.71942  0.35862  0.27280  1.0000
  S   S493      1.0  0.64093  0.32596  0.43022  1.0000
  C   C3579     1.0  0.58995  0.30976  0.20623  1.0000
  C   C3580     1.0  0.67943  0.17710  0.45683  1.0000
  C   C3581     1.0  0.63528  0.07815  0.30136  1.0000
  C   C3582     1.0  0.61993  0.07707  0.29459  1.0000
  C   C3583     1.0  0.62223  0.06400  0.28330  1.0000
  C   C3584     1.0  0.64000  0.05239  0.27832  1.0000
  C   C3585     1.0  0.65564  0.05395  0.28442  1.0000
  C   C3586     1.0  0.65304  0.06647  0.29649  1.0000
  P   P120      1.0  0.67922  0.04125  0.27591  1.0000
  C   C3587     1.0  0.68833  0.02653  0.29643  1.0000
  C   C3588     1.0  0.67895  0.02610  0.26071  1.0000
  C   C3589     1.0  0.68378  0.00599  0.26602  1.0000
  H   H2847     1.0  0.73185  0.14974  0.44642  1.0000
  H   H2848     1.0  0.71572  0.34044  0.99174  1.0000
  C   C3590     1.0  0.67343  0.02334  0.23106  1.0000
  C   C3591     1.0  0.67406  0.03465  0.24301  1.0000
  C   C3592     1.0  0.70704  0.02499  0.29778  1.0000
  C   C3593     1.0  0.71440  0.01205  0.31283  1.0000
  C   C3594     1.0  0.70314  0.00049  0.32664  1.0000
  H   H2849     1.0  0.61169  0.37947  0.42456  1.0000
  C   C3595     1.0  0.67687  0.01536  0.31073  1.0000
  C   C3596     1.0  0.69356  0.05808  0.26096  1.0000
  C   C3597     1.0  0.68615  0.07796  0.25740  1.0000
  C   C3598     1.0  0.69748  0.09066  0.24565  1.0000
  C   C3599     1.0  0.71606  0.08370  0.23699  1.0000
  C   C3600     1.0  0.72327  0.06397  0.23984  1.0000
  C   C3601     1.0  0.71205  0.05119  0.25165  1.0000
  H   H2850     1.0  0.63358  0.08865  0.30969  1.0000
  C   C3602     1.0  0.69404  0.19453  0.18647  1.0000
  H   H2851     1.0  0.61048  0.06336  0.27769  1.0000
  H   H2852     1.0  0.64148  0.04269  0.26925  1.0000
  H   H2853     1.0  0.66496  0.06787  0.30133  1.0000
  C   C3603     1.0  0.62941  0.19879  0.26839  1.0000
  H   H2854     1.0  0.60013  0.31055  0.14947  1.0000
  C   C3604     1.0  0.73922  0.24693  0.01387  1.0000
  H   H2855     1.0  0.66865  0.03015  0.21794  1.0000
  H   H2856     1.0  0.67011  0.05013  0.23869  1.0000
  H   H2857     1.0  0.71617  0.03341  0.28713  1.0000
  H   H2858     1.0  0.63764  0.01665  0.24313  1.0000
  H   H2859     1.0  0.65600  0.18001  0.22968  1.0000
  H   H2860     1.0  0.67708  0.47339  0.29452  1.0000
  C   C3605     1.0  0.63409  0.45746  0.44438  1.0000
  H   H2861     1.0  0.67167  0.08390  0.26344  1.0000
  H   H2862     1.0  0.69182  0.10593  0.24321  1.0000
  H   H2863     1.0  0.72488  0.09362  0.22814  1.0000
  H   H2864     1.0  0.73779  0.05858  0.23340  1.0000
  H   H2865     1.0  0.71794  0.03592  0.25378  1.0000
  C   C3606     1.0  0.64268  0.17893  0.20796  1.0000
  H   H2866     1.0  0.61876  0.31407  0.19897  1.0000
  C   C3607     1.0  0.65445  0.21184  0.46881  1.0000
  H   H2867     1.0  0.71748  0.08467  0.40499  1.0000
  Fe  Fe245     1.0  0.62438  0.45890  0.32483  1.0000
  S   S494      1.0  0.62974  0.05708  0.23424  1.0000
  C   C3608     1.0  0.61259  0.39436  0.41959  1.0000
  H   H2868     1.0  0.72284  0.04829  0.31568  1.0000
  S   S495      1.0  0.75463  0.02793  0.26927  1.0000
  C   C3609     1.0  0.69543  0.33394  0.05629  1.0000
  H   H2869     1.0  0.66755  0.19228  0.26328  1.0000
  H   H2870     1.0  0.69525  0.38116  0.42749  1.0000
  H   H2871     1.0  0.72911  0.01054  0.31332  1.0000
  C   C3610     1.0  0.75866  0.04454  0.28018  1.0000
  H   H2872     1.0  0.74418  0.06894  0.26234  1.0000
  C   C3611     1.0  0.62798  0.00715  0.22334  1.0000
  H   H2873     1.0  0.70592  0.34129  0.04615  1.0000
  C   C3612     1.0  0.64171  0.22904  0.16180  1.0000
  C   C3613     1.0  0.63080  0.02109  0.23119  1.0000
  C   C3614     1.0  0.66734  0.36971  0.29553  1.0000
  H   H2874     1.0  0.60122  0.21625  0.15619  1.0000
  H   H2875     1.0  0.60373  0.32538  0.30401  1.0000
  C   C3615     1.0  0.76863  0.03868  0.29490  1.0000
  C   C3616     1.0  0.75159  0.06418  0.27389  1.0000
  C   C3617     1.0  0.74442  0.34985  0.25228  1.0000
  H   H2876     1.0  0.76657  0.30533  0.25524  1.0000
  H   H2877     1.0  0.77158  0.02517  0.11181  1.0000
  C   C3618     1.0  0.76547  0.02109  0.34637  1.0000
  C   C3619     1.0  0.72553  0.18698  0.16727  1.0000
  H   H2878     1.0  0.72538  0.22253  0.11056  1.0000
  C   C3620     1.0  0.70421  0.15523  0.44008  1.0000
  C   C3621     1.0  0.75377  0.07783  0.28267  1.0000
  H   H2879     1.0  0.74791  0.09288  0.27793  1.0000
  C   C3622     1.0  0.63708  0.47463  0.41134  1.0000
  C   C3623     1.0  0.70131  0.00435  0.17748  1.0000
  C   C3624     1.0  0.67164  0.35557  0.01718  1.0000
  H   H2880     1.0  0.78258  0.23988  0.25136  1.0000
  Fe  Fe246     1.0  0.75045  0.11919  0.30027  1.0000
  S   S496      1.0  0.75637  0.13814  0.27120  1.0000
  C   C3625     1.0  0.76372  0.07199  0.29738  1.0000
  C   C3626     1.0  0.61815  0.23946  0.99590  1.0000
  H   H2881     1.0  0.75690  0.02825  0.22551  1.0000
  H   H2882     1.0  0.76011  0.37813  0.06242  1.0000
  C   C3627     1.0  0.66190  0.20472  0.32985  1.0000
  C   C3628     1.0  0.72552  0.30279  0.00259  1.0000
  H   H2883     1.0  0.66259  0.20303  0.16074  1.0000
  C   C3629     1.0  0.75053  0.03688  0.34852  1.0000
  Fe  Fe247     1.0  0.74330  0.23753  0.39548  1.0000
  C   C3630     1.0  0.74878  0.38775  0.24459  1.0000
  H   H2884     1.0  0.62995  0.22193  0.16510  1.0000
  H   H2885     1.0  0.66167  0.21192  0.39113  1.0000
  Fe  Fe248     1.0  0.75444  0.16089  0.28688  1.0000
  C   C3631     1.0  0.68726  0.32176  0.05079  1.0000
  S   S497      1.0  0.77163  0.18392  0.27980  1.0000
  C   C3632     1.0  0.60720  0.35537  0.38029  1.0000
  C   C3633     1.0  0.74227  0.46267  0.24922  1.0000
  C   C3634     1.0  0.73957  0.03041  0.20561  1.0000
  C   C3635     1.0  0.65385  0.22981  0.45619  1.0000
  C   C3636     1.0  0.66796  0.29985  0.41341  1.0000
  C   C3637     1.0  0.67509  0.28258  0.40729  1.0000
  H   H2886     1.0  0.71180  0.23803  0.16510  1.0000
  C   C3638     1.0  0.67366  0.31246  0.06417  1.0000
  C   C3639     1.0  0.70484  0.06820  0.33288  1.0000
  C   C3640     1.0  0.69205  0.08596  0.33249  1.0000
  H   H2887     1.0  0.68657  0.09171  0.34522  1.0000
  H   H2888     1.0  0.67690  0.11045  0.31532  1.0000
  P   P121      1.0  0.71212  0.05497  0.35483  1.0000
  C   C3641     1.0  0.71985  0.23894  0.15066  1.0000
  H   H2889     1.0  0.76828  0.32754  0.19516  1.0000
  C   C3642     1.0  0.59565  0.23379  0.33248  1.0000
  H   H2890     1.0  0.74340  0.04361  0.19675  1.0000
  H   H2891     1.0  0.74746  0.99892  0.24664  1.0000
  Fe  Fe249     1.0  0.66226  0.43434  0.31148  1.0000
  H   H2892     1.0  0.71675  0.47253  0.23808  1.0000
  C   C3643     1.0  0.68650  0.09662  0.31559  1.0000
  C   C3644     1.0  0.69392  0.08981  0.29888  1.0000
  C   C3645     1.0  0.70677  0.07227  0.29911  1.0000
  C   C3646     1.0  0.73174  0.03504  0.35113  1.0000
  C   C3647     1.0  0.71915  0.07177  0.36391  1.0000
  S   S498      1.0  0.75152  0.20984  0.41599  1.0000
  C   C3648     1.0  0.68400  0.39114  0.43441  1.0000
  P   P122      1.0  0.69362  0.31906  0.02646  1.0000
  C   C3649     1.0  0.73029  0.30303  0.03338  1.0000
  H   H2893     1.0  0.72514  0.30603  0.04743  1.0000
  C   C3650     1.0  0.70028  0.18185  0.20230  1.0000
  C   C3651     1.0  0.62754  0.25276  0.24414  1.0000
  C   C3652     1.0  0.59693  0.34565  0.17108  1.0000
  H   H2894     1.0  0.70063  0.22678  0.02696  1.0000
  H   H2895     1.0  0.68480  0.01271  0.41341  1.0000
  S   S499      1.0  0.76270  0.25594  0.37479  1.0000
  C   C3653     1.0  0.73175  0.32238  0.38026  1.0000
  C   C3654     1.0  0.74716  0.02189  0.22188  1.0000
  C   C3655     1.0  0.66027  0.21837  0.15911  1.0000
  C   C3656     1.0  0.77087  0.40594  0.12805  1.0000
  C   C3657     1.0  0.68185  0.02337  0.40079  1.0000
  H   H2896     1.0  0.74723  0.45024  0.24283  1.0000
  C   C3658     1.0  0.60308  0.24971  0.32113  1.0000
  H   H2897     1.0  0.75858  0.36516  0.19750  1.0000
  C   C3659     1.0  0.72938  0.99693  0.22941  1.0000
  C   C3660     1.0  0.72094  0.08463  0.38998  1.0000
  H   H2898     1.0  0.70681  0.06182  0.39357  1.0000
  H   H2899     1.0  0.77969  0.04798  0.31412  1.0000
  C   C3661     1.0  0.67754  0.00338  0.23666  1.0000
  H   H2900     1.0  0.67113  0.06069  0.35528  1.0000
  S   S500      1.0  0.65301  0.45474  0.33114  1.0000
  H   H2901     1.0  0.64078  0.00722  0.28127  1.0000
  C   C3662     1.0  0.64722  0.21983  0.33473  1.0000
  C   C3663     1.0  0.78428  0.32143  0.00543  1.0000
  H   H2902     1.0  0.75381  0.05047  0.34787  1.0000
  C   C3664     1.0  0.73672  0.30460  0.39224  1.0000
  H   H2903     1.0  0.65271  0.25992  0.45292  1.0000
  C   C3665     1.0  0.77145  0.05244  0.30319  1.0000
  C   C3666     1.0  0.78789  0.27915  0.39836  1.0000
  C   C3667     1.0  0.62829  0.39939  0.40590  1.0000
  H   H2904     1.0  0.69416  0.17404  0.09455  1.0000
  S   S501      1.0  0.76658  0.08881  0.30873  1.0000
  H   H2905     1.0  0.59646  0.45564  0.46234  1.0000
  H   H2906     1.0  0.65958  0.32707  0.00976  1.0000
  H   H2907     1.0  0.60692  0.32905  0.33697  1.0000
  C   C3668     1.0  0.78756  0.19487  0.46515  1.0000
  H   H2908     1.0  0.71063  0.02698  0.39084  1.0000
  C   C3669     1.0  0.59871  0.38815  0.32137  1.0000
  C   C3670     1.0  0.75485  0.28718  0.22365  1.0000
  H   H2909     1.0  0.71644  0.30582  0.99250  1.0000
  H   H2910     1.0  0.64101  0.47436  0.39635  1.0000
  H   H2911     1.0  0.74989  0.27495  0.22291  1.0000
  S   S502      1.0  0.65011  0.42442  0.38310  1.0000
  S   S503      1.0  0.78140  0.33982  0.08546  1.0000
  C   C3671     1.0  0.68482  0.28406  0.02942  1.0000
  C   C3672     1.0  0.68659  0.22606  0.21645  1.0000
  C   C3673     1.0  0.60118  0.99635  0.27571  1.0000
  P   P123      1.0  0.71496  0.31593  0.44525  1.0000
  H   H2912     1.0  0.74871  0.24313  0.09888  1.0000
  H   H2913     1.0  0.64563  0.04642  0.37800  1.0000
  H   H2914     1.0  0.64789  0.36718  0.47206  1.0000
  H   H2915     1.0  0.66554  0.19200  0.34059  1.0000
  H   H2916     1.0  0.75278  0.25747  0.98499  1.0000
  H   H2917     1.0  0.69764  0.29089  0.43339  1.0000
  C   C3674     1.0  0.67987  0.30399  0.02299  1.0000
  H   H2918     1.0  0.64009  0.30577  0.00765  1.0000
  C   C3675     1.0  0.65267  0.29980  0.01363  1.0000
  C   C3676     1.0  0.74085  0.24171  0.11344  1.0000
  H   H2919     1.0  0.75355  0.26161  0.11978  1.0000
  C   C3677     1.0  0.74365  0.25206  0.12522  1.0000
  C   C3678     1.0  0.62725  0.27890  0.31491  1.0000
  H   H2920     1.0  0.76525  0.41097  0.00465  1.0000
  P   P124      1.0  0.78704  0.39974  0.03544  1.0000
  H   H2921     1.0  0.67487  0.22279  0.28255  1.0000
  C   C3679     1.0  0.76370  0.43004  0.07772  1.0000
  Fe  Fe250     1.0  0.70185  0.23654  0.40651  1.0000
  H   H2922     1.0  0.70653  0.17221  0.14798  1.0000
  H   H2923     1.0  0.64890  0.27079  0.01937  1.0000
  H   H2924     1.0  0.71247  0.99825  0.20998  1.0000
  C   C3680     1.0  0.67569  0.22752  0.15376  1.0000
  C   C3681     1.0  0.60653  0.27281  0.19942  1.0000
  Fe  Fe251     1.0  0.72624  0.22157  0.43645  1.0000
  H   H2925     1.0  0.65020  0.03488  0.18075  1.0000
  H   H2926     1.0  0.70144  0.19283  0.25387  1.0000
  C   C3682     1.0  0.67364  0.27215  0.02821  1.0000
  C   C3683     1.0  0.72735  0.23017  0.12012  1.0000
  H   H2927     1.0  0.69067  0.17993  0.21600  1.0000
  H   H2928     1.0  0.72409  0.42812  0.26328  1.0000
  H   H2929     1.0  0.74847  0.20399  0.34912  1.0000
  C   C3684     1.0  0.73317  0.25067  0.14383  1.0000
  Fe  Fe252     1.0  0.64468  0.42995  0.35375  1.0000
  C   C3685     1.0  0.75661  0.29038  0.01020  1.0000
  H   H2930     1.0  0.69707  0.27775  0.03585  1.0000
  C   C3686     1.0  0.61020  0.25911  0.99267  1.0000
  H   H2931     1.0  0.62817  0.21476  0.01642  1.0000
  H   H2932     1.0  0.73578  0.28885  0.42103  1.0000
  H   H2933     1.0  0.67890  0.33161  0.43269  1.0000
  H   H2934     1.0  0.67720  0.25687  0.03384  1.0000
  C   C3687     1.0  0.78529  0.37976  0.97635  1.0000
  H   H2935     1.0  0.61279  0.16360  0.13461  1.0000
  H   H2936     1.0  0.73508  0.25912  0.15273  1.0000
  H   H2937     1.0  0.64975  0.35350  0.44477  1.0000
  H   H2938     1.0  0.65096  0.27371  0.15125  1.0000
  H   H2939     1.0  0.72384  0.16185  0.21287  1.0000
  C   C3688     1.0  0.71659  0.22885  0.13876  1.0000
  C   C3689     1.0  0.67865  0.33807  0.44420  1.0000
  C   C3690     1.0  0.76590  0.41880  0.06464  1.0000
  H   H2940     1.0  0.76503  0.17148  0.36189  1.0000
  H   H2941     1.0  0.74913  0.24235  0.44898  1.0000
  C   C3691     1.0  0.65361  0.25818  0.15404  1.0000
  H   H2942     1.0  0.77343  0.99133  0.34460  1.0000
  H   H2943     1.0  0.74621  0.16636  0.18185  1.0000
  C   C3692     1.0  0.76359  0.20117  0.34840  1.0000
  C   C3693     1.0  0.69335  0.34177  0.46793  1.0000
  H   H2944     1.0  0.76632  0.23024  0.33496  1.0000
  C   C3694     1.0  0.66760  0.37413  0.00619  1.0000
  C   C3695     1.0  0.77365  0.21588  0.34035  1.0000
  H   H2945     1.0  0.73722  0.03331  0.11167  1.0000
  S   S504      1.0  0.62318  0.22618  0.97809  1.0000
  Fe  Fe253     1.0  0.76238  0.99584  0.28056  1.0000
  C   C3696     1.0  0.73598  0.31783  0.45165  1.0000
  C   C3697     1.0  0.61475  0.20351  0.20305  1.0000
  C   C3698     1.0  0.73956  0.33588  0.45040  1.0000
  Fe  Fe254     1.0  0.62768  0.41627  0.32817  1.0000
  C   C3699     1.0  0.73155  0.30267  0.41195  1.0000
  P   P125      1.0  0.69944  0.21362  0.14806  1.0000
  S   S505      1.0  0.61647  0.28461  0.12563  1.0000
  C   C3700     1.0  0.78014  0.37120  0.17276  1.0000
  H   H2946     1.0  0.77507  0.28969  0.46786  1.0000
  H   H2947     1.0  0.61941  0.34374  0.37921  1.0000
  H   H2948     1.0  0.64862  0.24955  0.29091  1.0000
  H   H2949     1.0  0.73604  0.32394  0.36500  1.0000
  C   C3701     1.0  0.68079  0.38035  0.99005  1.0000
  H   H2950     1.0  0.74246  0.33529  0.25560  1.0000
  H   H2951     1.0  0.72245  0.23582  0.04090  1.0000
  H   H2952     1.0  0.77396  0.37984  0.98885  1.0000
  H   H2953     1.0  0.68373  0.25507  0.14675  1.0000
  H   H2954     1.0  0.78596  0.16970  0.45699  1.0000
  C   C3702     1.0  0.77369  0.36280  0.19170  1.0000
  H   H2955     1.0  0.58987  0.37112  0.20510  1.0000
  C   C3703     1.0  0.75853  0.30136  0.20732  1.0000
  C   C3704     1.0  0.76519  0.31705  0.20815  1.0000
  C   C3705     1.0  0.69886  0.21437  0.22818  1.0000
  C   C3706     1.0  0.74936  0.29441  0.02827  1.0000
  C   C3707     1.0  0.67293  0.41279  0.45612  1.0000
  C   C3708     1.0  0.65478  0.41731  0.45200  1.0000
  H   H2956     1.0  0.78233  0.43961  0.01455  1.0000
  H   H2957     1.0  0.59582  0.99032  0.23942  1.0000
  C   C3709     1.0  0.69328  0.21107  0.11383  1.0000
  C   C3710     1.0  0.70281  0.18061  0.13470  1.0000
  H   H2958     1.0  0.68994  0.22661  0.11075  1.0000
  H   H2959     1.0  0.78232  0.22483  0.39994  1.0000
  C   C3711     1.0  0.59952  0.42786  0.42006  1.0000
  C   C3712     1.0  0.68746  0.39967  0.44740  1.0000
  C   C3713     1.0  0.62599  0.19421  0.30253  1.0000
  H   H2960     1.0  0.77795  0.37442  0.09968  1.0000
  H   H2961     1.0  0.62361  0.17565  0.25943  1.0000
  C   C3714     1.0  0.76182  0.00347  0.34657  1.0000
  C   C3715     1.0  0.78103  0.24614  0.27823  1.0000
  H   H2962     1.0  0.67564  0.99326  0.33640  1.0000
  C   C3716     1.0  0.59916  0.25913  0.36197  1.0000
  C   C3717     1.0  0.78007  0.15884  0.42041  1.0000
  H   H2963     1.0  0.77013  0.38004  0.16411  1.0000
  H   H2964     1.0  0.59398  0.22609  0.25332  1.0000
  H   H2965     1.0  0.59582  0.36091  0.33994  1.0000
  H   H2966     1.0  0.60628  0.31531  0.23444  1.0000
  C   C3718     1.0  0.59807  0.40858  0.42655  1.0000
  H   H2967     1.0  0.61823  0.44925  0.23408  1.0000
  H   H2968     1.0  0.77443  0.02364  0.29968  1.0000
  C   C3719     1.0  0.63182  0.47256  0.21756  1.0000
  C   C3720     1.0  0.72887  0.24592  0.98608  1.0000
  H   H2969     1.0  0.78637  0.12122  0.38369  1.0000
  C   C3721     1.0  0.59096  0.37170  0.32831  1.0000
  H   H2970     1.0  0.77694  0.44628  0.08846  1.0000
  C   C3722     1.0  0.60962  0.37449  0.15819  1.0000
  H   H2971     1.0  0.59574  0.40237  0.38217  1.0000
  C   C3723     1.0  0.69317  0.48033  0.32545  1.0000
  C   C3724     1.0  0.59360  0.38854  0.38200  1.0000
  C   C3725     1.0  0.74656  0.48184  0.26882  1.0000
  H   H2972     1.0  0.78369  0.25241  0.30390  1.0000
  C   C3726     1.0  0.60018  0.23848  0.25083  1.0000
  H   H2973     1.0  0.61286  0.25866  0.19657  1.0000
  C   C3727     1.0  0.62091  0.17664  0.30527  1.0000
  H   H2974     1.0  0.60165  0.28465  0.00415  1.0000
  C   C3728     1.0  0.63012  0.20530  0.28417  1.0000
  H   H2975     1.0  0.62165  0.45314  0.26488  1.0000
  C   C3729     1.0  0.78293  0.41590  0.05121  1.0000
  H   H2976     1.0  0.60630  0.39222  0.17794  1.0000
  C   C3730     1.0  0.63615  0.47657  0.25228  1.0000
  H   H2977     1.0  0.63397  0.21891  0.28226  1.0000
  H   H2978     1.0  0.61893  0.47874  0.35554  1.0000
  H   H2979     1.0  0.75816  0.35118  0.45526  1.0000
  H   H2980     1.0  0.72126  0.16976  0.47069  1.0000
  C   C3731     1.0  0.69806  0.36804  0.98498  1.0000
  C   C3732     1.0  0.65310  0.24610  0.46270  1.0000
  H   H2981     1.0  0.60113  0.22293  0.07226  1.0000
  H   H2982     1.0  0.78229  0.02060  0.14178  1.0000
  H   H2983     1.0  0.78187  0.10256  0.33570  1.0000
  H   H2984     1.0  0.60630  0.26642  0.97919  1.0000
  H   H2985     1.0  0.67640  0.99463  0.22762  1.0000
  H   H2986     1.0  0.59365  0.11879  0.16086  1.0000
  H   H2987     1.0  0.78340  0.23921  0.43296  1.0000
  C   C3733     1.0  0.78583  0.11258  0.34148  1.0000
  S   S506      1.0  0.78342  0.42232  0.22709  1.0000
  C   C3734     1.0  0.78651  0.24380  0.37252  1.0000
  C   C3735     1.0  0.59389  0.28819  0.14033  1.0000
  H   H2988     1.0  0.77996  0.02263  0.34418  1.0000
  C   C3736     1.0  0.77961  0.26460  0.41127  1.0000
  C   C3737     1.0  0.66337  0.25306  0.97668  1.0000
  C   C3738     1.0  0.62644  0.47503  0.45005  1.0000
  S   S507      1.0  0.78406  0.41565  0.13808  1.0000
  C   C3739     1.0  0.78660  0.35106  0.20287  1.0000
  H   H2989     1.0  0.70145  0.39630  0.45057  1.0000
  C   C3740     1.0  0.59094  0.35022  0.18908  1.0000
  H   H2990     1.0  0.59449  0.33270  0.16892  1.0000
  H   H2991     1.0  0.77738  0.09846  0.37060  1.0000
  H   H2992     1.0  0.78291  0.32548  0.97599  1.0000
  C   C3741     1.0  0.75904  0.24795  0.47133  1.0000
  C   C3742     1.0  0.72512  0.47520  0.24659  1.0000
  H   H2993     1.0  0.59418  0.12899  0.12624  1.0000
  H   H2994     1.0  0.78791  0.46134  0.22971  1.0000
  H   H2995     1.0  0.78893  0.48141  0.25122  1.0000
  C   C3743     1.0  0.78860  0.12320  0.36847  1.0000
  H   H2996     1.0  0.62194  0.47544  0.46498  1.0000
  C   C3744     1.0  0.78936  0.14181  0.43062  1.0000
  H   H2997     1.0  0.78979  0.20603  0.29283  1.0000
  H   H2998     1.0  0.65907  0.14875  0.47469  1.0000
  C   C3745     1.0  0.59102  0.28764  0.83575  1.0000
  C   C3746     1.0  0.70503  0.30704  0.86250  1.0000
  C   C3747     1.0  0.59811  0.33435  0.54239  1.0000
  C   C3748     1.0  0.59362  0.30554  0.66047  1.0000
  Fe  Fe255     1.0  0.74990  0.13505  0.67887  1.0000
  C   C3749     1.0  0.60028  0.34754  0.55175  1.0000
  Fe  Fe256     1.0  0.62586  0.34872  0.61541  1.0000
  S   S508      1.0  0.60312  0.37473  0.60984  1.0000
  S   S509      1.0  0.62279  0.32133  0.63726  1.0000
  Fe  Fe257     1.0  0.65490  0.36508  0.58359  1.0000
  S   S510      1.0  0.63504  0.39294  0.57505  1.0000
  S   S511      1.0  0.68480  0.35731  0.56768  1.0000
  Fe  Fe258     1.0  0.62524  0.39152  0.60638  1.0000
  S   S512      1.0  0.61391  0.41825  0.61833  1.0000
  Fe  Fe259     1.0  0.61408  0.37469  0.57889  1.0000
  C   C3750     1.0  0.72230  0.46660  0.66877  1.0000
  S   S513      1.0  0.64727  0.36530  0.61470  1.0000
  S   S514      1.0  0.63475  0.34697  0.58470  1.0000
  Fe  Fe260     1.0  0.66627  0.44739  0.72306  1.0000
  C   C3751     1.0  0.65643  0.36331  0.72785  1.0000
  S   S515      1.0  0.68927  0.43248  0.73976  1.0000
  Fe  Fe261     1.0  0.62598  0.44614  0.72250  1.0000
  S   S516      1.0  0.62577  0.46758  0.69478  1.0000
  C   C3752     1.0  0.62218  0.23148  0.73684  1.0000
  Fe  Fe262     1.0  0.65511  0.45105  0.68560  1.0000
  C   C3753     1.0  0.78288  0.26249  0.80368  1.0000
  C   C3754     1.0  0.75955  0.05491  0.62159  1.0000
  C   C3755     1.0  0.75260  0.31373  0.84873  1.0000
  S   S517      1.0  0.65430  0.42842  0.71243  1.0000
  S   S518      1.0  0.63774  0.46342  0.73550  1.0000
  S   S519      1.0  0.63443  0.26239  0.89293  1.0000
  Fe  Fe263     1.0  0.64453  0.23214  0.90771  1.0000
  S   S520      1.0  0.66391  0.21284  0.88857  1.0000
  Fe  Fe264     1.0  0.64267  0.27097  0.91569  1.0000
  S   S521      1.0  0.65689  0.29636  0.90707  1.0000
  Fe  Fe265     1.0  0.63989  0.13323  0.82489  1.0000
  S   S522      1.0  0.62119  0.12299  0.85274  1.0000
  Fe  Fe266     1.0  0.67543  0.10754  0.83663  1.0000
  S   S523      1.0  0.66003  0.09527  0.86557  1.0000
  S   S524      1.0  0.70675  0.09915  0.82548  1.0000
  Fe  Fe267     1.0  0.63863  0.09362  0.85011  1.0000
  S   S525      1.0  0.62720  0.06639  0.85914  1.0000
  Fe  Fe268     1.0  0.64411  0.12552  0.86573  1.0000
  S   S526      1.0  0.63640  0.13773  0.89201  1.0000
  S   S527      1.0  0.65529  0.10366  0.82105  1.0000
  S   S528      1.0  0.66144  0.13801  0.83811  1.0000
  H   H2999     1.0  0.68628  0.47363  0.73097  1.0000
  C   C3756     1.0  0.59679  0.42702  0.70573  1.0000
  H   H3000     1.0  0.62975  0.05918  0.79485  1.0000
  Fe  Fe269     1.0  0.74727  0.35135  0.90576  1.0000
  S   S529      1.0  0.75812  0.32113  0.90167  1.0000
  S   S530      1.0  0.73412  0.37450  0.88337  1.0000
  C   C3757     1.0  0.62577  0.37661  0.74537  1.0000
  S   S531      1.0  0.76752  0.31031  0.94475  1.0000
  H   H3001     1.0  0.69985  0.21486  0.92678  1.0000
  Fe  Fe270     1.0  0.74295  0.31248  0.93176  1.0000
  S   S532      1.0  0.72843  0.28744  0.94157  1.0000
  S   S533      1.0  0.77224  0.35220  0.91671  1.0000
  S   S534      1.0  0.72967  0.34263  0.93483  1.0000
  P   P126      1.0  0.59257  0.31242  0.83197  1.0000
  S   S535      1.0  0.71336  0.26722  0.58083  1.0000
  Fe  Fe271     1.0  0.74249  0.13178  0.72092  1.0000
  S   S536      1.0  0.71916  0.14618  0.74120  1.0000
  C   C3758     1.0  0.69118  0.21363  0.71151  1.0000
  S   S537      1.0  0.73472  0.11591  0.70345  1.0000
  H   H3002     1.0  0.75325  0.45724  0.86153  1.0000
  C   C3759     1.0  0.70524  0.26700  0.48452  1.0000
  S   S538      1.0  0.73548  0.02421  0.66599  1.0000
  C   C3760     1.0  0.76056  0.05329  0.69771  1.0000
  C   C3761     1.0  0.59675  0.18226  0.79876  1.0000
  C   C3762     1.0  0.75710  0.02412  0.69084  1.0000
  C   C3763     1.0  0.74503  0.03507  0.67860  1.0000
  C   C3764     1.0  0.74064  0.05511  0.67609  1.0000
  C   C3765     1.0  0.74835  0.06419  0.68565  1.0000
  H   H3003     1.0  0.67246  0.98708  0.71885  1.0000
  H   H3004     1.0  0.73134  0.06366  0.66665  1.0000
  H   H3005     1.0  0.73035  0.24964  0.97076  1.0000
  C   C3766     1.0  0.74066  0.17587  0.62101  1.0000
  C   C3767     1.0  0.75193  0.18459  0.60446  1.0000
  H   H3006     1.0  0.72545  0.18038  0.62340  1.0000
  H   H3007     1.0  0.74539  0.19581  0.59404  1.0000
  H   H3008     1.0  0.74743  0.22751  0.51815  1.0000
  H   H3009     1.0  0.72949  0.21188  0.50548  1.0000
  H   H3010     1.0  0.60505  0.32075  0.60884  1.0000
  C   C3768     1.0  0.75206  0.41925  0.84372  1.0000
  C   C3769     1.0  0.74106  0.40581  0.85490  1.0000
  C   C3770     1.0  0.74838  0.39054  0.86865  1.0000
  C   C3771     1.0  0.76683  0.38852  0.87080  1.0000
  H   H3011     1.0  0.65344  0.27028  0.54188  1.0000
  H   H3012     1.0  0.72681  0.40737  0.85308  1.0000
  H   H3013     1.0  0.77276  0.37670  0.88102  1.0000
  C   C3772     1.0  0.63896  0.29738  0.48102  1.0000
  H   H3014     1.0  0.65411  0.22557  0.50907  1.0000
  S   S539      1.0  0.63067  0.15743  0.80134  1.0000
  H   H3015     1.0  0.68986  0.29616  0.82131  1.0000
  H   H3016     1.0  0.61462  0.29203  0.50299  1.0000
  C   C3773     1.0  0.71082  0.11197  0.80198  1.0000
  C   C3774     1.0  0.69606  0.12587  0.79522  1.0000
  C   C3775     1.0  0.69905  0.13675  0.77672  1.0000
  C   C3776     1.0  0.71663  0.13318  0.76458  1.0000
  C   C3777     1.0  0.73154  0.11921  0.77114  1.0000
  C   C3778     1.0  0.72868  0.10877  0.79002  1.0000
  H   H3017     1.0  0.68223  0.12839  0.80417  1.0000
  H   H3018     1.0  0.68746  0.14747  0.77166  1.0000
  H   H3019     1.0  0.74527  0.11665  0.76183  1.0000
  H   H3020     1.0  0.74022  0.09826  0.79535  1.0000
  C   C3779     1.0  0.62825  0.05357  0.84200  1.0000
  C   C3780     1.0  0.62754  0.03406  0.84782  1.0000
  H   H3021     1.0  0.70892  0.30961  0.87448  1.0000
  C   C3781     1.0  0.62922  0.06259  0.82284  1.0000
  H   H3022     1.0  0.62667  0.02703  0.86265  1.0000
  C   C3782     1.0  0.74826  0.34776  0.84750  1.0000
  H   H3023     1.0  0.62957  0.07768  0.81830  1.0000
  C   C3783     1.0  0.67745  0.29357  0.91579  1.0000
  C   C3784     1.0  0.68574  0.27577  0.92568  1.0000
  C   C3785     1.0  0.70162  0.27400  0.93317  1.0000
  C   C3786     1.0  0.70941  0.28995  0.93074  1.0000
  C   C3787     1.0  0.70159  0.30767  0.92028  1.0000
  C   C3788     1.0  0.68556  0.30948  0.91290  1.0000
  H   H3024     1.0  0.67971  0.26344  0.92798  1.0000
  H   H3025     1.0  0.70765  0.26033  0.94121  1.0000
  H   H3026     1.0  0.70756  0.32006  0.91828  1.0000
  H   H3027     1.0  0.67925  0.32331  0.90524  1.0000
  C   C3789     1.0  0.65666  0.19164  0.88998  1.0000
  C   C3790     1.0  0.66434  0.18174  0.87521  1.0000
  C   C3791     1.0  0.65843  0.16504  0.87579  1.0000
  C   C3792     1.0  0.64491  0.15807  0.89122  1.0000
  C   C3793     1.0  0.63755  0.16777  0.90617  1.0000
  C   C3794     1.0  0.64334  0.18456  0.90552  1.0000
  H   H3028     1.0  0.66423  0.15763  0.86429  1.0000
  H   H3029     1.0  0.62712  0.16244  0.91817  1.0000
  H   H3030     1.0  0.63754  0.19196  0.91709  1.0000
  C   C3795     1.0  0.70008  0.44715  0.74678  1.0000
  C   C3796     1.0  0.71295  0.43874  0.75889  1.0000
  C   C3797     1.0  0.72120  0.45024  0.76526  1.0000
  C   C3798     1.0  0.71651  0.47021  0.75960  1.0000
  C   C3799     1.0  0.63676  0.36428  0.73334  1.0000
  C   C3800     1.0  0.69592  0.46708  0.74059  1.0000
  H   H3031     1.0  0.71637  0.42331  0.76356  1.0000
  H   H3032     1.0  0.73082  0.44367  0.77488  1.0000
  C   C3801     1.0  0.74077  0.18539  0.73770  1.0000
  C   C3802     1.0  0.77029  0.41752  0.84649  1.0000
  Fe  Fe272     1.0  0.75549  0.34129  0.94560  1.0000
  H   H3033     1.0  0.68367  0.22038  0.72329  1.0000
  P   P127      1.0  0.60735  0.24442  0.71995  1.0000
  H   H3034     1.0  0.75202  0.19731  0.94683  1.0000
  C   C3803     1.0  0.74072  0.33195  0.84867  1.0000
  H   H3035     1.0  0.72355  0.28836  0.82287  1.0000
  C   C3804     1.0  0.69294  0.33230  0.57162  1.0000
  C   C3805     1.0  0.68253  0.32008  0.58570  1.0000
  C   C3806     1.0  0.68877  0.30012  0.58817  1.0000
  C   C3807     1.0  0.70568  0.29229  0.57694  1.0000
  C   C3808     1.0  0.71609  0.30452  0.56290  1.0000
  C   C3809     1.0  0.70972  0.32448  0.56021  1.0000
  H   H3036     1.0  0.66980  0.32596  0.59487  1.0000
  H   H3037     1.0  0.68064  0.29073  0.59901  1.0000
  H   H3038     1.0  0.72894  0.29868  0.55397  1.0000
  H   H3039     1.0  0.71779  0.33386  0.54926  1.0000
  C   C3810     1.0  0.62887  0.42464  0.62919  1.0000
  C   C3811     1.0  0.64847  0.41774  0.62525  1.0000
  C   C3812     1.0  0.66014  0.42306  0.63409  1.0000
  C   C3813     1.0  0.65224  0.43482  0.64732  1.0000
  C   C3814     1.0  0.63260  0.44142  0.65154  1.0000
  C   C3815     1.0  0.62097  0.43660  0.64224  1.0000
  H   H3040     1.0  0.65464  0.40850  0.61521  1.0000
  C   C3816     1.0  0.61145  0.31856  0.81214  1.0000
  H   H3041     1.0  0.62643  0.45039  0.66178  1.0000
  H   H3042     1.0  0.60580  0.44180  0.64545  1.0000
  C   C3817     1.0  0.59724  0.31611  0.85321  1.0000
  C   C3818     1.0  0.62929  0.05213  0.80962  1.0000
  H   H3043     1.0  0.62869  0.07051  0.91652  1.0000
  C   C3819     1.0  0.59322  0.36713  0.54578  1.0000
  C   C3820     1.0  0.65387  0.22677  0.49435  1.0000
  C   C3821     1.0  0.78210  0.46240  0.92449  1.0000
  H   H3044     1.0  0.62693  0.39721  0.47645  1.0000
  H   H3045     1.0  0.77302  0.48272  0.72000  1.0000
  C   C3822     1.0  0.64527  0.32880  0.69678  1.0000
  Fe  Fe273     1.0  0.78179  0.32127  0.91474  1.0000
  H   H3046     1.0  0.60343  0.31920  0.54720  1.0000
  C   C3823     1.0  0.68625  0.17770  0.79833  1.0000
  C   C3824     1.0  0.69664  0.18710  0.78168  1.0000
  C   C3825     1.0  0.69232  0.20709  0.77640  1.0000
  C   C3826     1.0  0.67709  0.21760  0.78742  1.0000
  C   C3827     1.0  0.66606  0.20814  0.80378  1.0000
  C   C3828     1.0  0.67141  0.18814  0.80961  1.0000
  P   P128      1.0  0.64570  0.22182  0.81721  1.0000
  C   C3829     1.0  0.63272  0.20640  0.83651  1.0000
  C   C3830     1.0  0.65432  0.23670  0.82722  1.0000
  C   C3831     1.0  0.67094  0.22935  0.83444  1.0000
  C   C3832     1.0  0.67668  0.24001  0.84399  1.0000
  C   C3833     1.0  0.66581  0.25798  0.84652  1.0000
  C   C3834     1.0  0.64927  0.26540  0.83932  1.0000
  C   C3835     1.0  0.64351  0.25480  0.82973  1.0000
  C   C3836     1.0  0.62717  0.21017  0.85487  1.0000
  C   C3837     1.0  0.61693  0.19839  0.86964  1.0000
  C   C3838     1.0  0.61275  0.18239  0.86640  1.0000
  C   C3839     1.0  0.61813  0.17856  0.84821  1.0000
  C   C3840     1.0  0.62779  0.19066  0.83327  1.0000
  C   C3841     1.0  0.63014  0.23624  0.80128  1.0000
  C   C3842     1.0  0.63450  0.25322  0.78881  1.0000
  C   C3843     1.0  0.62241  0.26449  0.77665  1.0000
  P   P129      1.0  0.62562  0.35120  0.72356  1.0000
  C   C3844     1.0  0.61207  0.17338  0.50341  1.0000
  C   C3845     1.0  0.61351  0.23077  0.80124  1.0000
  H   H3047     1.0  0.68968  0.16224  0.80258  1.0000
  H   H3048     1.0  0.70809  0.17880  0.77302  1.0000
  H   H3049     1.0  0.70074  0.21436  0.76372  1.0000
  H   H3050     1.0  0.67393  0.23305  0.78312  1.0000
  H   H3051     1.0  0.66426  0.18038  0.82280  1.0000
  H   H3052     1.0  0.67897  0.21500  0.83355  1.0000
  H   H3053     1.0  0.68891  0.23382  0.85049  1.0000
  H   H3054     1.0  0.66978  0.26574  0.85481  1.0000
  H   H3055     1.0  0.64046  0.27893  0.84199  1.0000
  H   H3056     1.0  0.63022  0.26033  0.82506  1.0000
  H   H3057     1.0  0.63094  0.22192  0.85808  1.0000
  C   C3846     1.0  0.75428  0.27917  0.88592  1.0000
  S   S540      1.0  0.76578  0.24073  0.58599  1.0000
  H   H3058     1.0  0.61495  0.16611  0.84570  1.0000
  H   H3059     1.0  0.63163  0.18752  0.81924  1.0000
  H   H3060     1.0  0.64708  0.25790  0.78869  1.0000
  H   H3061     1.0  0.62577  0.27757  0.76713  1.0000
  C   C3847     1.0  0.62047  0.21274  0.74672  1.0000
  H   H3062     1.0  0.75262  0.30476  0.80933  1.0000
  S   S541      1.0  0.74966  0.35566  0.97037  1.0000
  C   C3848     1.0  0.69191  0.28782  0.63480  1.0000
  C   C3849     1.0  0.67246  0.29113  0.64238  1.0000
  C   C3850     1.0  0.66411  0.27599  0.65393  1.0000
  C   C3851     1.0  0.67526  0.25753  0.65799  1.0000
  C   C3852     1.0  0.69492  0.25415  0.65069  1.0000
  C   C3853     1.0  0.70305  0.26938  0.63865  1.0000
  P   P130      1.0  0.70876  0.22989  0.65373  1.0000
  C   C3854     1.0  0.73376  0.22990  0.64833  1.0000
  C   C3855     1.0  0.70414  0.21595  0.67770  1.0000
  C   C3856     1.0  0.69442  0.22474  0.69300  1.0000
  C   C3857     1.0  0.74665  0.21821  0.63663  1.0000
  C   C3858     1.0  0.76587  0.21880  0.63195  1.0000
  H   H3063     1.0  0.72727  0.32173  0.50309  1.0000
  C   C3859     1.0  0.75988  0.24171  0.65169  1.0000
  C   C3860     1.0  0.74057  0.24132  0.65623  1.0000
  C   C3861     1.0  0.70295  0.21971  0.63710  1.0000
  C   C3862     1.0  0.70887  0.22666  0.61759  1.0000
  C   C3863     1.0  0.70372  0.21984  0.60434  1.0000
  C   C3864     1.0  0.69254  0.20601  0.61051  1.0000
  C   C3865     1.0  0.68647  0.19905  0.62997  1.0000
  C   C3866     1.0  0.69157  0.20594  0.64325  1.0000
  H   H3064     1.0  0.69827  0.29942  0.62522  1.0000
  H   H3065     1.0  0.66379  0.30534  0.63876  1.0000
  H   H3066     1.0  0.64890  0.27857  0.65915  1.0000
  H   H3067     1.0  0.66851  0.24581  0.66636  1.0000
  H   H3068     1.0  0.71786  0.26702  0.63162  1.0000
  H   H3069     1.0  0.71944  0.18904  0.66976  1.0000
  H   H3070     1.0  0.68957  0.24014  0.69074  1.0000
  H   H3071     1.0  0.74196  0.20876  0.63091  1.0000
  H   H3072     1.0  0.59077  0.42596  0.67938  1.0000
  S   S542      1.0  0.75974  0.48211  0.80212  1.0000
  H   H3073     1.0  0.63921  0.26906  0.96463  1.0000
  H   H3074     1.0  0.73097  0.25015  0.66563  1.0000
  H   H3075     1.0  0.71755  0.23738  0.61261  1.0000
  H   H3076     1.0  0.70849  0.22537  0.58929  1.0000
  H   H3077     1.0  0.68879  0.20058  0.60020  1.0000
  H   H3078     1.0  0.67807  0.18810  0.63476  1.0000
  H   H3079     1.0  0.68671  0.20039  0.65820  1.0000
  C   C3867     1.0  0.64162  0.27475  0.58786  1.0000
  C   C3868     1.0  0.64470  0.29319  0.58521  1.0000
  C   C3869     1.0  0.65075  0.30351  0.56690  1.0000
  C   C3870     1.0  0.63980  0.34473  0.51580  1.0000
  C   C3871     1.0  0.63341  0.36444  0.51472  1.0000
  C   C3872     1.0  0.64112  0.37394  0.52369  1.0000
  C   C3873     1.0  0.65565  0.36386  0.53329  1.0000
  H   H3080     1.0  0.63723  0.26669  0.60209  1.0000
  H   H3081     1.0  0.64283  0.29941  0.59736  1.0000
  H   H3082     1.0  0.65374  0.31737  0.56530  1.0000
  H   H3083     1.0  0.63303  0.33773  0.50922  1.0000
  H   H3084     1.0  0.62184  0.37215  0.50768  1.0000
  H   H3085     1.0  0.63547  0.38899  0.52372  1.0000
  H   H3086     1.0  0.66155  0.37124  0.54035  1.0000
  H   H3087     1.0  0.76881  0.25450  0.85174  1.0000
  H   H3088     1.0  0.62706  0.29752  0.52804  1.0000
  C   C3874     1.0  0.77775  0.42103  0.74230  1.0000
  H   H3089     1.0  0.65057  0.04816  0.65631  1.0000
  H   H3090     1.0  0.60730  0.34256  0.56363  1.0000
  S   S543      1.0  0.76305  0.27353  0.54633  1.0000
  C   C3875     1.0  0.65943  0.31412  0.69014  1.0000
  C   C3876     1.0  0.72840  0.21292  0.96406  1.0000
  H   H3091     1.0  0.60986  0.20620  0.74490  1.0000
  C   C3877     1.0  0.76234  0.42136  0.90088  1.0000
  C   C3878     1.0  0.71090  0.28433  0.47537  1.0000
  C   C3879     1.0  0.71476  0.14853  0.82702  1.0000
  C   C3880     1.0  0.74103  0.16265  0.80676  1.0000
  C   C3881     1.0  0.64603  0.15584  0.48261  1.0000
  C   C3882     1.0  0.71333  0.29515  0.83354  1.0000
  H   H3092     1.0  0.67572  0.35998  0.48688  1.0000
  H   H3093     1.0  0.77115  0.43087  0.89118  1.0000
  C   C3883     1.0  0.61985  0.31549  0.87180  1.0000
  H   H3094     1.0  0.77565  0.27669  0.59860  1.0000
  C   C3884     1.0  0.77153  0.13934  0.78152  1.0000
  C   C3885     1.0  0.62106  0.30588  0.80006  1.0000
  H   H3095     1.0  0.76793  0.38866  0.72318  1.0000
  C   C3886     1.0  0.74473  0.42192  0.89729  1.0000
  C   C3887     1.0  0.75384  0.26724  0.90399  1.0000
  C   C3888     1.0  0.70926  0.22237  0.96622  1.0000
  C   C3889     1.0  0.64291  0.33132  0.71533  1.0000
  C   C3890     1.0  0.75275  0.43580  0.72477  1.0000
  H   H3096     1.0  0.63784  0.21224  0.70855  1.0000
  C   C3891     1.0  0.66976  0.05721  0.68893  1.0000
  C   C3892     1.0  0.59231  0.31803  0.76511  1.0000
  P   P131      1.0  0.66481  0.05644  0.71413  1.0000
  C   C3893     1.0  0.68560  0.05898  0.72049  1.0000
  C   C3894     1.0  0.64523  0.07522  0.72124  1.0000
  C   C3895     1.0  0.63431  0.08743  0.70830  1.0000
  C   C3896     1.0  0.61918  0.10180  0.71413  1.0000
  C   C3897     1.0  0.61488  0.10413  0.73286  1.0000
  C   C3898     1.0  0.62583  0.09222  0.74574  1.0000
  C   C3899     1.0  0.64107  0.07796  0.73994  1.0000
  C   C3900     1.0  0.70089  0.04336  0.72267  1.0000
  C   C3901     1.0  0.71723  0.04565  0.72684  1.0000
  C   C3902     1.0  0.71853  0.06352  0.72868  1.0000
  C   C3903     1.0  0.70360  0.07922  0.72606  1.0000
  C   C3904     1.0  0.68720  0.07702  0.72196  1.0000
  C   C3905     1.0  0.65961  0.03297  0.72553  1.0000
  C   C3906     1.0  0.64510  0.03036  0.74177  1.0000
  C   C3907     1.0  0.64070  0.01228  0.74973  1.0000
  C   C3908     1.0  0.65054  0.99669  0.74151  1.0000
  C   C3909     1.0  0.66491  0.99913  0.72534  1.0000
  C   C3910     1.0  0.66948  0.01714  0.71740  1.0000
  H   H3097     1.0  0.66559  0.31081  0.84606  1.0000
  H   H3098     1.0  0.67335  0.33660  0.54203  1.0000
  H   H3099     1.0  0.67531  0.31757  0.87243  1.0000
  H   H3100     1.0  0.66138  0.31259  0.67566  1.0000
  C   C3911     1.0  0.64667  0.20991  0.76129  1.0000
  H   H3101     1.0  0.63741  0.08602  0.69372  1.0000
  C   C3912     1.0  0.69693  0.25836  0.47524  1.0000
  H   H3102     1.0  0.59669  0.32566  0.70150  1.0000
  H   H3103     1.0  0.62239  0.09394  0.76029  1.0000
  H   H3104     1.0  0.64948  0.06889  0.75012  1.0000
  H   H3105     1.0  0.70047  0.02958  0.72067  1.0000
  H   H3106     1.0  0.60399  0.27750  0.86049  1.0000
  H   H3107     1.0  0.61287  0.20123  0.88382  1.0000
  H   H3108     1.0  0.70488  0.09318  0.72693  1.0000
  H   H3109     1.0  0.67599  0.08952  0.71964  1.0000
  H   H3110     1.0  0.63702  0.04205  0.74849  1.0000
  C   C3913     1.0  0.60593  0.34319  0.74132  1.0000
  H   H3111     1.0  0.77173  0.35591  0.77646  1.0000
  H   H3112     1.0  0.68060  0.01864  0.70476  1.0000
  H   H3113     1.0  0.75700  0.20445  0.77311  1.0000
  H   H3114     1.0  0.75863  0.46270  0.64290  1.0000
  C   C3914     1.0  0.78912  0.39010  0.80911  1.0000
  H   H3115     1.0  0.63019  0.42505  0.53157  1.0000
  H   H3116     1.0  0.68425  0.22952  0.95411  1.0000
  H   H3117     1.0  0.77703  0.05784  0.64843  1.0000
  H   H3118     1.0  0.65359  0.32076  0.74125  1.0000
  S   S544      1.0  0.66734  0.44143  0.65789  1.0000
  C   C3915     1.0  0.62855  0.37984  0.69079  1.0000
  H   H3119     1.0  0.72027  0.40899  0.90571  1.0000
  H   H3120     1.0  0.76060  0.00865  0.69281  1.0000
  C   C3916     1.0  0.78153  0.25303  0.82276  1.0000
  C   C3917     1.0  0.75531  0.12879  0.59793  1.0000
  S   S545      1.0  0.66958  0.46878  0.69525  1.0000
  H   H3121     1.0  0.72052  0.45529  0.86164  1.0000
  C   C3918     1.0  0.76889  0.99108  0.80943  1.0000
  H   H3122     1.0  0.61728  0.29217  0.80235  1.0000
  C   C3919     1.0  0.71230  0.44448  0.65640  1.0000
  C   C3920     1.0  0.63272  0.20202  0.75881  1.0000
  H   H3123     1.0  0.68002  0.37373  0.73001  1.0000
  C   C3921     1.0  0.72962  0.14910  0.81109  1.0000
  C   C3922     1.0  0.72705  0.20535  0.93488  1.0000
  H   H3124     1.0  0.68251  0.05099  0.63665  1.0000
  C   C3923     1.0  0.65855  0.45218  0.49783  1.0000
  H   H3125     1.0  0.60129  0.30145  0.58817  1.0000
  H   H3126     1.0  0.60870  0.14467  0.51791  1.0000
  C   C3924     1.0  0.61759  0.15339  0.50705  1.0000
  H   H3127     1.0  0.66756  0.05532  0.85743  1.0000
  C   C3925     1.0  0.62864  0.29515  0.49970  1.0000
  C   C3926     1.0  0.65067  0.27699  0.55382  1.0000
  C   C3927     1.0  0.67126  0.30173  0.70196  1.0000
  H   H3128     1.0  0.61898  0.20011  0.48665  1.0000
  C   C3928     1.0  0.61284  0.24943  0.68066  1.0000
  H   H3129     1.0  0.71975  0.47085  0.63957  1.0000
  C   C3929     1.0  0.60601  0.16309  0.80361  1.0000
  C   C3930     1.0  0.64994  0.44318  0.51584  1.0000
  H   H3130     1.0  0.71709  0.29090  0.48288  1.0000
  H   H3131     1.0  0.72647  0.99591  0.79810  1.0000
  H   H3132     1.0  0.64270  0.05116  0.68978  1.0000
  C   C3931     1.0  0.75108  0.99981  0.80515  1.0000
  C   C3932     1.0  0.65421  0.33434  0.52574  1.0000
  C   C3933     1.0  0.69904  0.31609  0.51355  1.0000
  H   H3133     1.0  0.74315  0.28795  0.51326  1.0000
  H   H3134     1.0  0.59888  0.18017  0.51143  1.0000
  C   C3934     1.0  0.77241  0.28110  0.79890  1.0000
  C   C3935     1.0  0.69783  0.19375  0.71485  1.0000
  H   H3135     1.0  0.77792  0.09161  0.80213  1.0000
  Fe  Fe274     1.0  0.78251  0.12993  0.69821  1.0000
  C   C3936     1.0  0.69910  0.22288  0.95265  1.0000
  C   C3937     1.0  0.73238  0.25108  0.89816  1.0000
  C   C3938     1.0  0.74288  0.25323  0.91013  1.0000
  S   S546      1.0  0.59499  0.38401  0.55759  1.0000
  S   S547      1.0  0.77800  0.11457  0.67814  1.0000
  C   C3939     1.0  0.74366  0.27722  0.87385  1.0000
  C   C3940     1.0  0.73284  0.26294  0.88005  1.0000
  H   H3136     1.0  0.73501  0.99817  0.73382  1.0000
  H   H3137     1.0  0.69244  0.33089  0.50900  1.0000
  H   H3138     1.0  0.72333  0.24072  0.90315  1.0000
  H   H3139     1.0  0.74190  0.24463  0.92448  1.0000
  C   C3941     1.0  0.71842  0.46152  0.65357  1.0000
  C   C3942     1.0  0.65421  0.44993  0.48154  1.0000
  H   H3140     1.0  0.60196  0.29222  0.65681  1.0000
  H   H3141     1.0  0.59669  0.38631  0.48666  1.0000
  H   H3142     1.0  0.76445  0.32591  0.77486  1.0000
  C   C3943     1.0  0.76961  0.11214  0.60003  1.0000
  H   H3143     1.0  0.60382  0.39663  0.65532  1.0000
  C   C3944     1.0  0.64247  0.21741  0.67827  1.0000
  H   H3144     1.0  0.70640  0.05730  0.65046  1.0000
  C   C3945     1.0  0.61647  0.07964  0.91117  1.0000
  C   C3946     1.0  0.65164  0.26986  0.96897  1.0000
  C   C3947     1.0  0.64120  0.43862  0.48316  1.0000
  C   C3948     1.0  0.72488  0.46895  0.85651  1.0000
  H   H3145     1.0  0.66516  0.35483  0.71775  1.0000
  S   S548      1.0  0.76974  0.11085  0.72464  1.0000
  H   H3146     1.0  0.62156  0.10540  0.91529  1.0000
  H   H3147     1.0  0.59720  0.47612  0.65941  1.0000
  C   C3949     1.0  0.69722  0.28318  0.52900  1.0000
  H   H3148     1.0  0.77089  0.47494  0.66597  1.0000
  H   H3149     1.0  0.71111  0.42836  0.70369  1.0000
  C   C3950     1.0  0.70870  0.98844  0.74425  1.0000
  S   S549      1.0  0.77025  0.06436  0.70997  1.0000
  C   C3951     1.0  0.74325  0.47004  0.85662  1.0000
  H   H3150     1.0  0.59487  0.35286  0.65098  1.0000
  C   C3952     1.0  0.64464  0.26663  0.57216  1.0000
  H   H3151     1.0  0.76327  0.12313  0.81014  1.0000
  P   P132      1.0  0.76552  0.09136  0.61877  1.0000
  H   H3152     1.0  0.78345  0.05267  0.56927  1.0000
  H   H3153     1.0  0.78250  0.18671  0.73090  1.0000
  H   H3154     1.0  0.74014  0.43159  0.88489  1.0000
  C   C3953     1.0  0.68592  0.31146  0.86145  1.0000
  C   C3954     1.0  0.65448  0.21047  0.48795  1.0000
  H   H3155     1.0  0.60836  0.05667  0.90466  1.0000
  H   H3156     1.0  0.65604  0.20140  0.77075  1.0000
  C   C3955     1.0  0.59087  0.42367  0.72548  1.0000
  Fe  Fe275     1.0  0.60673  0.26023  0.91327  1.0000
  C   C3956     1.0  0.78263  0.08601  0.63371  1.0000
  H   H3157     1.0  0.70768  0.26002  0.49866  1.0000
  H   H3158     1.0  0.77193  0.27986  0.63161  1.0000
  Fe  Fe276     1.0  0.76984  0.24911  0.53143  1.0000
  H   H3159     1.0  0.70881  0.44085  0.64477  1.0000
  C   C3957     1.0  0.77246  0.23075  0.63924  1.0000
  C   C3958     1.0  0.71127  0.19606  0.68127  1.0000
  C   C3959     1.0  0.61599  0.31455  0.85476  1.0000
  C   C3960     1.0  0.75698  0.05929  0.76777  1.0000
  C   C3961     1.0  0.76419  0.04498  0.75729  1.0000
  C   C3962     1.0  0.75292  0.03251  0.75755  1.0000
  C   C3963     1.0  0.73436  0.03441  0.76821  1.0000
  C   C3964     1.0  0.72697  0.04881  0.77879  1.0000
  C   C3965     1.0  0.73851  0.06110  0.77856  1.0000
  P   P133      1.0  0.70272  0.05208  0.79203  1.0000
  C   C3966     1.0  0.70097  0.05207  0.81669  1.0000
  C   C3967     1.0  0.68842  0.07419  0.78129  1.0000
  C   C3968     1.0  0.66867  0.07627  0.78518  1.0000
  C   C3969     1.0  0.65717  0.09335  0.77765  1.0000
  C   C3970     1.0  0.66533  0.10841  0.76571  1.0000
  C   C3971     1.0  0.68499  0.10630  0.76121  1.0000
  C   C3972     1.0  0.69652  0.08938  0.76910  1.0000
  C   C3973     1.0  0.68306  0.05451  0.82888  1.0000
  C   C3974     1.0  0.68144  0.05349  0.84817  1.0000
  C   C3975     1.0  0.69762  0.05038  0.85547  1.0000
  C   C3976     1.0  0.71551  0.04777  0.84356  1.0000
  C   C3977     1.0  0.71723  0.04839  0.82430  1.0000
  C   C3978     1.0  0.69231  0.03283  0.79156  1.0000
  C   C3979     1.0  0.68937  0.01794  0.80760  1.0000
  H   H3160     1.0  0.64318  0.30100  0.77567  1.0000
  C   C3980     1.0  0.76050  0.29024  0.81318  1.0000
  C   C3981     1.0  0.67843  0.01833  0.77444  1.0000
  C   C3982     1.0  0.68679  0.03290  0.77498  1.0000
  H   H3161     1.0  0.76559  0.06923  0.76722  1.0000
  C   C3983     1.0  0.68803  0.30225  0.52302  1.0000
  H   H3162     1.0  0.75848  0.02170  0.74905  1.0000
  H   H3163     1.0  0.72590  0.02474  0.76791  1.0000
  H   H3164     1.0  0.73305  0.07224  0.78661  1.0000
  H   H3165     1.0  0.66213  0.06473  0.79429  1.0000
  H   H3166     1.0  0.64191  0.09506  0.78155  1.0000
  H   H3167     1.0  0.65642  0.12183  0.76021  1.0000
  H   H3168     1.0  0.69134  0.11798  0.75189  1.0000
  H   H3169     1.0  0.71162  0.08846  0.76559  1.0000
  H   H3170     1.0  0.67026  0.05690  0.82368  1.0000
  C   C3984     1.0  0.72048  0.10926  0.65944  1.0000
  H   H3171     1.0  0.69624  0.05019  0.87032  1.0000
  H   H3172     1.0  0.72803  0.04559  0.84921  1.0000
  H   H3173     1.0  0.73125  0.04612  0.81555  1.0000
  H   H3174     1.0  0.60936  0.21804  0.81072  1.0000
  H   H3175     1.0  0.62546  0.30600  0.68562  1.0000
  H   H3176     1.0  0.67406  0.01843  0.76173  1.0000
  H   H3177     1.0  0.68877  0.04435  0.76257  1.0000
  S   S550      1.0  0.73452  0.15139  0.65542  1.0000
  H   H3178     1.0  0.74634  0.43112  0.83327  1.0000
  C   C3985     1.0  0.74904  0.16156  0.63465  1.0000
  C   C3986     1.0  0.76717  0.07049  0.60961  1.0000
  C   C3987     1.0  0.77762  0.40206  0.85992  1.0000
  Fe  Fe277     1.0  0.75322  0.47399  0.77788  1.0000
  H   H3179     1.0  0.74421  0.18798  0.81388  1.0000
  H   H3180     1.0  0.59487  0.12658  0.90182  1.0000
  H   H3181     1.0  0.78669  0.42228  0.75102  1.0000
  C   C3988     1.0  0.62799  0.02352  0.83455  1.0000
  H   H3182     1.0  0.62751  0.00845  0.83918  1.0000
  C   C3989     1.0  0.70790  0.18501  0.69974  1.0000
  H   H3183     1.0  0.61053  0.37862  0.74906  1.0000
  H   H3184     1.0  0.64261  0.25220  0.57422  1.0000
  C   C3990     1.0  0.65343  0.29571  0.55099  1.0000
  H   H3185     1.0  0.78415  0.15070  0.75246  1.0000
  H   H3186     1.0  0.72431  0.26131  0.87112  1.0000
  S   S551      1.0  0.62910  0.01977  0.79855  1.0000
  C   C3991     1.0  0.62880  0.03256  0.81543  1.0000
  H   H3187     1.0  0.62955  0.01038  0.76232  1.0000
  H   H3188     1.0  0.67457  0.18724  0.86317  1.0000
  H   H3189     1.0  0.71816  0.11562  0.67154  1.0000
  H   H3190     1.0  0.59228  0.35585  0.70739  1.0000
  C   C3992     1.0  0.74778  0.23094  0.50314  1.0000
  H   H3191     1.0  0.74479  0.41730  0.71171  1.0000
  C   C3993     1.0  0.61728  0.36732  0.70325  1.0000
  C   C3994     1.0  0.58989  0.31305  0.59217  1.0000
  P   P134      1.0  0.74346  0.29278  0.85062  1.0000
  C   C3995     1.0  0.75874  0.28067  0.83236  1.0000
  C   C3996     1.0  0.77297  0.39069  0.80272  1.0000
  H   H3192     1.0  0.76813  0.19644  0.68378  1.0000
  C   C3997     1.0  0.76876  0.15558  0.63153  1.0000
  Fe  Fe278     1.0  0.74068  0.99175  0.67287  1.0000
  S   S552      1.0  0.65499  0.24083  0.92902  1.0000
  C   C3998     1.0  0.63588  0.29806  0.51395  1.0000
  C   C3999     1.0  0.66220  0.34416  0.53432  1.0000
  H   H3193     1.0  0.64447  0.22623  0.64796  1.0000
  S   S553      1.0  0.61397  0.27163  0.93500  1.0000
  H   H3194     1.0  0.65279  0.25718  0.48667  1.0000
  C   C4000     1.0  0.60152  0.24201  0.78908  1.0000
  H   H3195     1.0  0.69099  0.10945  0.66264  1.0000
  S   S554      1.0  0.61614  0.22919  0.92658  1.0000
  S   S555      1.0  0.77129  0.25546  0.49963  1.0000
  H   H3196     1.0  0.73899  0.36170  0.84797  1.0000
  H   H3197     1.0  0.72566  0.33416  0.84972  1.0000
  C   C4001     1.0  0.70515  0.10593  0.65432  1.0000
  H   H3198     1.0  0.65388  0.20492  0.67738  1.0000
  S   S556      1.0  0.74978  0.23214  0.55285  1.0000
  H   H3199     1.0  0.74487  0.07961  0.68376  1.0000
  H   H3200     1.0  0.64725  0.30058  0.95988  1.0000
  H   H3201     1.0  0.71326  0.16961  0.70237  1.0000
  H   H3202     1.0  0.69542  0.18507  0.72917  1.0000
  C   C4002     1.0  0.73728  0.20459  0.94837  1.0000
  C   C4003     1.0  0.61874  0.27910  0.70249  1.0000
  C   C4004     1.0  0.61682  0.33619  0.80887  1.0000
  C   C4005     1.0  0.71895  0.29922  0.84834  1.0000
  Fe  Fe279     1.0  0.62564  0.24070  0.94689  1.0000
  Fe  Fe280     1.0  0.74390  0.25591  0.56831  1.0000
  H   H3203     1.0  0.73383  0.19871  0.92284  1.0000
  C   C4006     1.0  0.73767  0.22201  0.49590  1.0000
  C   C4007     1.0  0.72643  0.09380  0.62762  1.0000
  C   C4008     1.0  0.77052  0.12250  0.79567  1.0000
  C   C4009     1.0  0.70811  0.09835  0.63831  1.0000
  H   H3204     1.0  0.60880  0.43368  0.69882  1.0000
  H   H3205     1.0  0.69620  0.09600  0.63417  1.0000
  C   C4010     1.0  0.65312  0.24458  0.48174  1.0000
  C   C4011     1.0  0.76731  0.40212  0.72664  1.0000
  H   H3206     1.0  0.70440  0.41964  0.67669  1.0000
  P   P135      1.0  0.66239  0.30870  0.52743  1.0000
  H   H3207     1.0  0.75913  0.39352  0.81189  1.0000
  H   H3208     1.0  0.62234  0.42100  0.50313  1.0000
  C   C4012     1.0  0.76947  0.03778  0.59606  1.0000
  H   H3209     1.0  0.69860  0.06133  0.68333  1.0000
  H   H3210     1.0  0.70344  0.99538  0.73138  1.0000
  C   C4013     1.0  0.71956  0.45457  0.68691  1.0000
  C   C4014     1.0  0.73883  0.10482  0.64873  1.0000
  P   P136      1.0  0.76093  0.16277  0.78681  1.0000
  H   H3211     1.0  0.76250  0.29017  0.88180  1.0000
  H   H3212     1.0  0.65928  0.23466  0.75356  1.0000
  C   C4015     1.0  0.65385  0.30263  0.50971  1.0000
  C   C4016     1.0  0.69415  0.29941  0.83266  1.0000
  C   C4017     1.0  0.68046  0.30762  0.84659  1.0000
  H   H3213     1.0  0.66044  0.39501  0.75155  1.0000
  C   C4018     1.0  0.68073  0.00354  0.80707  1.0000
  H   H3214     1.0  0.63801  0.25367  0.73178  1.0000
  H   H3215     1.0  0.62014  0.31336  0.74779  1.0000
  C   C4019     1.0  0.59646  0.37588  0.68086  1.0000
  H   H3216     1.0  0.60572  0.17268  0.87811  1.0000
  C   C4020     1.0  0.59944  0.31022  0.70620  1.0000
  C   C4021     1.0  0.76483  0.48375  0.70962  1.0000
  C   C4022     1.0  0.60494  0.07185  0.90463  1.0000
  C   C4023     1.0  0.63251  0.42972  0.50133  1.0000
  C   C4024     1.0  0.63710  0.22934  0.66172  1.0000
  C   C4025     1.0  0.66897  0.30403  0.72046  1.0000
  C   C4026     1.0  0.64063  0.17593  0.47895  1.0000
  H   H3217     1.0  0.69894  0.16163  0.85043  1.0000
  S   S557      1.0  0.78573  0.18812  0.57989  1.0000
  H   H3218     1.0  0.68243  0.29060  0.69661  1.0000
  H   H3219     1.0  0.62568  0.39746  0.76077  1.0000
  H   H3220     1.0  0.70642  0.13757  0.83065  1.0000
  C   C4027     1.0  0.71047  0.16217  0.83810  1.0000
  H   H3221     1.0  0.78791  0.39221  0.82319  1.0000
  S   S558      1.0  0.77037  0.44384  0.78297  1.0000
  H   H3222     1.0  0.77391  0.15788  0.82205  1.0000
  H   H3223     1.0  0.77890  0.46816  0.61087  1.0000
  C   C4028     1.0  0.61571  0.29909  0.69728  1.0000
  H   H3224     1.0  0.76332  0.45054  0.73978  1.0000
  H   H3225     1.0  0.63129  0.27077  0.69511  1.0000
  H   H3226     1.0  0.67842  0.29466  0.72947  1.0000
  C   C4029     1.0  0.62377  0.39024  0.67352  1.0000
  H   H3227     1.0  0.77436  0.02474  0.70967  1.0000
  C   C4030     1.0  0.73351  0.40914  0.90902  1.0000
  C   C4031     1.0  0.73810  0.22609  0.47638  1.0000
  C   C4032     1.0  0.75750  0.39512  0.92794  1.0000
  H   H3228     1.0  0.63647  0.33828  0.68717  1.0000
  C   C4033     1.0  0.67527  0.00376  0.79051  1.0000
  H   H3229     1.0  0.76134  0.26943  0.91359  1.0000
  H   H3230     1.0  0.73737  0.21446  0.72148  1.0000
  H   H3231     1.0  0.59337  0.30320  0.77262  1.0000
  H   H3232     1.0  0.59432  0.09769  0.85892  1.0000
  H   H3233     1.0  0.75046  0.10788  0.65275  1.0000
  H   H3234     1.0  0.77732  0.31284  0.74555  1.0000
  H   H3235     1.0  0.72917  0.03370  0.72811  1.0000
  H   H3236     1.0  0.76523  0.44201  0.92731  1.0000
  C   C4034     1.0  0.64846  0.22857  0.75159  1.0000
  C   C4035     1.0  0.74114  0.20481  0.73430  1.0000
  H   H3237     1.0  0.63256  0.39982  0.66402  1.0000
  C   C4036     1.0  0.63324  0.22160  0.69601  1.0000
  C   C4037     1.0  0.63631  0.23933  0.73932  1.0000
  H   H3238     1.0  0.61807  0.25462  0.65012  1.0000
  H   H3239     1.0  0.74754  0.22660  0.74437  1.0000
  C   C4038     1.0  0.72782  0.29195  0.51595  1.0000
  C   C4039     1.0  0.60511  0.27005  0.71621  1.0000
  C   C4040     1.0  0.65622  0.28765  0.96622  1.0000
  H   H3240     1.0  0.73227  0.13885  0.80232  1.0000
  C   C4041     1.0  0.77910  0.40337  0.73794  1.0000
  H   H3241     1.0  0.63144  0.18749  0.76627  1.0000
  C   C4042     1.0  0.75780  0.47718  0.63439  1.0000
  C   C4043     1.0  0.61386  0.40765  0.47557  1.0000
  C   C4044     1.0  0.63435  0.38740  0.75212  1.0000
  H   H3242     1.0  0.66866  0.46085  0.49653  1.0000
  H   H3243     1.0  0.67532  0.41793  0.63077  1.0000
  C   C4045     1.0  0.77951  0.44441  0.92431  1.0000
  H   H3244     1.0  0.68835  0.18717  0.47723  1.0000
  C   C4046     1.0  0.76490  0.03324  0.70033  1.0000
  C   C4047     1.0  0.75255  0.17934  0.76662  1.0000
  S   S559      1.0  0.75583  0.15212  0.69635  1.0000
  H   H3245     1.0  0.69340  0.01749  0.82063  1.0000
  C   C4048     1.0  0.66081  0.05154  0.66217  1.0000
  C   C4049     1.0  0.65393  0.38609  0.74685  1.0000
  C   C4050     1.0  0.61849  0.23782  0.69733  1.0000
  Fe  Fe281     1.0  0.76338  0.09677  0.70444  1.0000
  H   H3246     1.0  0.74815  0.15815  0.58299  1.0000
  H   H3247     1.0  0.77333  0.35777  0.84591  1.0000
  C   C4051     1.0  0.70405  0.47856  0.74706  1.0000
  H   H3248     1.0  0.75254  0.05527  0.63616  1.0000
  H   H3249     1.0  0.65335  0.44484  0.52848  1.0000
  C   C4052     1.0  0.62352  0.18463  0.48940  1.0000
  S   S560      1.0  0.60160  0.43187  0.73930  1.0000
  C   C4053     1.0  0.74196  0.09676  0.63293  1.0000
  C   C4054     1.0  0.78905  0.10332  0.77280  1.0000
  H   H3250     1.0  0.77531  0.14449  0.64198  1.0000
  C   C4055     1.0  0.59551  0.14864  0.81027  1.0000
  C   C4056     1.0  0.77210  0.31175  0.84725  1.0000
  H   H3251     1.0  0.68921  0.27222  0.53656  1.0000
  H   H3252     1.0  0.60261  0.13380  0.81396  1.0000
  C   C4057     1.0  0.60508  0.31806  0.88740  1.0000
  H   H3253     1.0  0.60139  0.26192  0.68136  1.0000
  H   H3254     1.0  0.72846  0.08807  0.61516  1.0000
  C   C4058     1.0  0.60774  0.38829  0.66855  1.0000
  C   C4059     1.0  0.60743  0.32391  0.75105  1.0000
  H   H3255     1.0  0.76914  0.40248  0.95871  1.0000
  C   C4060     1.0  0.71702  0.27809  0.52543  1.0000
  C   C4061     1.0  0.70796  0.21446  0.93705  1.0000
  C   C4062     1.0  0.66495  0.37409  0.73469  1.0000
  C   C4063     1.0  0.59719  0.11133  0.90276  1.0000
  H   H3256     1.0  0.74606  0.15769  0.75616  1.0000
  C   C4064     1.0  0.74682  0.21163  0.74722  1.0000
  C   C4065     1.0  0.77392  0.47807  0.69257  1.0000
  C   C4066     1.0  0.66413  0.30472  0.49092  1.0000
  H   H3257     1.0  0.60479  0.19348  0.79366  1.0000
  C   C4067     1.0  0.63573  0.31086  0.78487  1.0000
  H   H3258     1.0  0.77836  0.04388  0.74851  1.0000
  H   H3259     1.0  0.67649  0.30241  0.96856  1.0000
  C   C4068     1.0  0.77705  0.14518  0.57266  1.0000
  C   C4069     1.0  0.76952  0.26205  0.83707  1.0000
  C   C4070     1.0  0.77956  0.32756  0.84615  1.0000
  C   C4071     1.0  0.75233  0.19898  0.76343  1.0000
  H   H3260     1.0  0.64120  0.38145  0.69414  1.0000
  C   C4072     1.0  0.63129  0.34124  0.79353  1.0000
  C   C4073     1.0  0.75845  0.24400  0.49092  1.0000
  H   H3261     1.0  0.74225  0.44824  0.72024  1.0000
  C   C4074     1.0  0.67878  0.05315  0.65107  1.0000
  Fe  Fe282     1.0  0.77895  0.45288  0.80551  1.0000
  C   C4075     1.0  0.69220  0.05688  0.65879  1.0000
  C   C4076     1.0  0.65636  0.05339  0.68107  1.0000
  C   C4077     1.0  0.74634  0.17271  0.75385  1.0000
  C   C4078     1.0  0.65489  0.31879  0.72711  1.0000
  C   C4079     1.0  0.71352  0.43748  0.68965  1.0000
  C   C4080     1.0  0.68771  0.05905  0.67759  1.0000
  C   C4081     1.0  0.65669  0.30212  0.47665  1.0000
  C   C4082     1.0  0.78002  0.16377  0.61461  1.0000
  H   H3262     1.0  0.63431  0.31366  0.87326  1.0000
  C   C4083     1.0  0.73987  0.39580  0.92437  1.0000
  H   H3263     1.0  0.65201  0.33261  0.76974  1.0000
  C   C4084     1.0  0.76764  0.34556  0.84636  1.0000
  H   H3264     1.0  0.63881  0.12913  0.49944  1.0000
  H   H3265     1.0  0.73655  0.18000  0.72763  1.0000
  C   C4085     1.0  0.60119  0.36541  0.69815  1.0000
  H   H3266     1.0  0.74576  0.01500  0.80457  1.0000
  C   C4086     1.0  0.60587  0.25891  0.77686  1.0000
  H   H3267     1.0  0.73133  0.06535  0.73161  1.0000
  H   H3268     1.0  0.76990  0.47378  0.92732  1.0000
  C   C4087     1.0  0.72098  0.17651  0.83318  1.0000
  H   H3269     1.0  0.74143  0.12948  0.60714  1.0000
  C   C4088     1.0  0.60042  0.32246  0.65246  1.0000
  C   C4089     1.0  0.63455  0.14463  0.49665  1.0000
  H   H3270     1.0  0.73151  0.38541  0.93308  1.0000
  Fe  Fe283     1.0  0.77396  0.21900  0.56789  1.0000
  C   C4090     1.0  0.64075  0.32859  0.78154  1.0000
  H   H3271     1.0  0.72405  0.26341  0.53021  1.0000
  C   C4091     1.0  0.61249  0.09932  0.91039  1.0000
  C   C4092     1.0  0.73616  0.17682  0.81750  1.0000
  C   C4093     1.0  0.76458  0.43713  0.73583  1.0000
  H   H3272     1.0  0.78178  0.15971  0.71750  1.0000
  H   H3273     1.0  0.70841  0.37281  0.97254  1.0000
  C   C4094     1.0  0.59591  0.25478  0.85392  1.0000
  H   H3274     1.0  0.72154  0.45853  0.69906  1.0000
  C   C4095     1.0  0.78252  0.39237  0.95915  1.0000
  H   H3275     1.0  0.60968  0.34611  0.81814  1.0000
  H   H3276     1.0  0.68849  0.47877  0.79797  1.0000
  C   C4096     1.0  0.70981  0.43248  0.67443  1.0000
  C   C4097     1.0  0.72644  0.99006  0.74570  1.0000
  C   C4098     1.0  0.63690  0.43200  0.51758  1.0000
  H   H3277     1.0  0.78261  0.32125  0.80312  1.0000
  C   C4099     1.0  0.71884  0.31096  0.51010  1.0000
  H   H3278     1.0  0.77561  0.21005  0.62253  1.0000
  H   H3279     1.0  0.63516  0.35500  0.79094  1.0000
  H   H3280     1.0  0.71741  0.18724  0.84167  1.0000
  H   H3281     1.0  0.69304  0.24465  0.48214  1.0000
  H   H3282     1.0  0.77375  0.28847  0.78409  1.0000
  H   H3283     1.0  0.60816  0.31810  0.90080  1.0000
  H   H3284     1.0  0.59624  0.26771  0.76775  1.0000
  C   C4100     1.0  0.77905  0.10455  0.79124  1.0000
  H   H3285     1.0  0.62771  0.31209  0.84305  1.0000
  Fe  Fe284     1.0  0.62815  0.98839  0.81010  1.0000
  C   C4101     1.0  0.77565  0.06962  0.59060  1.0000
  C   C4102     1.0  0.62224  0.24531  0.66293  1.0000
  C   C4103     1.0  0.75417  0.41834  0.72008  1.0000
  C   C4104     1.0  0.77160  0.17839  0.60116  1.0000
  H   H3286     1.0  0.76251  0.38391  0.93921  1.0000
  C   C4105     1.0  0.78226  0.13793  0.76328  1.0000
  H   H3287     1.0  0.61070  0.11110  0.70414  1.0000
  C   C4106     1.0  0.76880  0.40803  0.91638  1.0000
  H   H3288     1.0  0.65521  0.19673  0.49789  1.0000
  H   H3289     1.0  0.60042  0.24437  0.86606  1.0000
  H   H3290     1.0  0.76199  0.38952  0.77932  1.0000
  C   C4107     1.0  0.77299  0.33360  0.76267  1.0000
  C   C4108     1.0  0.78829  0.36072  0.74770  1.0000
  S   S561      1.0  0.78428  0.43447  0.83388  1.0000
  H   H3291     1.0  0.75498  0.02664  0.62437  1.0000
  H   H3292     1.0  0.78151  0.29789  0.84721  1.0000
  C   C4109     1.0  0.75904  0.14517  0.58423  1.0000
  C   C4110     1.0  0.76078  0.03863  0.61488  1.0000
  C   C4111     1.0  0.77469  0.38827  0.78435  1.0000
  H   H3293     1.0  0.76516  0.25069  0.65758  1.0000
  C   C4112     1.0  0.77713  0.35071  0.76348  1.0000
  H   H3294     1.0  0.67759  0.30901  0.48721  1.0000
  C   C4113     1.0  0.76347  0.47938  0.67908  1.0000
  H   H3295     1.0  0.60305  0.11515  0.73742  1.0000
  H   H3296     1.0  0.67779  0.99245  0.81962  1.0000
  C   C4114     1.0  0.77683  0.05330  0.58391  1.0000
  C   C4115     1.0  0.76936  0.48022  0.61625  1.0000
  C   C4116     1.0  0.59780  0.27375  0.85075  1.0000
  C   C4117     1.0  0.78002  0.32634  0.74615  1.0000
  C   C4118     1.0  0.78014  0.16985  0.79179  1.0000
  H   H3297     1.0  0.77462  0.17462  0.66165  1.0000
  H   H3298     1.0  0.66814  0.99288  0.79021  1.0000
  C   C4119     1.0  0.78170  0.19429  0.67408  1.0000
  C   C4120     1.0  0.78527  0.06838  0.64679  1.0000
  C   C4121     1.0  0.78319  0.16540  0.81040  1.0000
  H   H3299     1.0  0.77043  0.02510  0.59093  1.0000
  C   C4122     1.0  0.78540  0.18189  0.66176  1.0000
  H   H3300     1.0  0.78911  0.47259  0.68990  1.0000
  H   H3301     1.0  0.78736  0.23137  0.63542  1.0000
  Fe  Fe285     1.0  0.78552  0.25639  0.56278  1.0000
  C   C4123     1.0  0.78575  0.27402  0.62395  1.0000
  C   C4124     1.0  0.78769  0.11227  0.58829  1.0000
  C   C4125     1.0  0.59206  0.32403  0.60371  1.0000
  C   C4126     1.0  0.59673  0.40145  0.48175  1.0000
  H   H3302     1.0  0.77737  0.99953  0.81211  1.0000
  H   H3303     1.0  0.59255  0.08823  0.83052  1.0000
  C   C4127     1.0  0.74020  0.98896  0.80151  1.0000
  C   C4128     1.0  0.78781  0.27222  0.60522  1.0000
  H   H3304     1.0  0.69838  0.48411  0.84877  1.0000
  Fe  Fe286     1.0  0.64007  0.48347  0.70680  1.0000
  C   C4129     1.0  0.67268  0.28866  0.97107  1.0000
  H   H3305     1.0  0.77540  0.19406  0.47685  1.0000
  H   H3306     1.0  0.70514  0.33826  0.47495  1.0000
  H   H3307     1.0  0.78004  0.15816  0.56252  1.0000
  H   H3308     1.0  0.78128  0.08144  0.58083  1.0000
  H   H3309     1.0  0.73642  0.21161  0.97465  1.0000
  C   C4130     1.0  0.67664  0.35393  0.47487  1.0000
  S   S562      1.0  0.64095  0.74395  0.39280  1.0000
  Fe  Fe287     1.0  0.62788  0.60329  0.36915  1.0000
  S   S563      1.0  0.62777  0.61951  0.33910  1.0000
  S   S564      1.0  0.63804  0.61171  0.39116  1.0000
  Fe  Fe288     1.0  0.61487  0.56979  0.36320  1.0000
  S   S565      1.0  0.61279  0.58437  0.33345  1.0000
  H   H3310     1.0  0.61755  0.84992  0.24740  1.0000
  Fe  Fe289     1.0  0.64304  0.59119  0.32851  1.0000
  S   S566      1.0  0.67974  0.58393  0.28940  1.0000
  H   H3311     1.0  0.75159  0.76432  0.04423  1.0000
  S   S567      1.0  0.64327  0.57586  0.36030  1.0000
  Fe  Fe290     1.0  0.65762  0.86665  0.10924  1.0000
  S   S568      1.0  0.66230  0.84351  0.13499  1.0000
  S   S569      1.0  0.64669  0.89751  0.11187  1.0000
  Fe  Fe291     1.0  0.66720  0.83842  0.08339  1.0000
  S   S570      1.0  0.67278  0.81305  0.10718  1.0000
  S   S571      1.0  0.67289  0.83066  0.05485  1.0000
  Fe  Fe292     1.0  0.64669  0.82786  0.12455  1.0000
  S   S572      1.0  0.62663  0.81008  0.14502  1.0000
  Fe  Fe293     1.0  0.68793  0.83081  0.11545  1.0000
  S   S573      1.0  0.71502  0.81771  0.12584  1.0000
  S   S574      1.0  0.63976  0.85194  0.10012  1.0000
  S   S575      1.0  0.68469  0.85518  0.09033  1.0000
  S   S576      1.0  0.66127  0.95736  0.20502  1.0000
  C   C4131     1.0  0.63811  0.97895  0.28136  1.0000
  H   H3312     1.0  0.69061  0.73120  0.47425  1.0000
  Fe  Fe294     1.0  0.65852  0.93163  0.19603  1.0000
  S   S577      1.0  0.65685  0.91335  0.22549  1.0000
  S   S578      1.0  0.67923  0.91920  0.17213  1.0000
  C   C4132     1.0  0.70476  0.87335  0.24686  1.0000
  Fe  Fe295     1.0  0.65640  0.93974  0.23480  1.0000
  S   S579      1.0  0.66915  0.93785  0.25973  1.0000
  H   H3313     1.0  0.73399  0.68424  0.03572  1.0000
  Fe  Fe296     1.0  0.75130  0.61676  0.20896  1.0000
  S   S580      1.0  0.72362  0.63584  0.21890  1.0000
  H   H3314     1.0  0.74178  0.71372  0.03825  1.0000
  C   C4133     1.0  0.65714  0.50557  0.25945  1.0000
  H   H3315     1.0  0.64887  0.88746  0.05509  1.0000
  S   S581      1.0  0.61171  0.53894  0.37506  1.0000
  C   C4134     1.0  0.61004  0.76949  0.21648  1.0000
  C   C4135     1.0  0.77571  0.80261  0.35688  1.0000
  C   C4136     1.0  0.60453  0.89123  0.08940  1.0000
  H   H3316     1.0  0.59970  0.65253  0.33488  1.0000
  C   C4137     1.0  0.63063  0.78611  0.45913  1.0000
  H   H3317     1.0  0.60097  0.54972  0.33808  1.0000
  H   H3318     1.0  0.64816  0.77730  0.22978  1.0000
  Fe  Fe297     1.0  0.62951  0.96471  0.20942  1.0000
  H   H3319     1.0  0.78641  0.75628  0.41603  1.0000
  H   H3320     1.0  0.65252  0.97224  0.28294  1.0000
  H   H3321     1.0  0.64559  0.79869  0.07213  1.0000
  H   H3322     1.0  0.65781  0.49809  0.31280  1.0000
  S   S582      1.0  0.77971  0.78167  0.06422  1.0000
  H   H3323     1.0  0.68490  0.53016  0.40416  1.0000
  Fe  Fe298     1.0  0.75520  0.84919  0.40236  1.0000
  S   S583      1.0  0.75200  0.81913  0.40525  1.0000
  S   S584      1.0  0.76673  0.86453  0.37283  1.0000
  Fe  Fe299     1.0  0.76718  0.81212  0.42914  1.0000
  H   H3324     1.0  0.69023  0.72500  0.44354  1.0000
  Fe  Fe300     1.0  0.72570  0.82653  0.42684  1.0000
  H   H3325     1.0  0.75828  0.88208  0.01780  1.0000
  S   S585      1.0  0.77243  0.84154  0.42488  1.0000
  Fe  Fe301     1.0  0.75991  0.95937  0.27000  1.0000
  C   C4138     1.0  0.60128  0.81398  0.24040  1.0000
  S   S586      1.0  0.75317  0.94812  0.24776  1.0000
  Fe  Fe302     1.0  0.75440  0.96104  0.31136  1.0000
  S   S587      1.0  0.73727  0.95233  0.34080  1.0000
  H   H3326     1.0  0.60983  0.76766  0.18818  1.0000
  S   S588      1.0  0.77289  0.93994  0.29396  1.0000
  C   C4139     1.0  0.75914  0.88943  0.36618  1.0000
  C   C4140     1.0  0.77083  0.89974  0.35139  1.0000
  C   C4141     1.0  0.76445  0.91927  0.34421  1.0000
  C   C4142     1.0  0.74616  0.92852  0.35148  1.0000
  C   C4143     1.0  0.73462  0.91839  0.36672  1.0000
  C   C4144     1.0  0.74116  0.89883  0.37417  1.0000
  S   S589      1.0  0.78169  0.97765  0.26072  1.0000
  H   H3327     1.0  0.77366  0.92710  0.33293  1.0000
  H   H3328     1.0  0.72047  0.92550  0.37241  1.0000
  H   H3329     1.0  0.73206  0.89088  0.38555  1.0000
  H   H3330     1.0  0.73331  0.94221  0.22246  1.0000
  C   C4145     1.0  0.76442  0.51539  0.30025  1.0000
  C   C4146     1.0  0.76448  0.50358  0.19677  1.0000
  C   C4147     1.0  0.78572  0.83197  0.33847  1.0000
  C   C4148     1.0  0.74340  0.90605  0.29646  1.0000
  C   C4149     1.0  0.78641  0.90809  0.39596  1.0000
  C   C4150     1.0  0.72937  0.49457  0.26618  1.0000
  H   H3331     1.0  0.66889  0.81173  0.47182  1.0000
  H   H3332     1.0  0.73418  0.80288  0.35447  1.0000
  H   H3333     1.0  0.60606  0.77747  0.39329  1.0000
  H   H3334     1.0  0.64580  0.49623  0.20484  1.0000
  H   H3335     1.0  0.62421  0.68044  0.36191  1.0000
  C   C4151     1.0  0.77545  0.66841  0.14333  1.0000
  H   H3336     1.0  0.60730  0.82163  0.29096  1.0000
  C   C4152     1.0  0.70057  0.73633  0.46167  1.0000
  C   C4153     1.0  0.71377  0.74614  0.46287  1.0000
  H   H3337     1.0  0.76476  0.64277  0.15686  1.0000
  H   H3338     1.0  0.72841  0.50370  0.18786  1.0000
  H   H3339     1.0  0.76402  0.67709  0.15143  1.0000
  H   H3340     1.0  0.61934  0.76066  0.46805  1.0000
  H   H3341     1.0  0.59111  0.74811  0.40335  1.0000
  C   C4154     1.0  0.76980  0.76394  0.30230  1.0000
  H   H3342     1.0  0.65277  0.63053  0.41139  1.0000
  S   S590      1.0  0.66888  0.69469  0.46466  1.0000
  H   H3343     1.0  0.59187  0.79931  0.16658  1.0000
  C   C4155     1.0  0.69275  0.93997  0.25617  1.0000
  C   C4156     1.0  0.69913  0.94203  0.27144  1.0000
  C   C4157     1.0  0.71752  0.94492  0.26888  1.0000
  C   C4158     1.0  0.72995  0.94479  0.25129  1.0000
  C   C4159     1.0  0.72375  0.94220  0.23614  1.0000
  C   C4160     1.0  0.70508  0.94005  0.23849  1.0000
  H   H3344     1.0  0.68962  0.94199  0.28514  1.0000
  H   H3345     1.0  0.72207  0.94718  0.28057  1.0000
  H   H3346     1.0  0.71517  0.79048  0.03896  1.0000
  H   H3347     1.0  0.70024  0.93844  0.22667  1.0000
  S   S591      1.0  0.67570  0.71073  0.40828  1.0000
  H   H3348     1.0  0.61785  0.87355  0.03008  1.0000
  P   P137      1.0  0.78777  0.62882  0.07048  1.0000
  Fe  Fe303     1.0  0.62647  0.74217  0.42326  1.0000
  C   C4161     1.0  0.67851  0.50533  0.22101  1.0000
  C   C4162     1.0  0.59526  0.74560  0.35209  1.0000
  C   C4163     1.0  0.73260  0.80676  0.10908  1.0000
  C   C4164     1.0  0.75042  0.79770  0.11329  1.0000
  C   C4165     1.0  0.76482  0.78938  0.09978  1.0000
  C   C4166     1.0  0.76145  0.79031  0.08197  1.0000
  C   C4167     1.0  0.74353  0.79920  0.07785  1.0000
  C   C4168     1.0  0.72909  0.80734  0.09142  1.0000
  H   H3349     1.0  0.75317  0.79735  0.12691  1.0000
  H   H3350     1.0  0.77869  0.78283  0.10290  1.0000
  H   H3351     1.0  0.74095  0.80013  0.06401  1.0000
  H   H3352     1.0  0.71544  0.81455  0.08801  1.0000
  C   C4169     1.0  0.78251  0.73906  0.00390  1.0000
  H   H3353     1.0  0.78483  0.89255  0.34535  1.0000
  H   H3354     1.0  0.72834  0.76657  0.33510  1.0000
  C   C4170     1.0  0.65602  0.90412  0.12801  1.0000
  C   C4171     1.0  0.67439  0.89560  0.13084  1.0000
  C   C4172     1.0  0.68151  0.90089  0.14390  1.0000
  C   C4173     1.0  0.67004  0.91385  0.15503  1.0000
  C   C4174     1.0  0.65168  0.92241  0.15214  1.0000
  C   C4175     1.0  0.64485  0.91788  0.13837  1.0000
  H   H3355     1.0  0.68320  0.88515  0.12277  1.0000
  H   H3356     1.0  0.69594  0.89484  0.14544  1.0000
  H   H3357     1.0  0.64282  0.93275  0.16027  1.0000
  H   H3358     1.0  0.63065  0.92460  0.13619  1.0000
  C   C4176     1.0  0.65700  0.83946  0.03921  1.0000
  C   C4177     1.0  0.64141  0.85455  0.04174  1.0000
  C   C4178     1.0  0.62971  0.86168  0.02825  1.0000
  C   C4179     1.0  0.63348  0.85355  0.01232  1.0000
  C   C4180     1.0  0.64869  0.83805  0.01024  1.0000
  C   C4181     1.0  0.66042  0.83113  0.02356  1.0000
  H   H3359     1.0  0.63851  0.86072  0.05400  1.0000
  C   C4182     1.0  0.75786  0.91050  0.00087  1.0000
  H   H3360     1.0  0.67222  0.81924  0.02180  1.0000
  C   C4183     1.0  0.69025  0.59925  0.26920  1.0000
  C   C4184     1.0  0.70577  0.59069  0.25692  1.0000
  C   C4185     1.0  0.71557  0.60191  0.24115  1.0000
  C   C4186     1.0  0.71018  0.62188  0.23772  1.0000
  C   C4187     1.0  0.69450  0.63059  0.24978  1.0000
  C   C4188     1.0  0.68453  0.61930  0.26554  1.0000
  H   H3361     1.0  0.71053  0.57528  0.25984  1.0000
  H   H3362     1.0  0.72740  0.59503  0.23174  1.0000
  H   H3363     1.0  0.69036  0.64606  0.24717  1.0000
  H   H3364     1.0  0.67283  0.62628  0.27491  1.0000
  C   C4189     1.0  0.61910  0.76883  0.35258  1.0000
  C   C4190     1.0  0.60428  0.52319  0.32960  1.0000
  C   C4191     1.0  0.74934  0.89538  0.01225  1.0000
  C   C4192     1.0  0.63942  0.52956  0.22735  1.0000
  S   S592      1.0  0.72752  0.85735  0.42200  1.0000
  C   C4193     1.0  0.78811  0.89337  0.41224  1.0000
  H   H3365     1.0  0.68442  0.52843  0.22965  1.0000
  C   C4194     1.0  0.63286  0.75736  0.25107  1.0000
  C   C4195     1.0  0.73003  0.71486  0.03176  1.0000
  H   H3366     1.0  0.77365  0.90970  0.24609  1.0000
  C   C4196     1.0  0.63005  0.66965  0.37304  1.0000
  C   C4197     1.0  0.62863  0.65048  0.37569  1.0000
  C   C4198     1.0  0.63722  0.63623  0.38922  1.0000
  C   C4199     1.0  0.70792  0.81153  0.34473  1.0000
  C   C4200     1.0  0.63937  0.67483  0.38438  1.0000
  C   C4201     1.0  0.62624  0.96790  0.27990  1.0000
  H   H3367     1.0  0.62159  0.64666  0.36674  1.0000
  C   C4202     1.0  0.72561  0.69809  0.03044  1.0000
  C   C4203     1.0  0.70018  0.73297  0.44426  1.0000
  C   C4204     1.0  0.60684  0.62062  0.43479  1.0000
  C   C4205     1.0  0.76854  0.91873  0.39313  1.0000
  C   C4206     1.0  0.68971  0.51800  0.22076  1.0000
  C   C4207     1.0  0.70770  0.51736  0.20889  1.0000
  S   S593      1.0  0.60907  0.90011  0.24462  1.0000
  H   H3368     1.0  0.61828  0.89476  0.08278  1.0000
  H   H3369     1.0  0.78238  0.64824  0.00308  1.0000
  S   S594      1.0  0.65213  0.74417  0.43214  1.0000
  H   H3370     1.0  0.71190  0.73771  0.41422  1.0000
  H   H3371     1.0  0.69783  0.52025  0.37327  1.0000
  H   H3372     1.0  0.71639  0.52711  0.20859  1.0000
  C   C4208     1.0  0.66888  0.48652  0.28754  1.0000
  C   C4209     1.0  0.62295  0.79448  0.39794  1.0000
  Fe  Fe304     1.0  0.64800  0.71170  0.40100  1.0000
  S   S595      1.0  0.75365  0.59709  0.18985  1.0000
  C   C4210     1.0  0.71247  0.74005  0.42776  1.0000
  H   H3373     1.0  0.60628  0.83314  0.35568  1.0000
  C   C4211     1.0  0.77246  0.62206  0.01688  1.0000
  C   C4212     1.0  0.67845  0.79677  0.42198  1.0000
  C   C4213     1.0  0.76593  0.53231  0.17205  1.0000
  H   H3374     1.0  0.69811  0.78785  0.46462  1.0000
  H   H3375     1.0  0.70059  0.83773  0.98493  1.0000
  H   H3376     1.0  0.68505  0.74626  0.97873  1.0000
  C   C4214     1.0  0.71856  0.49093  0.25525  1.0000
  H   H3377     1.0  0.75335  0.93960  0.98466  1.0000
  C   C4215     1.0  0.62055  0.81553  0.06196  1.0000
  C   C4216     1.0  0.78979  0.67658  0.13013  1.0000
  C   C4217     1.0  0.62306  0.82563  0.37684  1.0000
  C   C4218     1.0  0.67625  0.78415  0.41205  1.0000
  H   H3378     1.0  0.72526  0.98411  0.23882  1.0000
  C   C4219     1.0  0.76555  0.53314  0.20443  1.0000
  H   H3379     1.0  0.74749  0.90055  0.23878  1.0000
  H   H3380     1.0  0.77156  0.59970  0.06310  1.0000
  H   H3381     1.0  0.64806  0.73243  0.47026  1.0000
  H   H3382     1.0  0.78370  0.63899  0.22619  1.0000
  H   H3383     1.0  0.63903  0.81420  0.39913  1.0000
  H   H3384     1.0  0.70160  0.79813  0.07049  1.0000
  C   C4220     1.0  0.70501  0.73382  0.01536  1.0000
  H   H3385     1.0  0.63903  0.52785  0.29679  1.0000
  H   H3386     1.0  0.64195  0.74491  0.34689  1.0000
  H   H3387     1.0  0.59085  0.70279  0.36677  1.0000
  H   H3388     1.0  0.71378  0.73085  0.06363  1.0000
  C   C4221     1.0  0.61523  0.49422  0.35156  1.0000
  C   C4222     1.0  0.77427  0.61027  0.05009  1.0000
  C   C4223     1.0  0.62006  0.53260  0.23588  1.0000
  H   H3389     1.0  0.73481  0.76292  0.44624  1.0000
  C   C4224     1.0  0.64076  0.48678  0.21802  1.0000
  S   S596      1.0  0.69731  0.81907  0.43073  1.0000
  C   C4225     1.0  0.60895  0.82641  0.09696  1.0000
  H   H3390     1.0  0.63935  0.57194  0.19477  1.0000
  C   C4226     1.0  0.69772  0.78249  0.01015  1.0000
  H   H3391     1.0  0.69454  0.77238  0.09873  1.0000
  H   H3392     1.0  0.60303  0.78757  0.28785  1.0000
  C   C4227     1.0  0.77325  0.73672  0.40973  1.0000
  C   C4228     1.0  0.71984  0.73291  0.02412  1.0000
  C   C4229     1.0  0.71103  0.69915  0.02150  1.0000
  H   H3393     1.0  0.63147  0.95266  0.28051  1.0000
  H   H3394     1.0  0.73970  0.91827  0.32060  1.0000
  Fe  Fe305     1.0  0.62538  0.92353  0.22875  1.0000
  H   H3395     1.0  0.68807  0.77792  0.02327  1.0000
  H   H3396     1.0  0.62740  0.50535  0.40656  1.0000
  C   C4230     1.0  0.59239  0.90099  0.10301  1.0000
  H   H3397     1.0  0.69690  0.74737  0.00917  1.0000
  C   C4231     1.0  0.71520  0.76012  0.04882  1.0000
  C   C4232     1.0  0.62750  0.80121  0.25672  1.0000
  H   H3398     1.0  0.59602  0.70929  0.42047  1.0000
  H   H3399     1.0  0.74129  0.76357  0.30153  1.0000
  C   C4233     1.0  0.59476  0.63822  0.42965  1.0000
  C   C4234     1.0  0.59068  0.70249  0.41240  1.0000
  C   C4235     1.0  0.77954  0.57995  0.11058  1.0000
  C   C4236     1.0  0.62415  0.49223  0.43645  1.0000
  C   C4237     1.0  0.59897  0.82536  0.30412  1.0000
  H   H3400     1.0  0.70073  0.80199  0.35652  1.0000
  H   H3401     1.0  0.75654  0.73648  0.99858  1.0000
  C   C4238     1.0  0.77162  0.88920  0.42534  1.0000
  H   H3402     1.0  0.76685  0.55747  0.18093  1.0000
  C   C4239     1.0  0.64626  0.54380  0.21234  1.0000
  Fe  Fe306     1.0  0.74442  0.84691  0.44508  1.0000
  C   C4240     1.0  0.62677  0.75045  0.34895  1.0000
  C   C4241     1.0  0.64698  0.51986  0.26960  1.0000
  S   S597      1.0  0.62701  0.94001  0.19853  1.0000
  H   H3403     1.0  0.60900  0.86886  0.07449  1.0000
  H   H3404     1.0  0.59294  0.55208  0.23659  1.0000
  C   C4242     1.0  0.59734  0.83385  0.08354  1.0000
  C   C4243     1.0  0.78222  0.62573  0.04944  1.0000
  C   C4244     1.0  0.75380  0.89983  0.42241  1.0000
  H   H3405     1.0  0.59675  0.91205  0.10689  1.0000
  H   H3406     1.0  0.77556  0.76258  0.28767  1.0000
  H   H3407     1.0  0.76727  0.92986  0.38041  1.0000
  H   H3408     1.0  0.61448  0.52171  0.24738  1.0000
  C   C4245     1.0  0.59531  0.76797  0.27556  1.0000
  H   H3409     1.0  0.77238  0.87762  0.43778  1.0000
  H   H3410     1.0  0.74118  0.89634  0.43253  1.0000
  H   H3411     1.0  0.73842  0.92272  0.40400  1.0000
  H   H3412     1.0  0.62537  0.81180  0.04815  1.0000
  C   C4246     1.0  0.70804  0.85078  0.15880  1.0000
  C   C4247     1.0  0.71651  0.86265  0.16418  1.0000
  C   C4248     1.0  0.70675  0.87184  0.17907  1.0000
  C   C4249     1.0  0.68876  0.86874  0.18891  1.0000
  C   C4250     1.0  0.68053  0.85606  0.18421  1.0000
  C   C4251     1.0  0.69006  0.84761  0.16864  1.0000
  P   P138      1.0  0.65823  0.85052  0.19854  1.0000
  C   C4252     1.0  0.63856  0.86777  0.18980  1.0000
  C   C4253     1.0  0.65619  0.82718  0.19674  1.0000
  C   C4254     1.0  0.63891  0.82441  0.19484  1.0000
  C   C4255     1.0  0.63773  0.80706  0.19158  1.0000
  C   C4256     1.0  0.65368  0.79219  0.19046  1.0000
  C   C4257     1.0  0.67079  0.79455  0.19288  1.0000
  C   C4258     1.0  0.67208  0.81196  0.19592  1.0000
  C   C4259     1.0  0.62126  0.87309  0.20214  1.0000
  C   C4260     1.0  0.60524  0.88372  0.19491  1.0000
  C   C4261     1.0  0.60614  0.88863  0.17538  1.0000
  C   C4262     1.0  0.62314  0.88322  0.16304  1.0000
  C   C4263     1.0  0.63937  0.87321  0.17015  1.0000
  C   C4264     1.0  0.65949  0.84989  0.22261  1.0000
  C   C4265     1.0  0.67061  0.83399  0.23267  1.0000
  C   C4266     1.0  0.67331  0.83419  0.25047  1.0000
  C   C4267     1.0  0.66473  0.85017  0.25850  1.0000
  C   C4268     1.0  0.65378  0.86607  0.24857  1.0000
  C   C4269     1.0  0.65155  0.86613  0.23053  1.0000
  H   H3413     1.0  0.71534  0.84420  0.14683  1.0000
  H   H3414     1.0  0.73029  0.86535  0.15631  1.0000
  H   H3415     1.0  0.71274  0.88202  0.18250  1.0000
  H   H3416     1.0  0.68124  0.87651  0.19996  1.0000
  H   H3417     1.0  0.68380  0.83845  0.16409  1.0000
  H   H3418     1.0  0.62637  0.83577  0.19518  1.0000
  H   H3419     1.0  0.62457  0.80547  0.18918  1.0000
  H   H3420     1.0  0.65285  0.77898  0.18736  1.0000
  H   H3421     1.0  0.68325  0.78312  0.19166  1.0000
  H   H3422     1.0  0.68569  0.81378  0.19684  1.0000
  H   H3423     1.0  0.61983  0.86880  0.21730  1.0000
  H   H3424     1.0  0.59494  0.83403  0.05508  1.0000
  H   H3425     1.0  0.65242  0.86929  0.16030  1.0000
  H   H3426     1.0  0.67758  0.82157  0.22669  1.0000
  H   H3427     1.0  0.68211  0.82197  0.25800  1.0000
  H   H3428     1.0  0.66679  0.85041  0.27227  1.0000
  H   H3429     1.0  0.64728  0.87862  0.25464  1.0000
  H   H3430     1.0  0.64405  0.87912  0.22261  1.0000
  C   C4270     1.0  0.72921  0.78008  0.99021  1.0000
  C   C4271     1.0  0.62603  0.81340  0.09303  1.0000
  H   H3431     1.0  0.70796  0.68614  0.02008  1.0000
  C   C4272     1.0  0.60524  0.53433  0.34179  1.0000
  C   C4273     1.0  0.59906  0.77354  0.23388  1.0000
  C   C4274     1.0  0.78802  0.76087  0.38596  1.0000
  H   H3432     1.0  0.63933  0.82214  0.26236  1.0000
  H   H3433     1.0  0.60457  0.71168  0.47053  1.0000
  H   H3434     1.0  0.76635  0.53957  0.15733  1.0000
  H   H3435     1.0  0.65429  0.66458  0.40737  1.0000
  P   P139      1.0  0.72583  0.75453  0.02573  1.0000
  C   C4275     1.0  0.75532  0.76683  0.34019  1.0000
  H   H3436     1.0  0.71837  0.94364  0.99152  1.0000
  C   C4276     1.0  0.61100  0.52545  0.35903  1.0000
  H   H3437     1.0  0.68927  0.98155  0.17563  1.0000
  H   H3438     1.0  0.76417  0.48855  0.20127  1.0000
  C   C4277     1.0  0.59477  0.77690  0.29016  1.0000
  H   H3439     1.0  0.76404  0.83034  0.36390  1.0000
  H   H3440     1.0  0.62768  0.78367  0.40973  1.0000
  C   C4278     1.0  0.76801  0.64504  0.08158  1.0000
  C   C4279     1.0  0.75657  0.65966  0.07062  1.0000
  C   C4280     1.0  0.74135  0.67215  0.07937  1.0000
  C   C4281     1.0  0.73747  0.67018  0.09907  1.0000
  C   C4282     1.0  0.74902  0.65595  0.11001  1.0000
  C   C4283     1.0  0.76426  0.64348  0.10131  1.0000
  H   H3441     1.0  0.59025  0.81212  0.23453  1.0000
  C   C4284     1.0  0.64350  0.48855  0.23532  1.0000
  C   C4285     1.0  0.74328  0.76610  0.32900  1.0000
  H   H3442     1.0  0.59336  0.84480  0.23283  1.0000
  C   C4286     1.0  0.61658  0.83552  0.24752  1.0000
  H   H3443     1.0  0.75131  0.84698  0.02509  1.0000
  C   C4287     1.0  0.60784  0.97649  0.27721  1.0000
  S   S598      1.0  0.64269  0.69862  0.37914  1.0000
  C   C4288     1.0  0.69821  0.82361  0.33087  1.0000
  C   C4289     1.0  0.60395  0.82387  0.15144  1.0000
  H   H3444     1.0  0.78513  0.84950  0.22378  1.0000
  C   C4290     1.0  0.71460  0.50410  0.19722  1.0000
  H   H3445     1.0  0.76750  0.82959  0.07916  1.0000
  H   H3446     1.0  0.70498  0.50012  0.25357  1.0000
  H   H3447     1.0  0.68947  0.71787  0.00694  1.0000
  H   H3448     1.0  0.75944  0.66161  0.05532  1.0000
  H   H3449     1.0  0.73262  0.68343  0.07087  1.0000
  H   H3450     1.0  0.72571  0.67987  0.10586  1.0000
  H   H3451     1.0  0.74630  0.65463  0.12526  1.0000
  H   H3452     1.0  0.77316  0.63269  0.11003  1.0000
  C   C4291     1.0  0.64849  0.60741  0.30187  1.0000
  C   C4292     1.0  0.64319  0.58909  0.30178  1.0000
  C   C4293     1.0  0.65179  0.57011  0.31357  1.0000
  C   C4294     1.0  0.66624  0.56961  0.32474  1.0000
  C   C4295     1.0  0.67188  0.58803  0.32473  1.0000
  C   C4296     1.0  0.66299  0.60682  0.31310  1.0000
  P   P140      1.0  0.69175  0.58685  0.33522  1.0000
  C   C4297     1.0  0.69200  0.60944  0.34022  1.0000
  C   C4298     1.0  0.69064  0.56883  0.35712  1.0000
  C   C4299     1.0  0.68342  0.57427  0.37470  1.0000
  C   C4300     1.0  0.68143  0.56035  0.39157  1.0000
  C   C4301     1.0  0.68668  0.54089  0.39107  1.0000
  C   C4302     1.0  0.69394  0.53533  0.37367  1.0000
  C   C4303     1.0  0.69587  0.54923  0.35676  1.0000
  C   C4304     1.0  0.70938  0.61453  0.33843  1.0000
  C   C4305     1.0  0.70976  0.63209  0.34183  1.0000
  C   C4306     1.0  0.69284  0.64473  0.34712  1.0000
  C   C4307     1.0  0.67558  0.63968  0.34922  1.0000
  C   C4308     1.0  0.67512  0.62197  0.34619  1.0000
  C   C4309     1.0  0.71359  0.58192  0.31811  1.0000
  C   C4310     1.0  0.71589  0.59441  0.30022  1.0000
  C   C4311     1.0  0.73318  0.59245  0.28725  1.0000
  C   C4312     1.0  0.74861  0.57835  0.29229  1.0000
  C   C4313     1.0  0.74672  0.56620  0.31031  1.0000
  C   C4314     1.0  0.72934  0.56804  0.32324  1.0000
  H   H3453     1.0  0.64246  0.62084  0.29336  1.0000
  H   H3454     1.0  0.63352  0.58945  0.29309  1.0000
  H   H3455     1.0  0.64823  0.55693  0.31334  1.0000
  H   H3456     1.0  0.67293  0.55596  0.33210  1.0000
  H   H3457     1.0  0.66757  0.61986  0.31196  1.0000
  H   H3458     1.0  0.67872  0.58923  0.37551  1.0000
  H   H3459     1.0  0.67543  0.56477  0.40498  1.0000
  H   H3460     1.0  0.75308  0.87052  0.22750  1.0000
  H   H3461     1.0  0.70126  0.54470  0.34337  1.0000
  H   H3462     1.0  0.72272  0.60501  0.33442  1.0000
  H   H3463     1.0  0.72318  0.63594  0.34032  1.0000
  H   H3464     1.0  0.69302  0.65838  0.34978  1.0000
  H   H3465     1.0  0.66258  0.64952  0.35335  1.0000
  H   H3466     1.0  0.66165  0.61799  0.34875  1.0000
  H   H3467     1.0  0.70434  0.60601  0.29644  1.0000
  H   H3468     1.0  0.73461  0.60206  0.27336  1.0000
  H   H3469     1.0  0.76208  0.57713  0.28229  1.0000
  H   H3470     1.0  0.75883  0.55559  0.31438  1.0000
  H   H3471     1.0  0.72857  0.55917  0.33739  1.0000
  C   C4315     1.0  0.63443  0.73864  0.26224  1.0000
  C   C4316     1.0  0.65195  0.72578  0.26094  1.0000
  C   C4317     1.0  0.66799  0.73147  0.24845  1.0000
  C   C4318     1.0  0.66655  0.75006  0.23725  1.0000
  C   C4319     1.0  0.64906  0.76296  0.23855  1.0000
  H   H3472     1.0  0.62532  0.76595  0.21410  1.0000
  C   C4320     1.0  0.68409  0.49313  0.33738  1.0000
  H   H3473     1.0  0.65309  0.71134  0.26963  1.0000
  H   H3474     1.0  0.68154  0.72143  0.24746  1.0000
  H   H3475     1.0  0.67900  0.75444  0.22756  1.0000
  C   C4321     1.0  0.62943  0.49203  0.41710  1.0000
  S   S599      1.0  0.77723  0.62811  0.19243  1.0000
  C   C4322     1.0  0.70350  0.75004  0.08278  1.0000
  C   C4323     1.0  0.76437  0.51380  0.21014  1.0000
  C   C4324     1.0  0.77477  0.76579  0.33259  1.0000
  H   H3476     1.0  0.77314  0.90870  0.99784  1.0000
  P   P141      1.0  0.65486  0.50724  0.23557  1.0000
  C   C4325     1.0  0.70014  0.76895  0.08482  1.0000
  C   C4326     1.0  0.71179  0.77908  0.05102  1.0000
  C   C4327     1.0  0.71124  0.87412  0.99722  1.0000
  C   C4328     1.0  0.71104  0.74560  0.06485  1.0000
  C   C4329     1.0  0.76948  0.60844  0.03385  1.0000
  C   C4330     1.0  0.60328  0.82829  0.06596  1.0000
  C   C4331     1.0  0.70069  0.71701  0.01403  1.0000
  P   P142      1.0  0.61025  0.77401  0.25240  1.0000
  C   C4332     1.0  0.72496  0.75075  0.42865  1.0000
  H   H3477     1.0  0.72334  0.80188  0.40006  1.0000
  H   H3478     1.0  0.71957  0.77927  0.38263  1.0000
  C   C4333     1.0  0.69542  0.80317  0.41781  1.0000
  H   H3479     1.0  0.76842  0.62088  0.00438  1.0000
  S   S600      1.0  0.62469  0.94899  0.23997  1.0000
  C   C4334     1.0  0.75132  0.75082  0.02180  1.0000
  H   H3480     1.0  0.67527  0.80146  0.99695  1.0000
  H   H3481     1.0  0.77278  0.82620  0.04603  1.0000
  S   S601      1.0  0.76550  0.50027  0.16060  1.0000
  C   C4335     1.0  0.76280  0.74161  0.00731  1.0000
  C   C4336     1.0  0.71714  0.77409  0.00755  1.0000
  H   H3482     1.0  0.63487  0.80774  0.10350  1.0000
  H   H3483     1.0  0.69683  0.87827  0.23557  1.0000
  H   H3484     1.0  0.76363  0.50660  0.22490  1.0000
  H   H3485     1.0  0.76760  0.57401  0.11961  1.0000
  C   C4337     1.0  0.63398  0.56097  0.20630  1.0000
  H   H3486     1.0  0.74659  0.91883  0.28617  1.0000
  H   H3487     1.0  0.62084  0.72447  0.34620  1.0000
  H   H3488     1.0  0.78210  0.75172  0.46872  1.0000
  C   C4338     1.0  0.64745  0.51720  0.28874  1.0000
  S   S602      1.0  0.77194  0.68714  0.01195  1.0000
  Fe  Fe307     1.0  0.77071  0.57556  0.20973  1.0000
  C   C4339     1.0  0.71845  0.91510  0.00869  1.0000
  C   C4340     1.0  0.72953  0.89763  0.01641  1.0000
  P   P143      1.0  0.71828  0.87814  0.03079  1.0000
  C   C4341     1.0  0.73344  0.86241  0.04648  1.0000
  C   C4342     1.0  0.74880  0.84868  0.03955  1.0000
  Fe  Fe308     1.0  0.77296  0.69553  0.98063  1.0000
  C   C4343     1.0  0.75817  0.83893  0.06998  1.0000
  C   C4344     1.0  0.74270  0.85219  0.07714  1.0000
  C   C4345     1.0  0.73044  0.86399  0.06543  1.0000
  C   C4346     1.0  0.69585  0.88858  0.04421  1.0000
  C   C4347     1.0  0.67908  0.88301  0.04481  1.0000
  C   C4348     1.0  0.66173  0.89186  0.05454  1.0000
  C   C4349     1.0  0.66098  0.90615  0.06385  1.0000
  C   C4350     1.0  0.67758  0.91163  0.06350  1.0000
  C   C4351     1.0  0.69494  0.90304  0.05356  1.0000
  C   C4352     1.0  0.78037  0.63743  0.01612  1.0000
  H   H3489     1.0  0.70316  0.91709  0.01144  1.0000
  H   H3490     1.0  0.76161  0.71894  0.39913  1.0000
  C   C4353     1.0  0.62981  0.80400  0.46255  1.0000
  S   S603      1.0  0.60785  0.48939  0.31903  1.0000
  H   H3491     1.0  0.74000  0.85304  0.09192  1.0000
  H   H3492     1.0  0.71859  0.87407  0.07141  1.0000
  H   H3493     1.0  0.71373  0.83860  0.03715  1.0000
  H   H3494     1.0  0.67927  0.87178  0.03795  1.0000
  H   H3495     1.0  0.67974  0.85902  0.45679  1.0000
  H   H3496     1.0  0.64757  0.91274  0.07169  1.0000
  H   H3497     1.0  0.67695  0.92235  0.07121  1.0000
  H   H3498     1.0  0.70768  0.90755  0.05333  1.0000
  C   C4354     1.0  0.70106  0.88397  0.26078  1.0000
  C   C4355     1.0  0.61353  0.79811  0.24912  1.0000
  C   C4356     1.0  0.71860  0.85642  0.24757  1.0000
  C   C4357     1.0  0.72897  0.85025  0.26203  1.0000
  C   C4358     1.0  0.72557  0.86102  0.27592  1.0000
  C   C4359     1.0  0.71123  0.87775  0.27537  1.0000
  P   P144      1.0  0.73828  0.85271  0.29519  1.0000
  C   C4360     1.0  0.72639  0.83637  0.31431  1.0000
  C   C4361     1.0  0.76220  0.84023  0.28712  1.0000
  C   C4362     1.0  0.76561  0.82104  0.28555  1.0000
  C   C4363     1.0  0.59928  0.87644  0.08488  1.0000
  C   C4364     1.0  0.78405  0.81132  0.27929  1.0000
  C   C4365     1.0  0.76462  0.87440  0.23085  1.0000
  H   H3499     1.0  0.61806  0.50574  0.44086  1.0000
  C   C4366     1.0  0.73609  0.82410  0.32824  1.0000
  C   C4367     1.0  0.70734  0.83610  0.31576  1.0000
  C   C4368     1.0  0.73917  0.87322  0.30349  1.0000
  C   C4369     1.0  0.74300  0.88998  0.29029  1.0000
  C   C4370     1.0  0.73968  0.90567  0.31585  1.0000
  C   C4371     1.0  0.61584  0.50535  0.36390  1.0000
  C   C4372     1.0  0.73604  0.88901  0.32909  1.0000
  C   C4373     1.0  0.73588  0.87279  0.32299  1.0000
  H   H3500     1.0  0.69028  0.89711  0.26027  1.0000
  H   H3501     1.0  0.72137  0.84815  0.23680  1.0000
  H   H3502     1.0  0.73964  0.83714  0.26226  1.0000
  H   H3503     1.0  0.70784  0.88611  0.28616  1.0000
  H   H3504     1.0  0.75406  0.81356  0.28917  1.0000
  H   H3505     1.0  0.70092  0.82793  0.46586  1.0000
  H   H3506     1.0  0.59552  0.68611  0.33704  1.0000
  H   H3507     1.0  0.60289  0.71846  0.38552  1.0000
  H   H3508     1.0  0.68622  0.97930  0.25827  1.0000
  H   H3509     1.0  0.75074  0.82422  0.32749  1.0000
  H   H3510     1.0  0.69946  0.84558  0.30538  1.0000
  H   H3511     1.0  0.74561  0.89069  0.27523  1.0000
  S   S604      1.0  0.61923  0.86298  0.99505  1.0000
  C   C4374     1.0  0.70801  0.78432  0.39346  1.0000
  H   H3512     1.0  0.73332  0.88866  0.34414  1.0000
  H   H3513     1.0  0.73305  0.86012  0.33361  1.0000
  C   C4375     1.0  0.72328  0.69107  0.19293  1.0000
  C   C4376     1.0  0.74146  0.68141  0.19559  1.0000
  C   C4377     1.0  0.75715  0.68900  0.18485  1.0000
  C   C4378     1.0  0.75471  0.70615  0.17126  1.0000
  C   C4379     1.0  0.73652  0.71595  0.16834  1.0000
  C   C4380     1.0  0.72075  0.70837  0.17947  1.0000
  P   P145      1.0  0.73418  0.73807  0.15049  1.0000
  C   C4381     1.0  0.71019  0.75167  0.15152  1.0000
  C   C4382     1.0  0.74929  0.75136  0.15458  1.0000
  C   C4383     1.0  0.74521  0.75709  0.17193  1.0000
  C   C4384     1.0  0.75759  0.76601  0.17598  1.0000
  C   C4385     1.0  0.77418  0.76919  0.16277  1.0000
  C   C4386     1.0  0.77839  0.76339  0.14556  1.0000
  C   C4387     1.0  0.76614  0.75428  0.14155  1.0000
  C   C4388     1.0  0.70576  0.77122  0.15200  1.0000
  C   C4389     1.0  0.68766  0.78214  0.15045  1.0000
  C   C4390     1.0  0.67390  0.77372  0.14831  1.0000
  C   C4391     1.0  0.67826  0.75440  0.14745  1.0000
  C   C4392     1.0  0.69641  0.74348  0.14876  1.0000
  C   C4393     1.0  0.74088  0.73378  0.12672  1.0000
  C   C4394     1.0  0.74510  0.71515  0.12355  1.0000
  C   C4395     1.0  0.75019  0.71214  0.10501  1.0000
  C   C4396     1.0  0.75029  0.72775  0.08953  1.0000
  C   C4397     1.0  0.74556  0.74638  0.09260  1.0000
  C   C4398     1.0  0.74077  0.74941  0.11111  1.0000
  H   H3514     1.0  0.71122  0.68496  0.20132  1.0000
  C   C4399     1.0  0.69041  0.79598  0.99536  1.0000
  C   C4400     1.0  0.61487  0.73888  0.34860  1.0000
  H   H3515     1.0  0.76713  0.71161  0.16284  1.0000
  H   H3516     1.0  0.70654  0.71566  0.17798  1.0000
  H   H3517     1.0  0.73263  0.75430  0.18246  1.0000
  H   H3518     1.0  0.75455  0.77019  0.18947  1.0000
  H   H3519     1.0  0.63686  0.78923  0.26384  1.0000
  C   C4401     1.0  0.77761  0.84930  0.28276  1.0000
  H   H3520     1.0  0.77002  0.74927  0.12844  1.0000
  H   H3521     1.0  0.71640  0.77837  0.15267  1.0000
  H   H3522     1.0  0.68447  0.79735  0.15034  1.0000
  H   H3523     1.0  0.66000  0.78231  0.14684  1.0000
  H   H3524     1.0  0.66771  0.74806  0.14525  1.0000
  H   H3525     1.0  0.69989  0.72879  0.14708  1.0000
  H   H3526     1.0  0.74513  0.70291  0.13532  1.0000
  H   H3527     1.0  0.75481  0.69767  0.10268  1.0000
  H   H3528     1.0  0.75457  0.72542  0.07516  1.0000
  H   H3529     1.0  0.74592  0.75849  0.08062  1.0000
  H   H3530     1.0  0.73713  0.76394  0.11327  1.0000
  H   H3531     1.0  0.66098  0.54173  0.20514  1.0000
  H   H3532     1.0  0.70056  0.73878  0.09517  1.0000
  C   C4402     1.0  0.71022  0.79699  0.40343  1.0000
  C   C4403     1.0  0.72551  0.75398  0.44608  1.0000
  H   H3533     1.0  0.64075  0.78125  0.44719  1.0000
  H   H3534     1.0  0.60091  0.65078  0.42336  1.0000
  H   H3535     1.0  0.61999  0.49836  0.37729  1.0000
  H   H3536     1.0  0.62221  0.73385  0.27197  1.0000
  C   C4404     1.0  0.76114  0.83706  0.05126  1.0000
  C   C4405     1.0  0.77594  0.64887  0.14652  1.0000
  S   S605      1.0  0.59878  0.76065  0.43412  1.0000
  C   C4406     1.0  0.77417  0.82238  0.35402  1.0000
  H   H3537     1.0  0.78464  0.84726  0.33658  1.0000
  C   C4407     1.0  0.74672  0.92789  0.99344  1.0000
  H   H3538     1.0  0.74211  0.49971  0.30820  1.0000
  C   C4408     1.0  0.61479  0.56400  0.21507  1.0000
  C   C4409     1.0  0.63195  0.80813  0.07546  1.0000
  C   C4410     1.0  0.60935  0.50312  0.33440  1.0000
  H   H3539     1.0  0.63835  0.53285  0.26306  1.0000
  H   H3540     1.0  0.59364  0.89653  0.16980  1.0000
  P   P146      1.0  0.71999  0.51417  0.27838  1.0000
  C   C4411     1.0  0.70569  0.50596  0.30136  1.0000
  C   C4412     1.0  0.73963  0.52152  0.28246  1.0000
  C   C4413     1.0  0.74756  0.53650  0.26965  1.0000
  C   C4414     1.0  0.76416  0.54034  0.27169  1.0000
  C   C4415     1.0  0.77266  0.52975  0.28691  1.0000
  Fe  Fe309     1.0  0.65852  0.71210  0.43786  1.0000
  C   C4416     1.0  0.74799  0.51126  0.29804  1.0000
  C   C4417     1.0  0.69701  0.51861  0.31369  1.0000
  C   C4418     1.0  0.68604  0.51223  0.33153  1.0000
  C   C4419     1.0  0.68594  0.49151  0.20981  1.0000
  H   H3541     1.0  0.78132  0.89241  0.31006  1.0000
  H   H3542     1.0  0.74416  0.77375  0.98755  1.0000
  C   C4420     1.0  0.70675  0.53344  0.26312  1.0000
  C   C4421     1.0  0.68798  0.54226  0.26986  1.0000
  C   C4422     1.0  0.67829  0.55750  0.25794  1.0000
  C   C4423     1.0  0.68720  0.56403  0.23920  1.0000
  C   C4424     1.0  0.70567  0.55499  0.23221  1.0000
  C   C4425     1.0  0.71524  0.53950  0.24397  1.0000
  H   H3543     1.0  0.60489  0.83082  0.11042  1.0000
  S   S606      1.0  0.77573  0.97949  0.30549  1.0000
  H   H3544     1.0  0.63926  0.81308  0.45323  1.0000
  C   C4426     1.0  0.65816  0.50043  0.29777  1.0000
  H   H3545     1.0  0.74131  0.54517  0.25784  1.0000
  C   C4427     1.0  0.70376  0.49116  0.19775  1.0000
  C   C4428     1.0  0.72680  0.81190  0.34349  1.0000
  S   S607      1.0  0.63154  0.71011  0.43110  1.0000
  H   H3546     1.0  0.62800  0.83898  0.37226  1.0000
  H   H3547     1.0  0.69850  0.53347  0.30933  1.0000
  H   H3548     1.0  0.67886  0.52207  0.34084  1.0000
  Fe  Fe310     1.0  0.59989  0.61090  0.34472  1.0000
  C   C4429     1.0  0.76148  0.89131  0.23717  1.0000
  H   H3549     1.0  0.66702  0.80155  0.43299  1.0000
  H   H3550     1.0  0.68079  0.53783  0.28435  1.0000
  H   H3551     1.0  0.66417  0.56483  0.26356  1.0000
  H   H3552     1.0  0.67998  0.57639  0.23028  1.0000
  H   H3553     1.0  0.71277  0.56022  0.21778  1.0000
  H   H3554     1.0  0.72953  0.53261  0.23825  1.0000
  H   H3555     1.0  0.71213  0.88899  0.99154  1.0000
  H   H3556     1.0  0.73389  0.75696  0.41574  1.0000
  C   C4430     1.0  0.69107  0.77772  0.39791  1.0000
  H   H3557     1.0  0.77091  0.50725  0.31215  1.0000
  C   C4431     1.0  0.72702  0.93018  0.99732  1.0000
  C   C4432     1.0  0.78904  0.79221  0.34423  1.0000
  H   H3558     1.0  0.62370  0.88677  0.14790  1.0000
  C   C4433     1.0  0.64699  0.66075  0.39865  1.0000
  C   C4434     1.0  0.70657  0.86424  0.98611  1.0000
  C   C4435     1.0  0.70422  0.78345  0.06893  1.0000
  H   H3559     1.0  0.68351  0.82341  0.33201  1.0000
  S   S608      1.0  0.74059  0.81668  0.45130  1.0000
  H   H3560     1.0  0.61183  0.85105  0.13754  1.0000
  H   H3561     1.0  0.74945  0.76809  0.35479  1.0000
  H   H3562     1.0  0.59894  0.96757  0.27614  1.0000
  Fe  Fe311     1.0  0.66732  0.74293  0.40229  1.0000
  C   C4436     1.0  0.71234  0.84577  0.02271  1.0000
  H   H3563     1.0  0.76319  0.59659  0.03449  1.0000
  S   S609      1.0  0.76694  0.54508  0.22124  1.0000
  H   H3564     1.0  0.66300  0.77960  0.41518  1.0000
  C   C4437     1.0  0.76530  0.51279  0.17767  1.0000
  C   C4438     1.0  0.61843  0.77438  0.47113  1.0000
  C   C4439     1.0  0.62926  0.81172  0.39201  1.0000
  H   H3565     1.0  0.77629  0.69057  0.04763  1.0000
  C   C4440     1.0  0.71413  0.86496  0.01564  1.0000
  H   H3566     1.0  0.76926  0.72969  0.42449  1.0000
  C   C4441     1.0  0.64609  0.64147  0.40091  1.0000
  H   H3567     1.0  0.65143  0.83140  0.99833  1.0000
  C   C4442     1.0  0.70391  0.48669  0.30751  1.0000
  H   H3568     1.0  0.62859  0.77754  0.35283  1.0000
  C   C4443     1.0  0.75226  0.91467  0.40639  1.0000
  C   C4444     1.0  0.70478  0.84518  0.99328  1.0000
  H   H3569     1.0  0.67537  0.48825  0.35108  1.0000
  H   H3570     1.0  0.76206  0.60578  0.09808  1.0000
  H   H3571     1.0  0.70595  0.82129  0.01725  1.0000
  C   C4445     1.0  0.70783  0.83591  0.01149  1.0000
  H   H3572     1.0  0.77128  0.68133  0.18669  1.0000
  H   H3573     1.0  0.62192  0.61985  0.43250  1.0000
  C   C4446     1.0  0.60783  0.54979  0.22982  1.0000
  H   H3574     1.0  0.60530  0.57732  0.21038  1.0000
  H   H3575     1.0  0.77560  0.86389  0.28410  1.0000
  C   C4447     1.0  0.61067  0.82224  0.36750  1.0000
  C   C4448     1.0  0.75993  0.75710  0.03300  1.0000
  S   S610      1.0  0.68865  0.76143  0.38573  1.0000
  C   C4449     1.0  0.62895  0.81984  0.25594  1.0000
  C   C4450     1.0  0.68094  0.85350  0.47152  1.0000
  C   C4451     1.0  0.76608  0.54249  0.18540  1.0000
  H   H3576     1.0  0.76649  0.79554  0.36897  1.0000
  C   C4452     1.0  0.77647  0.59800  0.09843  1.0000
  H   H3577     1.0  0.60879  0.79788  0.32104  1.0000
  H   H3578     1.0  0.74342  0.66793  0.20590  1.0000
  S   S611      1.0  0.76645  0.59452  0.23011  1.0000
  C   C4453     1.0  0.61062  0.79103  0.38862  1.0000
  C   C4454     1.0  0.60445  0.80480  0.37326  1.0000
  C   C4455     1.0  0.75054  0.76450  0.31010  1.0000
  C   C4456     1.0  0.76891  0.73072  0.39544  1.0000
  S   S612      1.0  0.59939  0.59579  0.37518  1.0000
  C   C4457     1.0  0.78532  0.63920  0.03227  1.0000
  C   C4458     1.0  0.78285  0.75174  0.40497  1.0000
  C   C4459     1.0  0.78917  0.69262  0.03732  1.0000
  H   H3579     1.0  0.78673  0.79658  0.27789  1.0000
  H   H3580     1.0  0.77101  0.73465  0.36550  1.0000
  S   S613      1.0  0.73951  0.97886  0.28792  1.0000
  H   H3581     1.0  0.75442  0.73807  0.47123  1.0000
  S   S614      1.0  0.78913  0.70089  0.12806  1.0000
  C   C4460     1.0  0.60290  0.83262  0.23953  1.0000
  H   H3582     1.0  0.59955  0.53014  0.31644  1.0000
  C   C4461     1.0  0.60130  0.77038  0.20174  1.0000
  C   C4462     1.0  0.59936  0.77562  0.35626  1.0000
  C   C4463     1.0  0.77967  0.75404  0.02977  1.0000
  C   C4464     1.0  0.77408  0.73982  0.37640  1.0000
  H   H3583     1.0  0.77041  0.55153  0.26125  1.0000
  H   H3584     1.0  0.60923  0.59023  0.44546  1.0000
  C   C4465     1.0  0.59968  0.60388  0.44205  1.0000
  C   C4466     1.0  0.70250  0.80182  0.97821  1.0000
  Fe  Fe312     1.0  0.78117  0.60622  0.17511  1.0000
  S   S615      1.0  0.73710  0.86397  0.46800  1.0000
  H   H3585     1.0  0.78399  0.77580  0.16600  1.0000
  H   H3586     1.0  0.78634  0.75863  0.03852  1.0000
  C   C4467     1.0  0.59441  0.70779  0.39263  1.0000
  C   C4468     1.0  0.60040  0.84383  0.14545  1.0000
  C   C4469     1.0  0.66849  0.48913  0.26842  1.0000
  H   H3587     1.0  0.77943  0.67168  0.23124  1.0000
  H   H3588     1.0  0.78555  0.53278  0.28839  1.0000
  H   H3589     1.0  0.59197  0.88792  0.20440  1.0000
  C   C4470     1.0  0.78269  0.86265  0.22865  1.0000
  C   C4471     1.0  0.78182  0.76489  0.31340  1.0000
  H   H3590     1.0  0.78359  0.90115  0.27536  1.0000
  C   C4472     1.0  0.78326  0.75530  0.37156  1.0000
  H   H3591     1.0  0.60417  0.91562  0.99026  1.0000
  C   C4473     1.0  0.59966  0.81189  0.32126  1.0000
  C   C4474     1.0  0.77641  0.89647  0.24131  1.0000
  H   H3592     1.0  0.59058  0.74480  0.47435  1.0000
  C   C4475     1.0  0.72190  0.79401  0.97568  1.0000
  Fe  Fe313     1.0  0.62837  0.61201  0.75254  1.0000
  S   S616      1.0  0.64176  0.61284  0.72169  1.0000
  Fe  Fe314     1.0  0.66573  0.60844  0.76388  1.0000
  S   S617      1.0  0.68232  0.60923  0.73404  1.0000
  S   S618      1.0  0.67885  0.60035  0.78973  1.0000
  Fe  Fe315     1.0  0.65805  0.63250  0.72573  1.0000
  S   S619      1.0  0.66282  0.66004  0.70513  1.0000
  Fe  Fe316     1.0  0.66490  0.58942  0.73241  1.0000
  S   S620      1.0  0.67993  0.56317  0.72039  1.0000
  S   S621      1.0  0.64274  0.63358  0.75588  1.0000
  S   S622      1.0  0.65017  0.58680  0.76286  1.0000
  S   S623      1.0  0.72512  0.48514  0.76868  1.0000
  H   H3593     1.0  0.77923  0.90634  0.67628  1.0000
  H   H3594     1.0  0.71938  0.49620  0.70352  1.0000
  C   C4476     1.0  0.69047  0.53972  0.84290  1.0000
  H   H3595     1.0  0.70978  0.49061  0.81004  1.0000
  C   C4477     1.0  0.62309  0.64928  0.62741  1.0000
  H   H3596     1.0  0.64956  0.83201  0.52625  1.0000
  Fe  Fe317     1.0  0.64078  0.74155  0.59869  1.0000
  S   S624      1.0  0.63588  0.71676  0.59017  1.0000
  S   S625      1.0  0.61536  0.76176  0.61145  1.0000
  Fe  Fe318     1.0  0.68311  0.73275  0.58250  1.0000
  S   S626      1.0  0.68167  0.70731  0.57236  1.0000
  S   S627      1.0  0.71074  0.74150  0.57829  1.0000
  Fe  Fe319     1.0  0.65554  0.72595  0.56268  1.0000
  S   S628      1.0  0.64555  0.73421  0.53513  1.0000
  Fe  Fe320     1.0  0.66231  0.70044  0.60083  1.0000
  S   S629      1.0  0.66494  0.66993  0.61788  1.0000
  S   S630      1.0  0.65860  0.75200  0.57052  1.0000
  S   S631      1.0  0.66576  0.72464  0.61154  1.0000
  H   H3597     1.0  0.66202  0.49364  0.75256  1.0000
  C   C4478     1.0  0.59756  0.69262  0.75270  1.0000
  Fe  Fe321     1.0  0.64774  0.94752  0.80550  1.0000
  S   S632      1.0  0.67478  0.92948  0.79230  1.0000
  Fe  Fe322     1.0  0.65031  0.84837  0.92959  1.0000
  S   S633      1.0  0.66887  0.86211  0.90322  1.0000
  S   S634      1.0  0.64135  0.82235  0.92793  1.0000
  Fe  Fe323     1.0  0.74877  0.63598  0.82018  1.0000
  S   S635      1.0  0.74897  0.61649  0.84908  1.0000
  S   S636      1.0  0.72275  0.65315  0.80876  1.0000
  H   H3598     1.0  0.66638  0.88456  0.86563  1.0000
  H   H3599     1.0  0.59860  0.52279  0.73276  1.0000
  H   H3600     1.0  0.70492  0.81549  0.49893  1.0000
  S   S637      1.0  0.74334  0.66811  0.94375  1.0000
  H   H3601     1.0  0.60131  0.72980  0.56613  1.0000
  Fe  Fe324     1.0  0.75893  0.95433  0.69644  1.0000
  C   C4479     1.0  0.69805  0.97722  0.75911  1.0000
  S   S638      1.0  0.77644  0.94339  0.71902  1.0000
  H   H3602     1.0  0.71961  0.73759  0.96725  1.0000
  H   H3603     1.0  0.68158  0.75055  0.51876  1.0000
  Fe  Fe325     1.0  0.75315  0.95501  0.65760  1.0000
  S   S639      1.0  0.76767  0.94185  0.63217  1.0000
  S   S640      1.0  0.74555  0.93615  0.68635  1.0000
  C   C4480     1.0  0.74801  0.85517  0.48783  1.0000
  H   H3604     1.0  0.59921  0.56979  0.63464  1.0000
  H   H3605     1.0  0.74154  0.51720  0.83642  1.0000
  H   H3606     1.0  0.74759  0.98130  0.76264  1.0000
  H   H3607     1.0  0.76690  0.83088  0.47771  1.0000
  Fe  Fe326     1.0  0.72807  0.83042  0.59786  1.0000
  S   S641      1.0  0.75823  0.81478  0.59112  1.0000
  S   S642      1.0  0.70177  0.81775  0.60584  1.0000
  Fe  Fe327     1.0  0.73985  0.86832  0.59361  1.0000
  S   S643      1.0  0.77100  0.85578  0.58562  1.0000
  S   S644      1.0  0.72548  0.89796  0.59901  1.0000
  Fe  Fe328     1.0  0.76196  0.84085  0.56767  1.0000
  H   H3608     1.0  0.62119  0.68839  0.49475  1.0000
  Fe  Fe329     1.0  0.76457  0.83085  0.60954  1.0000
  S   S645      1.0  0.73141  0.85563  0.57357  1.0000
  S   S646      1.0  0.73393  0.84423  0.61832  1.0000
  S   S647      1.0  0.74563  0.70464  0.97057  1.0000
  H   H3609     1.0  0.66711  0.55143  0.66913  1.0000
  C   C4481     1.0  0.77117  0.83241  0.50479  1.0000
  C   C4482     1.0  0.76549  0.84244  0.51956  1.0000
  C   C4483     1.0  0.75088  0.85874  0.51849  1.0000
  C   C4484     1.0  0.74234  0.86518  0.50259  1.0000
  H   H3610     1.0  0.60494  0.58951  0.69099  1.0000
  H   H3611     1.0  0.62244  0.80164  0.61444  1.0000
  H   H3612     1.0  0.74650  0.86666  0.52970  1.0000
  H   H3613     1.0  0.73140  0.87809  0.50161  1.0000
  C   C4485     1.0  0.75549  0.92886  0.62440  1.0000
  C   C4486     1.0  0.76578  0.91338  0.61598  1.0000
  C   C4487     1.0  0.75663  0.90338  0.60877  1.0000
  C   C4488     1.0  0.73719  0.90934  0.60917  1.0000
  C   C4489     1.0  0.72690  0.92497  0.61740  1.0000
  C   C4490     1.0  0.73593  0.93444  0.62537  1.0000
  S   S648      1.0  0.60095  0.82529  0.84585  1.0000
  H   H3614     1.0  0.76473  0.89144  0.60240  1.0000
  H   H3615     1.0  0.71188  0.92972  0.61767  1.0000
  H   H3616     1.0  0.72789  0.94649  0.63162  1.0000
  H   H3617     1.0  0.60118  0.70420  0.61840  1.0000
  H   H3618     1.0  0.76326  0.48841  0.84971  1.0000
  C   C4491     1.0  0.59887  0.74064  0.50111  1.0000
  C   C4492     1.0  0.77252  0.66351  0.91344  1.0000
  C   C4493     1.0  0.75395  0.66149  0.92195  1.0000
  C   C4494     1.0  0.74427  0.65323  0.91356  1.0000
  C   C4495     1.0  0.75339  0.64653  0.89684  1.0000
  C   C4496     1.0  0.60537  0.63019  0.67735  1.0000
  H   H3619     1.0  0.72995  0.65154  0.92026  1.0000
  H   H3620     1.0  0.74619  0.63960  0.89065  1.0000
  Fe  Fe330     1.0  0.75908  0.72743  0.94894  1.0000
  C   C4497     1.0  0.71117  0.78223  0.93962  1.0000
  H   H3621     1.0  0.68362  0.80103  0.94007  1.0000
  H   H3622     1.0  0.71856  0.79232  0.92898  1.0000
  C   C4498     1.0  0.67913  0.93519  0.76739  1.0000
  C   C4499     1.0  0.69780  0.93345  0.75692  1.0000
  C   C4500     1.0  0.70133  0.93930  0.73702  1.0000
  C   C4501     1.0  0.68622  0.94588  0.72757  1.0000
  H   H3623     1.0  0.70950  0.92837  0.76421  1.0000
  H   H3624     1.0  0.71572  0.93875  0.72900  1.0000
  C   C4502     1.0  0.63847  0.92339  0.88248  1.0000
  C   C4503     1.0  0.63818  0.91608  0.90187  1.0000
  C   C4504     1.0  0.64758  0.89727  0.90825  1.0000
  C   C4505     1.0  0.65770  0.88587  0.89520  1.0000
  H   H3625     1.0  0.63027  0.92480  0.91204  1.0000
  H   H3626     1.0  0.64704  0.89160  0.92328  1.0000
  C   C4506     1.0  0.70845  0.76177  0.58742  1.0000
  C   C4507     1.0  0.72389  0.77061  0.58316  1.0000
  C   C4508     1.0  0.72199  0.78774  0.58881  1.0000
  C   C4509     1.0  0.70484  0.79568  0.59953  1.0000
  C   C4510     1.0  0.68975  0.78606  0.60498  1.0000
  C   C4511     1.0  0.69146  0.76925  0.59875  1.0000
  H   H3627     1.0  0.73720  0.76448  0.57497  1.0000
  H   H3628     1.0  0.73371  0.79495  0.58452  1.0000
  H   H3629     1.0  0.67658  0.79185  0.61361  1.0000
  H   H3630     1.0  0.67960  0.76223  0.60253  1.0000
  H   H3631     1.0  0.59565  0.76733  0.80011  1.0000
  C   C4512     1.0  0.66406  0.94192  0.75792  1.0000
  C   C4513     1.0  0.66220  0.51991  0.71101  1.0000
  H   H3632     1.0  0.59505  0.88107  0.90403  1.0000
  C   C4514     1.0  0.59833  0.87919  0.75615  1.0000
  H   H3633     1.0  0.62296  0.81656  0.54471  1.0000
  H   H3634     1.0  0.66826  0.50536  0.70931  1.0000
  C   C4515     1.0  0.62082  0.79960  0.71366  1.0000
  C   C4516     1.0  0.67059  0.69632  0.50066  1.0000
  C   C4517     1.0  0.66596  0.70502  0.51640  1.0000
  C   C4518     1.0  0.65491  0.72361  0.51526  1.0000
  C   C4519     1.0  0.64930  0.73366  0.49821  1.0000
  C   C4520     1.0  0.76634  0.83419  0.70940  1.0000
  H   H3635     1.0  0.67884  0.68183  0.50162  1.0000
  H   H3636     1.0  0.67040  0.69717  0.52951  1.0000
  H   H3637     1.0  0.64084  0.74806  0.49722  1.0000
  H   H3638     1.0  0.64813  0.76026  0.65287  1.0000
  C   C4521     1.0  0.69137  0.61538  0.79395  1.0000
  C   C4522     1.0  0.68765  0.63523  0.78689  1.0000
  C   C4523     1.0  0.69711  0.64686  0.79169  1.0000
  C   C4524     1.0  0.71072  0.63859  0.80304  1.0000
  C   C4525     1.0  0.71460  0.61872  0.80980  1.0000
  C   C4526     1.0  0.70474  0.60722  0.80551  1.0000
  H   H3639     1.0  0.67722  0.64165  0.77810  1.0000
  H   H3640     1.0  0.69403  0.66223  0.78645  1.0000
  H   H3641     1.0  0.72501  0.61219  0.81860  1.0000
  H   H3642     1.0  0.70755  0.59193  0.81114  1.0000
  C   C4527     1.0  0.66221  0.66214  0.68134  1.0000
  C   C4528     1.0  0.65772  0.68046  0.67008  1.0000
  C   C4529     1.0  0.65836  0.68289  0.65071  1.0000
  C   C4530     1.0  0.66361  0.66700  0.64236  1.0000
  C   C4531     1.0  0.66760  0.64854  0.65373  1.0000
  C   C4532     1.0  0.66681  0.64608  0.67326  1.0000
  H   H3643     1.0  0.65341  0.69283  0.67641  1.0000
  H   H3644     1.0  0.65440  0.69707  0.64238  1.0000
  H   H3645     1.0  0.67158  0.63619  0.64738  1.0000
  H   H3646     1.0  0.67016  0.63186  0.68194  1.0000
  C   C4533     1.0  0.64674  0.55775  0.71530  1.0000
  C   C4534     1.0  0.66555  0.54965  0.71676  1.0000
  C   C4535     1.0  0.68777  0.84945  0.54395  1.0000
  H   H3647     1.0  0.64072  0.57231  0.71697  1.0000
  C   C4536     1.0  0.60764  0.75230  0.63574  1.0000
  H   H3648     1.0  0.63377  0.73204  0.63853  1.0000
  C   C4537     1.0  0.62636  0.80508  0.72757  1.0000
  H   H3649     1.0  0.75330  0.72025  0.80160  1.0000
  C   C4538     1.0  0.75236  0.75089  0.47653  1.0000
  P   P147      1.0  0.73280  0.95543  0.79753  1.0000
  C   C4539     1.0  0.71402  0.95026  0.81789  1.0000
  C   C4540     1.0  0.70464  0.93557  0.81945  1.0000
  C   C4541     1.0  0.69018  0.93139  0.83514  1.0000
  C   C4542     1.0  0.68498  0.94177  0.84946  1.0000
  C   C4543     1.0  0.69423  0.95637  0.84807  1.0000
  C   C4544     1.0  0.70872  0.96060  0.83238  1.0000
  H   H3650     1.0  0.68406  0.56294  0.81911  1.0000
  H   H3651     1.0  0.61575  0.80963  0.73946  1.0000
  C   C4545     1.0  0.76570  0.77489  0.48212  1.0000
  C   C4546     1.0  0.65740  0.51737  0.81240  1.0000
  C   C4547     1.0  0.68834  0.78490  0.47812  1.0000
  C   C4548     1.0  0.76300  0.60474  0.75974  1.0000
  C   C4549     1.0  0.69231  0.75624  0.96769  1.0000
  H   H3652     1.0  0.78760  0.88044  0.70697  1.0000
  H   H3653     1.0  0.70824  0.92758  0.80833  1.0000
  H   H3654     1.0  0.68262  0.92045  0.83593  1.0000
  H   H3655     1.0  0.67349  0.93878  0.86145  1.0000
  H   H3656     1.0  0.59811  0.67808  0.59449  1.0000
  C   C4550     1.0  0.61359  0.72979  0.66487  1.0000
  C   C4551     1.0  0.69229  0.76761  0.49130  1.0000
  H   H3657     1.0  0.66145  0.87764  0.48135  1.0000
  C   C4552     1.0  0.66951  0.52438  0.81907  1.0000
  C   C4553     1.0  0.78116  0.73736  0.80540  1.0000
  H   H3658     1.0  0.77784  0.78099  0.48065  1.0000
  H   H3659     1.0  0.59494  0.55914  0.69488  1.0000
  H   H3660     1.0  0.62452  0.92686  0.77200  1.0000
  C   C4554     1.0  0.75716  0.79083  0.88607  1.0000
  C   C4555     1.0  0.74762  0.80518  0.87314  1.0000
  C   C4556     1.0  0.75627  0.80838  0.85375  1.0000
  P   P148      1.0  0.72467  0.81936  0.88169  1.0000
  C   C4557     1.0  0.70660  0.80520  0.88825  1.0000
  C   C4558     1.0  0.72585  0.82703  0.90230  1.0000
  C   C4559     1.0  0.70935  0.83133  0.91592  1.0000
  C   C4560     1.0  0.71003  0.83812  0.93143  1.0000
  C   C4561     1.0  0.72726  0.84027  0.93372  1.0000
  C   C4562     1.0  0.74378  0.83601  0.92024  1.0000
  C   C4563     1.0  0.74307  0.82965  0.90445  1.0000
  C   C4564     1.0  0.68789  0.81406  0.88634  1.0000
  C   C4565     1.0  0.67375  0.80331  0.89204  1.0000
  C   C4566     1.0  0.67794  0.78381  0.90042  1.0000
  C   C4567     1.0  0.69641  0.77494  0.90261  1.0000
  C   C4568     1.0  0.71075  0.78547  0.89625  1.0000
  C   C4569     1.0  0.71771  0.84041  0.86385  1.0000
  C   C4570     1.0  0.71307  0.83829  0.84756  1.0000
  C   C4571     1.0  0.70671  0.85445  0.83418  1.0000
  C   C4572     1.0  0.70471  0.87284  0.83705  1.0000
  C   C4573     1.0  0.70908  0.87508  0.85330  1.0000
  C   C4574     1.0  0.71554  0.85897  0.86666  1.0000
  C   C4575     1.0  0.60615  0.74850  0.78044  1.0000
  H   H3661     1.0  0.75102  0.78825  0.90118  1.0000
  H   H3662     1.0  0.74959  0.81953  0.84344  1.0000
  H   H3663     1.0  0.69591  0.82952  0.91456  1.0000
  H   H3664     1.0  0.69710  0.84186  0.94155  1.0000
  H   H3665     1.0  0.63612  0.64785  0.63191  1.0000
  H   H3666     1.0  0.75594  0.82687  0.89395  1.0000
  H   H3667     1.0  0.68398  0.82939  0.88100  1.0000
  H   H3668     1.0  0.65933  0.81029  0.89066  1.0000
  H   H3669     1.0  0.66676  0.77573  0.90567  1.0000
  H   H3670     1.0  0.69958  0.76005  0.90985  1.0000
  H   H3671     1.0  0.72475  0.77822  0.89858  1.0000
  H   H3672     1.0  0.71406  0.82414  0.84540  1.0000
  H   H3673     1.0  0.70299  0.85274  0.82174  1.0000
  H   H3674     1.0  0.69941  0.88535  0.82688  1.0000
  H   H3675     1.0  0.70694  0.88931  0.85587  1.0000
  H   H3676     1.0  0.71822  0.86117  0.87939  1.0000
  C   C4576     1.0  0.63534  0.88627  0.77534  1.0000
  C   C4577     1.0  0.61470  0.93133  0.76256  1.0000
  H   H3677     1.0  0.66103  0.54486  0.76959  1.0000
  S   S649      1.0  0.73200  0.97586  0.70267  1.0000
  H   H3678     1.0  0.64696  0.98274  0.74762  1.0000
  C   C4578     1.0  0.69519  0.49829  0.81083  1.0000
  H   H3679     1.0  0.70693  0.75950  0.64103  1.0000
  C   C4579     1.0  0.60298  0.58575  0.67869  1.0000
  C   C4580     1.0  0.67176  0.79848  0.48220  1.0000
  C   C4581     1.0  0.67326  0.53072  0.71464  1.0000
  H   H3680     1.0  0.69240  0.88992  0.56568  1.0000
  C   C4582     1.0  0.66705  0.91733  0.70624  1.0000
  C   C4583     1.0  0.63445  0.79315  0.69844  1.0000
  S   S650      1.0  0.59832  0.60914  0.76630  1.0000
  C   C4584     1.0  0.77578  0.97146  0.81021  1.0000
  C   C4585     1.0  0.60546  0.59173  0.64468  1.0000
  C   C4586     1.0  0.74521  0.49032  0.71345  1.0000
  C   C4587     1.0  0.76236  0.83865  0.48905  1.0000
  C   C4588     1.0  0.65303  0.79796  0.57530  1.0000
  H   H3681     1.0  0.62797  0.50307  0.75384  1.0000
  C   C4589     1.0  0.74939  0.86962  0.67286  1.0000
  C   C4590     1.0  0.73814  0.88726  0.66588  1.0000
  C   C4591     1.0  0.72351  0.88780  0.65720  1.0000
  C   C4592     1.0  0.72040  0.87082  0.65492  1.0000
  C   C4593     1.0  0.73184  0.85325  0.66149  1.0000
  C   C4594     1.0  0.69077  0.87885  0.55955  1.0000
  H   H3682     1.0  0.71799  0.78359  0.49760  1.0000
  H   H3683     1.0  0.60455  0.75527  0.70355  1.0000
  C   C4595     1.0  0.74859  0.62056  0.76327  1.0000
  H   H3684     1.0  0.74084  0.90063  0.66689  1.0000
  H   H3685     1.0  0.71496  0.90143  0.65169  1.0000
  H   H3686     1.0  0.70957  0.87140  0.64744  1.0000
  C   C4596     1.0  0.71191  0.75128  0.96112  1.0000
  H   H3687     1.0  0.66401  0.52183  0.66175  1.0000
  H   H3688     1.0  0.71620  0.70906  0.48709  1.0000
  C   C4597     1.0  0.76565  0.56916  0.71642  1.0000
  H   H3689     1.0  0.60923  0.60018  0.63049  1.0000
  C   C4598     1.0  0.66096  0.73333  0.66839  1.0000
  S   S651      1.0  0.77165  0.70938  0.92720  1.0000
  C   C4599     1.0  0.71590  0.72891  0.50404  1.0000
  C   C4600     1.0  0.71682  0.71080  0.50079  1.0000
  C   C4601     1.0  0.71871  0.69444  0.51542  1.0000
  C   C4602     1.0  0.72021  0.69594  0.53320  1.0000
  C   C4603     1.0  0.71982  0.71381  0.53638  1.0000
  C   C4604     1.0  0.71755  0.73021  0.52192  1.0000
  C   C4605     1.0  0.73408  0.76018  0.48409  1.0000
  C   C4606     1.0  0.67928  0.76399  0.50855  1.0000
  C   C4607     1.0  0.66277  0.77769  0.51268  1.0000
  C   C4608     1.0  0.65901  0.79494  0.49954  1.0000
  C   C4609     1.0  0.60259  0.89690  0.85889  1.0000
  C   C4610     1.0  0.60517  0.71589  0.48315  1.0000
  H   H3690     1.0  0.77678  0.78563  0.79903  1.0000
  C   C4611     1.0  0.73464  0.49140  0.70012  1.0000
  H   H3691     1.0  0.75915  0.77272  0.64345  1.0000
  C   C4612     1.0  0.60483  0.76856  0.53208  1.0000
  H   H3692     1.0  0.71901  0.68059  0.51292  1.0000
  H   H3693     1.0  0.72160  0.68329  0.54456  1.0000
  H   H3694     1.0  0.72102  0.71505  0.55015  1.0000
  H   H3695     1.0  0.71698  0.74397  0.52472  1.0000
  S   S652      1.0  0.77745  0.83465  0.53869  1.0000
  H   H3696     1.0  0.65278  0.77471  0.52600  1.0000
  H   H3697     1.0  0.64617  0.80546  0.50270  1.0000
  H   H3698     1.0  0.74580  0.79671  0.49544  1.0000
  C   C4613     1.0  0.64957  0.81957  0.63277  1.0000
  C   C4614     1.0  0.74762  0.78381  0.49031  1.0000
  C   C4615     1.0  0.62870  0.80420  0.62486  1.0000
  C   C4616     1.0  0.62445  0.79460  0.64383  1.0000
  C   C4617     1.0  0.63275  0.79739  0.65746  1.0000
  C   C4618     1.0  0.64533  0.81000  0.65179  1.0000
  H   H3699     1.0  0.59462  0.80353  0.50197  1.0000
  S   S653      1.0  0.61592  0.82311  0.97093  1.0000
  H   H3700     1.0  0.77516  0.72016  0.57556  1.0000
  H   H3701     1.0  0.61492  0.78471  0.64781  1.0000
  P   P149      1.0  0.60148  0.69261  0.78888  1.0000
  C   C4619     1.0  0.73185  0.77650  0.49127  1.0000
  C   C4620     1.0  0.69149  0.78716  0.94598  1.0000
  C   C4621     1.0  0.74463  0.51132  0.63013  1.0000
  H   H3702     1.0  0.75121  0.83971  0.71268  1.0000
  C   C4622     1.0  0.68379  0.90366  0.70777  1.0000
  C   C4623     1.0  0.68380  0.88738  0.72255  1.0000
  C   C4624     1.0  0.66710  0.88492  0.73595  1.0000
  C   C4625     1.0  0.65030  0.89882  0.73473  1.0000
  H   H3703     1.0  0.74162  0.80421  0.64974  1.0000
  C   C4626     1.0  0.59979  0.92525  0.74024  1.0000
  H   H3704     1.0  0.76450  0.88728  0.81431  1.0000
  C   C4627     1.0  0.64688  0.87060  0.81021  1.0000
  C   C4628     1.0  0.69640  0.54081  0.67127  1.0000
  H   H3705     1.0  0.60754  0.51512  0.80277  1.0000
  C   C4629     1.0  0.62675  0.86798  0.73420  1.0000
  H   H3706     1.0  0.68231  0.60066  0.62361  1.0000
  H   H3707     1.0  0.69676  0.90590  0.69756  1.0000
  H   H3708     1.0  0.69677  0.87678  0.72371  1.0000
  H   H3709     1.0  0.66732  0.87228  0.74739  1.0000
  S   S654      1.0  0.78512  0.72011  0.96109  1.0000
  S   S655      1.0  0.74588  0.75827  0.93834  1.0000
  H   H3710     1.0  0.62637  0.55408  0.77257  1.0000
  H   H3711     1.0  0.65134  0.86455  0.82364  1.0000
  H   H3712     1.0  0.66749  0.72762  0.65574  1.0000
  Fe  Fe331     1.0  0.77340  0.62883  0.84939  1.0000
  H   H3713     1.0  0.64127  0.86825  0.72694  1.0000
  C   C4630     1.0  0.72835  0.62867  0.68334  1.0000
  C   C4631     1.0  0.71494  0.62316  0.67709  1.0000
  C   C4632     1.0  0.71030  0.60521  0.68527  1.0000
  C   C4633     1.0  0.71891  0.59279  0.69981  1.0000
  C   C4634     1.0  0.73204  0.59842  0.70650  1.0000
  C   C4635     1.0  0.73696  0.61632  0.69792  1.0000
  P   P150      1.0  0.74279  0.58283  0.72574  1.0000
  H   H3714     1.0  0.61614  0.82411  0.48056  1.0000
  C   C4636     1.0  0.72742  0.56667  0.73997  1.0000
  C   C4637     1.0  0.71393  0.57130  0.75602  1.0000
  C   C4638     1.0  0.70215  0.55869  0.76690  1.0000
  C   C4639     1.0  0.70387  0.54130  0.76202  1.0000
  C   C4640     1.0  0.71705  0.53667  0.74596  1.0000
  C   C4641     1.0  0.72871  0.54933  0.73490  1.0000
  C   C4642     1.0  0.75622  0.51430  0.61199  1.0000
  C   C4643     1.0  0.77226  0.64782  0.88886  1.0000
  H   H3715     1.0  0.59472  0.69168  0.72508  1.0000
  C   C4644     1.0  0.61679  0.81021  0.47798  1.0000
  C   C4645     1.0  0.73096  0.61355  0.74393  1.0000
  H   H3716     1.0  0.73187  0.64263  0.67704  1.0000
  H   H3717     1.0  0.70802  0.63288  0.66602  1.0000
  H   H3718     1.0  0.69973  0.60105  0.68065  1.0000
  H   H3719     1.0  0.71485  0.57909  0.70612  1.0000
  H   H3720     1.0  0.74725  0.62085  0.70268  1.0000
  H   H3721     1.0  0.71245  0.58448  0.76040  1.0000
  H   H3722     1.0  0.69196  0.56230  0.77937  1.0000
  H   H3723     1.0  0.69529  0.53123  0.77089  1.0000
  H   H3724     1.0  0.71821  0.52323  0.74215  1.0000
  H   H3725     1.0  0.76599  0.71997  0.82975  1.0000
  H   H3726     1.0  0.70075  0.49396  0.74224  1.0000
  H   H3727     1.0  0.62006  0.83592  0.89934  1.0000
  C   C4646     1.0  0.74534  0.59760  0.74031  1.0000
  H   H3728     1.0  0.59727  0.52263  0.83467  1.0000
  H   H3729     1.0  0.71829  0.61704  0.73820  1.0000
  C   C4647     1.0  0.63632  0.68864  0.73715  1.0000
  C   C4648     1.0  0.62372  0.68963  0.72585  1.0000
  C   C4649     1.0  0.60442  0.69131  0.73373  1.0000
  P   P151      1.0  0.73032  0.48861  0.66490  1.0000
  C   C4650     1.0  0.61010  0.69162  0.76416  1.0000
  C   C4651     1.0  0.62957  0.68965  0.75625  1.0000
  C   C4652     1.0  0.59241  0.87658  0.84474  1.0000
  C   C4653     1.0  0.70937  0.71133  0.63307  1.0000
  C   C4654     1.0  0.61775  0.67424  0.80164  1.0000
  C   C4655     1.0  0.62375  0.65601  0.79721  1.0000
  C   C4656     1.0  0.63762  0.64217  0.80560  1.0000
  C   C4657     1.0  0.64576  0.64643  0.81839  1.0000
  C   C4658     1.0  0.63990  0.66451  0.82292  1.0000
  C   C4659     1.0  0.62597  0.67839  0.81458  1.0000
  C   C4660     1.0  0.67061  0.56652  0.86533  1.0000
  H   H3730     1.0  0.68996  0.96454  0.85910  1.0000
  H   H3731     1.0  0.59225  0.54914  0.66681  1.0000
  C   C4661     1.0  0.60774  0.73017  0.77756  1.0000
  C   C4662     1.0  0.60338  0.94978  0.76111  1.0000
  S   S656      1.0  0.76959  0.56504  0.84087  1.0000
  C   C4663     1.0  0.76808  0.75838  0.47535  1.0000
  H   H3732     1.0  0.65481  0.49537  0.79984  1.0000
  H   H3733     1.0  0.65137  0.68670  0.73114  1.0000
  H   H3734     1.0  0.62887  0.68897  0.71101  1.0000
  H   H3735     1.0  0.69658  0.95879  0.78664  1.0000
  H   H3736     1.0  0.60927  0.73134  0.52733  1.0000
  H   H3737     1.0  0.63954  0.68866  0.76487  1.0000
  H   H3738     1.0  0.77802  0.50872  0.81469  1.0000
  H   H3739     1.0  0.61160  0.75944  0.76892  1.0000
  H   H3740     1.0  0.65689  0.63583  0.82445  1.0000
  H   H3741     1.0  0.64647  0.66786  0.83261  1.0000
  H   H3742     1.0  0.62206  0.69242  0.81795  1.0000
  H   H3743     1.0  0.72497  0.52647  0.67318  1.0000
  C   C4664     1.0  0.71845  0.50277  0.84121  1.0000
  H   H3744     1.0  0.76494  0.62589  0.95859  1.0000
  C   C4665     1.0  0.60690  0.88209  0.84923  1.0000
  H   H3745     1.0  0.73117  0.79805  0.96209  1.0000
  H   H3746     1.0  0.64482  0.82391  0.60456  1.0000
  H   H3747     1.0  0.64283  0.52492  0.81273  1.0000
  H   H3748     1.0  0.76959  0.58835  0.68872  1.0000
  H   H3749     1.0  0.64967  0.94320  0.76593  1.0000
  C   C4666     1.0  0.76471  0.76134  0.60216  1.0000
  C   C4667     1.0  0.59599  0.56280  0.66507  1.0000
  C   C4668     1.0  0.77488  0.77979  0.87971  1.0000
  S   S657      1.0  0.62795  0.97092  0.78984  1.0000
  H   H3750     1.0  0.78582  0.66803  0.76714  1.0000
  H   H3751     1.0  0.65589  0.95189  0.73073  1.0000
  P   P152      1.0  0.74737  0.74065  0.63673  1.0000
  C   C4669     1.0  0.77652  0.61436  0.93344  1.0000
  H   H3752     1.0  0.75077  0.67492  0.77736  1.0000
  H   H3753     1.0  0.62300  0.69829  0.52333  1.0000
  C   C4670     1.0  0.76066  0.70908  0.79394  1.0000
  C   C4671     1.0  0.66760  0.94684  0.73802  1.0000
  C   C4672     1.0  0.59532  0.76905  0.69989  1.0000
  C   C4673     1.0  0.67751  0.52296  0.66374  1.0000
  H   H3754     1.0  0.64970  0.80860  0.73721  1.0000
  H   H3755     1.0  0.77051  0.94538  0.80735  1.0000
  C   C4674     1.0  0.63671  0.80159  0.56807  1.0000
  C   C4675     1.0  0.59513  0.73628  0.67425  1.0000
  C   C4676     1.0  0.60032  0.71615  0.79241  1.0000
  Fe  Fe332     1.0  0.62759  0.84849  0.96991  1.0000
  C   C4677     1.0  0.59737  0.52825  0.80479  1.0000
  C   C4678     1.0  0.75798  0.74969  0.83118  1.0000
  C   C4679     1.0  0.59631  0.82996  0.86879  1.0000
  H   H3756     1.0  0.62862  0.67310  0.60429  1.0000
  H   H3757     1.0  0.74961  0.62934  0.77231  1.0000
  H   H3758     1.0  0.65650  0.72053  0.71636  1.0000
  C   C4680     1.0  0.67262  0.57183  0.84559  1.0000
  C   C4681     1.0  0.59322  0.64001  0.63183  1.0000
  C   C4682     1.0  0.74896  0.48759  0.84983  1.0000
  C   C4683     1.0  0.77872  0.67980  0.77421  1.0000
  H   H3759     1.0  0.78210  0.76880  0.88985  1.0000
  H   H3760     1.0  0.70237  0.71085  0.62227  1.0000
  C   C4684     1.0  0.58989  0.89213  0.91228  1.0000
  H   H3761     1.0  0.65965  0.82895  0.62833  1.0000
  H   H3762     1.0  0.69750  0.55342  0.67531  1.0000
  H   H3763     1.0  0.61623  0.86638  0.78591  1.0000
  S   S658      1.0  0.77661  0.48606  0.75662  1.0000
  H   H3764     1.0  0.76190  0.77309  0.60917  1.0000
  H   H3765     1.0  0.62571  0.68736  0.63630  1.0000
  H   H3766     1.0  0.71283  0.69084  0.67891  1.0000
  C   C4685     1.0  0.65471  0.72931  0.70254  1.0000
  C   C4686     1.0  0.59748  0.56848  0.68092  1.0000
  C   C4687     1.0  0.65914  0.79791  0.71138  1.0000
  C   C4688     1.0  0.72049  0.53486  0.80918  1.0000
  C   C4689     1.0  0.72976  0.52660  0.79350  1.0000
  C   C4690     1.0  0.74397  0.53443  0.77982  1.0000
  C   C4691     1.0  0.74876  0.55084  0.78146  1.0000
  C   C4692     1.0  0.73973  0.55915  0.79703  1.0000
  C   C4693     1.0  0.72593  0.55098  0.81106  1.0000
  H   H3767     1.0  0.70348  0.89141  0.53105  1.0000
  S   S659      1.0  0.65018  0.96604  0.82375  1.0000
  H   H3768     1.0  0.66387  0.53722  0.82467  1.0000
  H   H3769     1.0  0.72645  0.51387  0.79186  1.0000
  H   H3770     1.0  0.75149  0.52745  0.76819  1.0000
  H   H3771     1.0  0.76013  0.55656  0.77118  1.0000
  H   H3772     1.0  0.74403  0.57143  0.79865  1.0000
  H   H3773     1.0  0.72015  0.55695  0.82359  1.0000
  H   H3774     1.0  0.76866  0.52678  0.84056  1.0000
  C   C4694     1.0  0.66744  0.59233  0.67165  1.0000
  C   C4695     1.0  0.65492  0.88523  0.79714  1.0000
  H   H3775     1.0  0.66548  0.89072  0.80047  1.0000
  C   C4696     1.0  0.65352  0.60881  0.63837  1.0000
  C   C4697     1.0  0.64120  0.60943  0.65609  1.0000
  C   C4698     1.0  0.64820  0.60053  0.67272  1.0000
  P   P153      1.0  0.61609  0.61859  0.65762  1.0000
  C   C4699     1.0  0.73432  0.76346  0.64221  1.0000
  C   C4700     1.0  0.61613  0.63826  0.68475  1.0000
  C   C4701     1.0  0.64984  0.75191  0.66685  1.0000
  C   C4702     1.0  0.60839  0.83446  0.89427  1.0000
  H   H3776     1.0  0.78077  0.79999  0.83251  1.0000
  C   C4703     1.0  0.61435  0.70273  0.49688  1.0000
  C   C4704     1.0  0.68307  0.49137  0.80412  1.0000
  H   H3777     1.0  0.67269  0.58566  0.68460  1.0000
  C   C4705     1.0  0.65862  0.89340  0.87572  1.0000
  H   H3778     1.0  0.64834  0.61460  0.62531  1.0000
  H   H3779     1.0  0.63880  0.59979  0.68655  1.0000
  C   C4706     1.0  0.76090  0.76822  0.82257  1.0000
  C   C4707     1.0  0.60676  0.59762  0.66058  1.0000
  C   C4708     1.0  0.60708  0.68772  0.66360  1.0000
  S   S660      1.0  0.78543  0.63683  0.87014  1.0000
  C   C4709     1.0  0.65369  0.79210  0.69761  1.0000
  H   H3780     1.0  0.77726  0.91470  0.75528  1.0000
  C   C4710     1.0  0.68242  0.55848  0.83443  1.0000
  H   H3781     1.0  0.78092  0.90915  0.61491  1.0000
  P   P154      1.0  0.62890  0.89575  0.75236  1.0000
  C   C4711     1.0  0.60546  0.78040  0.48685  1.0000
  Fe  Fe333     1.0  0.60495  0.95927  0.81254  1.0000
  C   C4712     1.0  0.59309  0.51275  0.74517  1.0000
  C   C4713     1.0  0.69952  0.77289  0.85390  1.0000
  C   C4714     1.0  0.68432  0.77210  0.84674  1.0000
  C   C4715     1.0  0.67919  0.75456  0.84949  1.0000
  C   C4716     1.0  0.68922  0.73781  0.85943  1.0000
  C   C4717     1.0  0.70473  0.73839  0.86646  1.0000
  C   C4718     1.0  0.70962  0.75616  0.86377  1.0000
  P   P155      1.0  0.71594  0.71713  0.88150  1.0000
  C   C4719     1.0  0.71291  0.69602  0.87579  1.0000
  C   C4720     1.0  0.74113  0.71587  0.87813  1.0000
  C   C4721     1.0  0.75452  0.70140  0.87004  1.0000
  C   C4722     1.0  0.77388  0.70042  0.86763  1.0000
  C   C4723     1.0  0.59995  0.57444  0.64696  1.0000
  C   C4724     1.0  0.76704  0.72798  0.88164  1.0000
  C   C4725     1.0  0.74761  0.72880  0.88445  1.0000
  C   C4726     1.0  0.70816  0.68040  0.89022  1.0000
  C   C4727     1.0  0.70711  0.66363  0.88559  1.0000
  C   C4728     1.0  0.71090  0.66233  0.86656  1.0000
  C   C4729     1.0  0.71562  0.67783  0.85213  1.0000
  C   C4730     1.0  0.71662  0.69463  0.85669  1.0000
  C   C4731     1.0  0.70472  0.71837  0.90582  1.0000
  C   C4732     1.0  0.68566  0.72769  0.91043  1.0000
  C   C4733     1.0  0.67739  0.72971  0.92909  1.0000
  C   C4734     1.0  0.68797  0.72220  0.94330  1.0000
  C   C4735     1.0  0.70674  0.71247  0.93891  1.0000
  C   C4736     1.0  0.71510  0.71052  0.92027  1.0000
  H   H3782     1.0  0.70314  0.78658  0.85225  1.0000
  H   H3783     1.0  0.67626  0.78513  0.83939  1.0000
  H   H3784     1.0  0.66715  0.75402  0.84426  1.0000
  H   H3785     1.0  0.68447  0.72454  0.86203  1.0000
  H   H3786     1.0  0.72085  0.75735  0.86968  1.0000
  H   H3787     1.0  0.75032  0.69042  0.86597  1.0000
  H   H3788     1.0  0.59193  0.49341  0.72869  1.0000
  H   H3789     1.0  0.73773  0.73918  0.89203  1.0000
  H   H3790     1.0  0.70574  0.68090  0.90504  1.0000
  H   H3791     1.0  0.70380  0.65146  0.89677  1.0000
  H   H3792     1.0  0.71046  0.64922  0.86295  1.0000
  H   H3793     1.0  0.71883  0.67662  0.83740  1.0000
  H   H3794     1.0  0.72077  0.70632  0.84533  1.0000
  H   H3795     1.0  0.67722  0.73369  0.89965  1.0000
  H   H3796     1.0  0.66282  0.73726  0.93257  1.0000
  H   H3797     1.0  0.68161  0.72393  0.95772  1.0000
  H   H3798     1.0  0.71489  0.70638  0.94996  1.0000
  H   H3799     1.0  0.72968  0.70292  0.91720  1.0000
  C   C4737     1.0  0.72534  0.81728  0.53626  1.0000
  C   C4738     1.0  0.74200  0.80339  0.53756  1.0000
  C   C4739     1.0  0.74239  0.78438  0.53779  1.0000
  C   C4740     1.0  0.72598  0.77912  0.53717  1.0000
  C   C4741     1.0  0.70926  0.79293  0.53589  1.0000
  H   H3800     1.0  0.72545  0.83191  0.53610  1.0000
  H   H3801     1.0  0.75456  0.80732  0.53870  1.0000
  H   H3802     1.0  0.75526  0.77363  0.53901  1.0000
  H   H3803     1.0  0.72614  0.76421  0.53825  1.0000
  H   H3804     1.0  0.71558  0.97201  0.83166  1.0000
  H   H3805     1.0  0.78247  0.81981  0.50550  1.0000
  C   C4742     1.0  0.77248  0.88502  0.71196  1.0000
  C   C4743     1.0  0.74390  0.77626  0.64481  1.0000
  C   C4744     1.0  0.78857  0.53167  0.79341  1.0000
  H   H3806     1.0  0.60454  0.95922  0.76940  1.0000
  C   C4745     1.0  0.77405  0.79736  0.84745  1.0000
  H   H3807     1.0  0.61837  0.76694  0.52222  1.0000
  H   H3808     1.0  0.69110  0.49458  0.65986  1.0000
  C   C4746     1.0  0.76150  0.59339  0.74816  1.0000
  H   H3809     1.0  0.75560  0.52868  0.60329  1.0000
  S   S661      1.0  0.62106  0.86356  0.94111  1.0000
  C   C4747     1.0  0.67067  0.86392  0.48535  1.0000
  C   C4748     1.0  0.63401  0.54107  0.76774  1.0000
  H   H3810     1.0  0.69662  0.68965  0.65433  1.0000
  H   H3811     1.0  0.61708  0.77043  0.55445  1.0000
  C   C4749     1.0  0.66349  0.72209  0.68622  1.0000
  H   H3812     1.0  0.66717  0.93007  0.69491  1.0000
  H   H3813     1.0  0.63682  0.75319  0.71390  1.0000
  C   C4750     1.0  0.64351  0.52819  0.70910  1.0000
  C   C4751     1.0  0.70623  0.69936  0.65108  1.0000
  H   H3814     1.0  0.67400  0.79710  0.71060  1.0000
  C   C4752     1.0  0.66368  0.51866  0.76099  1.0000
  P   P156      1.0  0.70408  0.52304  0.82812  1.0000
  C   C4753     1.0  0.75902  0.68364  0.78001  1.0000
  C   C4754     1.0  0.75737  0.93215  0.77354  1.0000
  H   H3815     1.0  0.70682  0.81353  0.65182  1.0000
  C   C4755     1.0  0.61310  0.91894  0.75203  1.0000
  H   H3816     1.0  0.75573  0.83897  0.67430  1.0000
  C   C4756     1.0  0.61533  0.70831  0.51300  1.0000
  C   C4757     1.0  0.60466  0.79848  0.49008  1.0000
  C   C4758     1.0  0.63581  0.54709  0.71132  1.0000
  H   H3817     1.0  0.66449  0.78649  0.68646  1.0000
  H   H3818     1.0  0.74179  0.90898  0.74453  1.0000
  C   C4759     1.0  0.77770  0.62160  0.94845  1.0000
  C   C4760     1.0  0.59294  0.58958  0.73093  1.0000
  C   C4761     1.0  0.74753  0.93311  0.79218  1.0000
  C   C4762     1.0  0.74668  0.90098  0.73334  1.0000
  H   H3819     1.0  0.67695  0.54377  0.88919  1.0000
  H   H3820     1.0  0.62305  0.71835  0.67240  1.0000
  C   C4763     1.0  0.61969  0.73753  0.64562  1.0000
  Fe  Fe334     1.0  0.77101  0.59637  0.83262  1.0000
  Fe  Fe335     1.0  0.76021  0.68600  0.94972  1.0000
  C   C4764     1.0  0.76247  0.89980  0.80293  1.0000
  C   C4765     1.0  0.76813  0.73432  0.82271  1.0000
  H   H3821     1.0  0.60592  0.80000  0.71527  1.0000
  C   C4766     1.0  0.71438  0.79934  0.64981  1.0000
  S   S662      1.0  0.62494  0.94624  0.87509  1.0000
  C   C4767     1.0  0.64882  0.91209  0.86937  1.0000
  H   H3822     1.0  0.64912  0.91767  0.85439  1.0000
  H   H3823     1.0  0.75583  0.94445  0.76186  1.0000
  C   C4768     1.0  0.76609  0.89481  0.72678  1.0000
  H   H3824     1.0  0.75307  0.78009  0.82923  1.0000
  H   H3825     1.0  0.70387  0.87150  0.97211  1.0000
  H   H3826     1.0  0.73872  0.54555  0.72243  1.0000
  Fe  Fe336     1.0  0.62572  0.95449  0.84374  1.0000
  S   S663      1.0  0.62467  0.93425  0.82656  1.0000
  H   H3827     1.0  0.62476  0.84674  0.72031  1.0000
  H   H3828     1.0  0.78014  0.66962  0.91998  1.0000
  C   C4769     1.0  0.73363  0.89704  0.72526  1.0000
  Fe  Fe337     1.0  0.64567  0.81105  0.95769  1.0000
  Fe  Fe338     1.0  0.61243  0.83676  0.94091  1.0000
  C   C4770     1.0  0.70882  0.81215  0.53542  1.0000
  H   H3829     1.0  0.78156  0.88582  0.78117  1.0000
  C   C4771     1.0  0.64930  0.89293  0.77973  1.0000
  H   H3830     1.0  0.65588  0.90411  0.76970  1.0000
  H   H3831     1.0  0.61449  0.72717  0.76367  1.0000
  C   C4772     1.0  0.75040  0.91686  0.80691  1.0000
  H   H3832     1.0  0.71857  0.90184  0.73031  1.0000
  C   C4773     1.0  0.65360  0.53575  0.76642  1.0000
  H   H3833     1.0  0.59584  0.64988  0.74772  1.0000
  C   C4774     1.0  0.78034  0.52314  0.81177  1.0000
  H   H3834     1.0  0.69667  0.78852  0.53549  1.0000
  S   S664      1.0  0.62961  0.51553  0.70337  1.0000
  C   C4775     1.0  0.67979  0.59257  0.65397  1.0000
  C   C4776     1.0  0.78332  0.78305  0.86040  1.0000
  C   C4777     1.0  0.68211  0.77418  0.96017  1.0000
  C   C4778     1.0  0.73147  0.72425  0.64237  1.0000
  C   C4779     1.0  0.61726  0.87976  0.74720  1.0000
  Fe  Fe339     1.0  0.71947  0.95923  0.68997  1.0000
  C   C4780     1.0  0.73660  0.50390  0.84222  1.0000
  P   P157      1.0  0.71386  0.75044  0.48554  1.0000
  H   H3835     1.0  0.65197  0.81251  0.66186  1.0000
  H   H3836     1.0  0.73494  0.71269  0.67148  1.0000
  S   S665      1.0  0.76877  0.97156  0.66744  1.0000
  C   C4781     1.0  0.76959  0.91516  0.76968  1.0000
  C   C4782     1.0  0.69568  0.86498  0.53230  1.0000
  C   C4783     1.0  0.73998  0.88736  0.71032  1.0000
  S   S666      1.0  0.65778  0.83556  0.95824  1.0000
  H   H3837     1.0  0.70125  0.86554  0.51727  1.0000
  C   C4784     1.0  0.72137  0.76422  0.94701  1.0000
  H   H3838     1.0  0.69447  0.52011  0.86957  1.0000
  H   H3839     1.0  0.64244  0.62825  0.80182  1.0000
  C   C4785     1.0  0.66827  0.80650  0.56482  1.0000
  C   C4786     1.0  0.70470  0.78659  0.64752  1.0000
  C   C4787     1.0  0.75949  0.88167  0.70328  1.0000
  C   C4788     1.0  0.78526  0.88053  0.66555  1.0000
  H   H3840     1.0  0.77193  0.73789  0.88667  1.0000
  C   C4789     1.0  0.71462  0.76877  0.64358  1.0000
  C   C4790     1.0  0.58998  0.95582  0.74962  1.0000
  H   H3841     1.0  0.62505  0.79468  0.57618  1.0000
  C   C4791     1.0  0.67280  0.60066  0.63734  1.0000
  H   H3842     1.0  0.68781  0.52438  0.71579  1.0000
  C   C4792     1.0  0.64111  0.75936  0.68321  1.0000
  C   C4793     1.0  0.71543  0.70001  0.66488  1.0000
  C   C4794     1.0  0.64355  0.74784  0.70108  1.0000
  H   H3843     1.0  0.65399  0.78824  0.58892  1.0000
  H   H3844     1.0  0.68966  0.79098  0.64767  1.0000
  H   H3845     1.0  0.75714  0.83776  0.92195  1.0000
  C   C4795     1.0  0.60412  0.77072  0.55030  1.0000
  C   C4796     1.0  0.68848  0.51473  0.81862  1.0000
  C   C4797     1.0  0.77417  0.77134  0.80555  1.0000
  C   C4798     1.0  0.67927  0.53968  0.66783  1.0000
  H   H3846     1.0  0.68099  0.80328  0.57041  1.0000
  H   H3847     1.0  0.59572  0.86533  0.83696  1.0000
  P   P158      1.0  0.76816  0.86916  0.68402  1.0000
  H   H3848     1.0  0.60008  0.60154  0.72671  1.0000
  P   P159      1.0  0.62781  0.78379  0.68161  1.0000
  C   C4799     1.0  0.73397  0.79415  0.64850  1.0000
  H   H3849     1.0  0.73471  0.70106  0.79441  1.0000
  H   H3850     1.0  0.72966  0.88450  0.70425  1.0000
  H   H3851     1.0  0.63766  0.92590  0.71822  1.0000
  C   C4800     1.0  0.74645  0.85263  0.67022  1.0000
  H   H3852     1.0  0.66449  0.86498  0.51486  1.0000
  C   C4801     1.0  0.77391  0.55226  0.72787  1.0000
  H   H3853     1.0  0.61815  0.68044  0.67146  1.0000
  H   H3854     1.0  0.60394  0.91288  0.89111  1.0000
  C   C4802     1.0  0.63294  0.86391  0.80602  1.0000
  C   C4803     1.0  0.65075  0.82262  0.53992  1.0000
  C   C4804     1.0  0.68832  0.53444  0.86274  1.0000
  C   C4805     1.0  0.61138  0.69182  0.64381  1.0000
  S   S667      1.0  0.72588  0.97679  0.66036  1.0000
  C   C4806     1.0  0.66405  0.70612  0.48389  1.0000
  C   C4807     1.0  0.74700  0.96924  0.80230  1.0000
  C   C4808     1.0  0.63559  0.81386  0.55035  1.0000
  H   H3855     1.0  0.62658  0.85261  0.81621  1.0000
  H   H3856     1.0  0.61800  0.65262  0.78690  1.0000
  H   H3857     1.0  0.67206  0.70768  0.68744  1.0000
  H   H3858     1.0  0.77288  0.58128  0.74560  1.0000
  C   C4809     1.0  0.64548  0.80436  0.72637  1.0000
  H   H3859     1.0  0.69473  0.58634  0.65316  1.0000
  H   H3860     1.0  0.74808  0.74713  0.84454  1.0000
  H   H3861     1.0  0.74824  0.74193  0.67538  1.0000
  S   S668      1.0  0.76962  0.61535  0.80374  1.0000
  C   C4810     1.0  0.65352  0.72486  0.48277  1.0000
  H   H3862     1.0  0.67701  0.83619  0.57318  1.0000
  H   H3863     1.0  0.72776  0.84535  0.94586  1.0000
  C   C4811     1.0  0.61744  0.85573  0.73040  1.0000
  C   C4812     1.0  0.62709  0.87178  0.78872  1.0000
  H   H3864     1.0  0.63114  0.63730  0.67905  1.0000
  C   C4813     1.0  0.60260  0.78497  0.68849  1.0000
  C   C4814     1.0  0.73267  0.62501  0.75524  1.0000
  H   H3865     1.0  0.62143  0.87484  0.84530  1.0000
  H   H3866     1.0  0.61391  0.90132  0.86210  1.0000
  C   C4815     1.0  0.62443  0.52962  0.76296  1.0000
  C   C4816     1.0  0.77748  0.55227  0.82254  1.0000
  H   H3867     1.0  0.76491  0.80782  0.73038  1.0000
  H   H3868     1.0  0.76292  0.61290  0.93206  1.0000
  H   H3869     1.0  0.67885  0.51458  0.75995  1.0000
  C   C4817     1.0  0.61137  0.83155  0.87579  1.0000
  P   P160      1.0  0.68716  0.82997  0.53394  1.0000
  C   C4818     1.0  0.66722  0.81905  0.54715  1.0000
  C   C4819     1.0  0.76487  0.96054  0.80670  1.0000
  C   C4820     1.0  0.65421  0.50686  0.75685  1.0000
  C   C4821     1.0  0.71012  0.50837  0.66653  1.0000
  C   C4822     1.0  0.67253  0.85676  0.50428  1.0000
  H   H3870     1.0  0.76672  0.54721  0.74219  1.0000
  H   H3871     1.0  0.77814  0.77733  0.57567  1.0000
  C   C4823     1.0  0.78299  0.72006  0.64355  1.0000
  C   C4824     1.0  0.68204  0.84847  0.56361  1.0000
  C   C4825     1.0  0.69289  0.50739  0.66296  1.0000
  C   C4826     1.0  0.69515  0.82887  0.49545  1.0000
  C   C4827     1.0  0.64124  0.81670  0.61932  1.0000
  C   C4828     1.0  0.68343  0.86318  0.57133  1.0000
  C   C4829     1.0  0.74998  0.69835  0.78975  1.0000
  H   H3872     1.0  0.72986  0.84012  0.65923  1.0000
  H   H3873     1.0  0.67954  0.86202  0.58658  1.0000
  C   C4830     1.0  0.68486  0.83919  0.50945  1.0000
  C   C4831     1.0  0.72166  0.72394  0.62884  1.0000
  S   S669      1.0  0.69023  0.95360  0.70278  1.0000
  C   C4832     1.0  0.63473  0.51238  0.75758  1.0000
  H   H3874     1.0  0.73518  0.52356  0.63516  1.0000
  C   C4833     1.0  0.77553  0.57536  0.69787  1.0000
  C   C4834     1.0  0.71181  0.52530  0.67047  1.0000
  H   H3875     1.0  0.62134  0.55347  0.71007  1.0000
  C   C4835     1.0  0.77207  0.89896  0.78430  1.0000
  H   H3876     1.0  0.72149  0.63722  0.75804  1.0000
  C   C4836     1.0  0.69703  0.87967  0.54006  1.0000
  C   C4837     1.0  0.65034  0.91494  0.71961  1.0000
  H   H3877     1.0  0.59542  0.81512  0.67537  1.0000
  H   H3878     1.0  0.62542  0.83050  0.86689  1.0000
  S   S670      1.0  0.60376  0.97843  0.83175  1.0000
  C   C4838     1.0  0.78597  0.56070  0.80423  1.0000
  C   C4839     1.0  0.67839  0.54782  0.87390  1.0000
  C   C4840     1.0  0.72799  0.71242  0.66058  1.0000
  S   S671      1.0  0.65780  0.78029  0.96913  1.0000
  C   C4841     1.0  0.66414  0.50076  0.80511  1.0000
  H   H3879     1.0  0.74340  0.91737  0.82148  1.0000
  H   H3880     1.0  0.61585  0.65421  0.70515  1.0000
  C   C4842     1.0  0.60758  0.72719  0.51515  1.0000
  S   S672      1.0  0.77080  0.65041  0.82224  1.0000
  H   H3881     1.0  0.61338  0.57160  0.74684  1.0000
  H   H3882     1.0  0.66317  0.57696  0.87395  1.0000
  C   C4843     1.0  0.77497  0.53338  0.82635  1.0000
  C   C4844     1.0  0.61065  0.63691  0.63716  1.0000
  H   H3883     1.0  0.78398  0.68892  0.86181  1.0000
  H   H3884     1.0  0.66686  0.58638  0.83880  1.0000
  C   C4845     1.0  0.70509  0.96753  0.77547  1.0000
  C   C4846     1.0  0.72292  0.96898  0.77707  1.0000
  C   C4847     1.0  0.60153  0.66662  0.60640  1.0000
  H   H3885     1.0  0.72363  0.73331  0.61492  1.0000
  C   C4848     1.0  0.61872  0.66381  0.61186  1.0000
  C   C4849     1.0  0.60745  0.64806  0.69942  1.0000
  C   C4850     1.0  0.59864  0.85511  0.73956  1.0000
  C   C4851     1.0  0.75904  0.74401  0.61186  1.0000
  C   C4852     1.0  0.59112  0.72083  0.81005  1.0000
  P   P161      1.0  0.59893  0.53597  0.76588  1.0000
  C   C4853     1.0  0.78053  0.70499  0.78855  1.0000
  Fe  Fe340     1.0  0.78473  0.49175  0.78096  1.0000
  C   C4854     1.0  0.78017  0.71379  0.87323  1.0000
  H   H3886     1.0  0.69669  0.81192  0.96668  1.0000
  H   H3887     1.0  0.77531  0.60121  0.76610  1.0000
  H   H3888     1.0  0.59493  0.89911  0.97067  1.0000
  H   H3889     1.0  0.59836  0.91610  0.73179  1.0000
  C   C4855     1.0  0.78171  0.65651  0.89704  1.0000
  C   C4856     1.0  0.59710  0.75299  0.79806  1.0000
  S   S673      1.0  0.78658  0.67475  0.96164  1.0000
  C   C4857     1.0  0.73354  0.98040  0.76204  1.0000
  C   C4858     1.0  0.78440  0.75597  0.79706  1.0000
  C   C4859     1.0  0.76856  0.49877  0.60505  1.0000
  C   C4860     1.0  0.59727  0.70179  0.63360  1.0000
  C   C4861     1.0  0.74529  0.49271  0.64146  1.0000
  C   C4862     1.0  0.60046  0.57247  0.74248  1.0000
  H   H3890     1.0  0.78822  0.57514  0.80125  1.0000
  S   S674      1.0  0.77963  0.81626  0.63407  1.0000
  H   H3891     1.0  0.68444  0.97568  0.75785  1.0000
  C   C4863     1.0  0.77235  0.73161  0.58303  1.0000
  C   C4864     1.0  0.76317  0.72906  0.60217  1.0000
  H   H3892     1.0  0.59143  0.84547  0.73687  1.0000
  C   C4865     1.0  0.77406  0.81619  0.71951  1.0000
  H   H3893     1.0  0.77627  0.89794  0.73285  1.0000
  C   C4866     1.0  0.77815  0.84515  0.69532  1.0000
  H   H3894     1.0  0.73821  0.49442  0.72687  1.0000
  C   C4867     1.0  0.59733  0.73472  0.48532  1.0000
  H   H3895     1.0  0.78617  0.71749  0.62935  1.0000
  C   C4868     1.0  0.71242  0.48532  0.84905  1.0000
  H   H3896     1.0  0.77749  0.50110  0.59098  1.0000
  C   C4869     1.0  0.77402  0.76380  0.58307  1.0000
  H   H3897     1.0  0.75928  0.71542  0.60934  1.0000
  H   H3898     1.0  0.78962  0.96471  0.81347  1.0000
  H   H3899     1.0  0.59073  0.88817  0.76622  1.0000
  C   C4870     1.0  0.74376  0.48631  0.68262  1.0000
  C   C4871     1.0  0.59090  0.55718  0.74880  1.0000
  H   H3900     1.0  0.59024  0.73375  0.59929  1.0000
  C   C4872     1.0  0.77779  0.74897  0.57349  1.0000
  C   C4873     1.0  0.76535  0.73078  0.65087  1.0000
  C   C4874     1.0  0.78766  0.89873  0.66546  1.0000
  C   C4875     1.0  0.76177  0.73377  0.66940  1.0000
  H   H3901     1.0  0.59137  0.91858  0.81458  1.0000
  C   C4876     1.0  0.59492  0.90998  0.90501  1.0000
  H   H3902     1.0  0.78486  0.75100  0.55866  1.0000
  C   C4877     1.0  0.59041  0.83528  0.90613  1.0000
  C   C4878     1.0  0.59169  0.53251  0.82285  1.0000
  C   C4879     1.0  0.69306  0.83596  0.47661  1.0000
  C   C4880     1.0  0.77569  0.72632  0.68034  1.0000
  H   H3903     1.0  0.77291  0.72883  0.69455  1.0000
  H   H3904     1.0  0.59272  0.93782  0.90998  1.0000
  C   C4881     1.0  0.59071  0.51599  0.76341  1.0000
  C   C4882     1.0  0.78944  0.69046  0.77837  1.0000
  C   C4883     1.0  0.59008  0.80257  0.68394  1.0000
  C   C4884     1.0  0.59023  0.54101  0.78937  1.0000
  C   C4885     1.0  0.94101  0.20412  0.23000  1.0000
  C   C4886     1.0  0.97850  0.18266  0.26572  1.0000
  C   C4887     1.0  0.79317  0.21204  0.33936  1.0000
  C   C4888     1.0  0.79652  0.19564  0.22954  1.0000
  Fe  Fe341     1.0  0.89129  0.31292  0.18017  1.0000
  S   S675      1.0  0.90127  0.32895  0.15066  1.0000
  S   S676      1.0  0.89745  0.28090  0.19001  1.0000
  Fe  Fe342     1.0  0.87120  0.34887  0.19456  1.0000
  S   S677      1.0  0.87935  0.36845  0.16638  1.0000
  S   S678      1.0  0.85634  0.35619  0.22273  1.0000
  Fe  Fe343     1.0  0.87185  0.34708  0.15439  1.0000
  S   S679      1.0  0.85489  0.35619  0.13127  1.0000
  Fe  Fe344     1.0  0.90804  0.34866  0.16512  1.0000
  S   S680      1.0  0.93651  0.35731  0.15488  1.0000
  S   S681      1.0  0.86132  0.32937  0.18276  1.0000
  S   S682      1.0  0.90050  0.33098  0.19427  1.0000
  H   H3905     1.0  0.97472  0.35819  0.15426  1.0000
  H   H3906     1.0  0.81855  0.12319  0.39375  1.0000
  C   C4889     1.0  0.86927  0.14524  0.35242  1.0000
  C   C4890     1.0  0.89399  0.47537  0.19236  1.0000
  H   H3907     1.0  0.84446  0.45181  0.22642  1.0000
  H   H3908     1.0  0.83020  0.16919  0.37815  1.0000
  S   S683      1.0  0.95348  0.23546  0.36164  1.0000
  H   H3909     1.0  0.82457  0.45483  0.15601  1.0000
  Fe  Fe345     1.0  0.86430  0.23437  0.29407  1.0000
  S   S684      1.0  0.88420  0.20979  0.28254  1.0000
  S   S685      1.0  0.85580  0.26372  0.27623  1.0000
  Fe  Fe346     1.0  0.86052  0.21137  0.33468  1.0000
  S   S686      1.0  0.88053  0.18536  0.32605  1.0000
  S   S687      1.0  0.84713  0.20924  0.36549  1.0000
  Fe  Fe347     1.0  0.89806  0.20614  0.30693  1.0000
  S   S688      1.0  0.92976  0.20282  0.30269  1.0000
  Fe  Fe348     1.0  0.86416  0.19193  0.30290  1.0000
  S   S689      1.0  0.85442  0.16853  0.29582  1.0000
  S   S690      1.0  0.87912  0.23173  0.31738  1.0000
  S   S691      1.0  0.84327  0.21690  0.31271  1.0000
  H   H3910     1.0  0.83661  0.32960  0.06077  1.0000
  H   H3911     1.0  0.81092  0.42241  0.04097  1.0000
  H   H3912     1.0  0.83897  0.22957  0.39906  1.0000
  H   H3913     1.0  0.81840  0.33173  0.03667  1.0000
  H   H3914     1.0  0.96449  0.21330  0.30220  1.0000
  H   H3915     1.0  0.83001  0.19866  0.42230  1.0000
  C   C4891     1.0  0.85915  0.43059  0.18827  1.0000
  C   C4892     1.0  0.86201  0.41136  0.19813  1.0000
  H   H3916     1.0  0.85108  0.46007  0.19148  1.0000
  H   H3917     1.0  0.89864  0.21766  0.39723  1.0000
  H   H3918     1.0  0.86499  0.16334  0.37215  1.0000
  H   H3919     1.0  0.88456  0.14297  0.34955  1.0000
  H   H3920     1.0  0.95510  0.27876  0.26935  1.0000
  C   C4893     1.0  0.79780  0.19776  0.21012  1.0000
  H   H3921     1.0  0.86902  0.12953  0.33205  1.0000
  C   C4894     1.0  0.83089  0.17243  0.29270  1.0000
  C   C4895     1.0  0.82513  0.15814  0.28772  1.0000
  C   C4896     1.0  0.80672  0.16115  0.28446  1.0000
  H   H3922     1.0  0.79225  0.18823  0.20524  1.0000
  C   C4897     1.0  0.85031  0.20914  0.24692  1.0000
  C   C4898     1.0  0.81793  0.18962  0.29469  1.0000
  H   H3923     1.0  0.83504  0.14481  0.28609  1.0000
  H   H3924     1.0  0.97147  0.31458  0.20302  1.0000
  C   C4899     1.0  0.80850  0.26960  0.20504  1.0000
  H   H3925     1.0  0.82203  0.20077  0.29845  1.0000
  C   C4900     1.0  0.94718  0.22673  0.34481  1.0000
  C   C4901     1.0  0.95995  0.22330  0.32801  1.0000
  C   C4902     1.0  0.95455  0.21599  0.31511  1.0000
  C   C4903     1.0  0.93632  0.21224  0.31883  1.0000
  C   C4904     1.0  0.92357  0.21576  0.33555  1.0000
  C   C4905     1.0  0.92899  0.22295  0.34848  1.0000
  H   H3926     1.0  0.83445  0.13481  0.33811  1.0000
  H   H3927     1.0  0.79007  0.18443  0.23974  1.0000
  H   H3928     1.0  0.90960  0.21263  0.33873  1.0000
  H   H3929     1.0  0.91906  0.22553  0.36142  1.0000
  C   C4906     1.0  0.80875  0.28790  0.19341  1.0000
  C   C4907     1.0  0.85960  0.40686  0.21791  1.0000
  C   C4908     1.0  0.85283  0.42127  0.15461  1.0000
  C   C4909     1.0  0.81867  0.23877  0.35391  1.0000
  C   C4910     1.0  0.82404  0.22300  0.36812  1.0000
  C   C4911     1.0  0.81083  0.21802  0.38468  1.0000
  H   H3930     1.0  0.82827  0.42142  0.17776  1.0000
  H   H3931     1.0  0.85943  0.22459  0.44956  1.0000
  H   H3932     1.0  0.82897  0.24287  0.34120  1.0000
  H   H3933     1.0  0.81492  0.20584  0.39563  1.0000
  H   H3934     1.0  0.86621  0.39978  0.19058  1.0000
  H   H3935     1.0  0.85825  0.23884  0.20324  1.0000
  C   C4912     1.0  0.88694  0.27578  0.21422  1.0000
  C   C4913     1.0  0.88857  0.25684  0.22461  1.0000
  C   C4914     1.0  0.87915  0.25289  0.24372  1.0000
  C   C4915     1.0  0.86838  0.26791  0.25254  1.0000
  C   C4916     1.0  0.86719  0.28680  0.24213  1.0000
  C   C4917     1.0  0.87649  0.29073  0.22313  1.0000
  H   H3936     1.0  0.89696  0.24526  0.21786  1.0000
  H   H3937     1.0  0.87990  0.23826  0.25135  1.0000
  H   H3938     1.0  0.85930  0.29857  0.24878  1.0000
  H   H3939     1.0  0.87531  0.30541  0.21544  1.0000
  C   C4918     1.0  0.83864  0.34228  0.13215  1.0000
  C   C4919     1.0  0.83912  0.32402  0.14395  1.0000
  C   C4920     1.0  0.82667  0.31283  0.14366  1.0000
  C   C4921     1.0  0.81367  0.31975  0.13164  1.0000
  C   C4922     1.0  0.81312  0.33807  0.11989  1.0000
  C   C4923     1.0  0.82564  0.34924  0.12009  1.0000
  H   H3940     1.0  0.84934  0.31833  0.15300  1.0000
  H   H3941     1.0  0.82726  0.29864  0.15262  1.0000
  C   C4924     1.0  0.81080  0.40000  0.99944  1.0000
  H   H3942     1.0  0.82525  0.36332  0.11087  1.0000
  C   C4925     1.0  0.87939  0.21682  0.21547  1.0000
  C   C4926     1.0  0.81776  0.40874  0.98068  1.0000
  C   C4927     1.0  0.88170  0.47227  0.21004  1.0000
  H   H3943     1.0  0.81005  0.38732  0.06530  1.0000
  C   C4928     1.0  0.96384  0.36874  0.19790  1.0000
  C   C4929     1.0  0.94454  0.36804  0.20258  1.0000
  C   C4930     1.0  0.93607  0.36398  0.18975  1.0000
  C   C4931     1.0  0.94688  0.36075  0.17209  1.0000
  C   C4932     1.0  0.96623  0.36103  0.16767  1.0000
  H   H3944     1.0  0.97040  0.41382  0.14492  1.0000
  H   H3945     1.0  0.93609  0.37086  0.21608  1.0000
  H   H3946     1.0  0.92112  0.36379  0.19335  1.0000
  C   C4933     1.0  0.82702  0.34284  0.05618  1.0000
  C   C4934     1.0  0.98481  0.17716  0.40135  1.0000
  C   C4935     1.0  0.80260  0.40277  0.22582  1.0000
  C   C4936     1.0  0.81110  0.39476  0.24153  1.0000
  C   C4937     1.0  0.82713  0.37990  0.24057  1.0000
  C   C4938     1.0  0.83495  0.37319  0.22379  1.0000
  C   C4939     1.0  0.82620  0.38082  0.20816  1.0000
  C   C4940     1.0  0.80979  0.39546  0.20932  1.0000
  H   H3947     1.0  0.96776  0.33458  0.23169  1.0000
  H   H3948     1.0  0.83387  0.37404  0.25266  1.0000
  H   H3949     1.0  0.83219  0.37564  0.19518  1.0000
  H   H3950     1.0  0.80286  0.40137  0.19740  1.0000
  C   C4941     1.0  0.85324  0.44516  0.19862  1.0000
  C   C4942     1.0  0.80893  0.18254  0.43862  1.0000
  C   C4943     1.0  0.82961  0.15200  0.35903  1.0000
  H   H3951     1.0  0.91935  0.44589  0.11130  1.0000
  C   C4944     1.0  0.86053  0.13762  0.34260  1.0000
  H   H3952     1.0  0.92664  0.16862  0.34108  1.0000
  C   C4945     1.0  0.83531  0.41672  0.16465  1.0000
  C   C4946     1.0  0.79960  0.19263  0.29141  1.0000
  C   C4947     1.0  0.92029  0.41360  0.15331  1.0000
  H   H3953     1.0  0.82750  0.35516  0.16989  1.0000
  H   H3954     1.0  0.98736  0.30259  0.28297  1.0000
  C   C4948     1.0  0.83253  0.46585  0.15337  1.0000
  H   H3955     1.0  0.82505  0.28714  0.25661  1.0000
  C   C4949     1.0  0.85157  0.46120  0.15512  1.0000
  H   H3956     1.0  0.89429  0.35166  0.23084  1.0000
  H   H3957     1.0  0.94961  0.36147  0.10475  1.0000
  H   H3958     1.0  0.85476  0.48223  0.22719  1.0000
  H   H3959     1.0  0.83504  0.24451  0.26202  1.0000
  C   C4950     1.0  0.96685  0.12434  0.33282  1.0000
  H   H3960     1.0  0.87569  0.47294  0.15364  1.0000
  C   C4951     1.0  0.81833  0.30222  0.25446  1.0000
  C   C4952     1.0  0.85311  0.42139  0.22812  1.0000
  C   C4953     1.0  0.79253  0.17887  0.35515  1.0000
  H   H3961     1.0  0.84540  0.29759  0.20566  1.0000
  H   H3962     1.0  0.89067  0.21985  0.20331  1.0000
  H   H3963     1.0  0.79571  0.38821  0.11456  1.0000
  P   P162      1.0  0.86314  0.43642  0.16261  1.0000
  C   C4954     1.0  0.80261  0.19363  0.34681  1.0000
  C   C4955     1.0  0.81833  0.19769  0.43442  1.0000
  C   C4956     1.0  0.80226  0.36633  0.97725  1.0000
  C   C4957     1.0  0.81227  0.21167  0.44546  1.0000
  C   C4958     1.0  0.84980  0.44055  0.21848  1.0000
  C   C4959     1.0  0.82213  0.26101  0.21632  1.0000
  C   C4960     1.0  0.80776  0.13322  0.40110  1.0000
  C   C4961     1.0  0.83522  0.28976  0.20527  1.0000
  C   C4962     1.0  0.88834  0.43247  0.15255  1.0000
  H   H3964     1.0  0.89645  0.40932  0.17583  1.0000
  H   H3965     1.0  0.80795  0.21329  0.18195  1.0000
  C   C4963     1.0  0.79054  0.24222  0.26043  1.0000
  H   H3966     1.0  0.81811  0.25185  0.29310  1.0000
  C   C4964     1.0  0.91619  0.24418  0.07714  1.0000
  C   C4965     1.0  0.93299  0.25102  0.07002  1.0000
  C   C4966     1.0  0.93284  0.27023  0.06887  1.0000
  C   C4967     1.0  0.91586  0.28267  0.07467  1.0000
  C   C4968     1.0  0.89885  0.27602  0.08131  1.0000
  C   C4969     1.0  0.89920  0.25659  0.08295  1.0000
  P   P163      1.0  0.87706  0.29160  0.08980  1.0000
  C   C4970     1.0  0.87403  0.28602  0.11537  1.0000
  C   C4971     1.0  0.87810  0.31640  0.07938  1.0000
  C   C4972     1.0  0.88390  0.32221  0.05961  1.0000
  C   C4973     1.0  0.88373  0.34157  0.05119  1.0000
  C   C4974     1.0  0.87760  0.35527  0.06242  1.0000
  C   C4975     1.0  0.87156  0.34961  0.08206  1.0000
  C   C4976     1.0  0.87169  0.33028  0.09051  1.0000
  C   C4977     1.0  0.88572  0.29181  0.12380  1.0000
  C   C4978     1.0  0.88414  0.28682  0.14351  1.0000
  C   C4979     1.0  0.87103  0.27590  0.15496  1.0000
  C   C4980     1.0  0.85966  0.26969  0.14667  1.0000
  C   C4981     1.0  0.86120  0.27462  0.12694  1.0000
  C   C4982     1.0  0.85748  0.28857  0.08183  1.0000
  C   C4983     1.0  0.86048  0.28127  0.06550  1.0000
  C   C4984     1.0  0.84503  0.28050  0.05863  1.0000
  C   C4985     1.0  0.82656  0.28722  0.06785  1.0000
  C   C4986     1.0  0.82356  0.29479  0.08387  1.0000
  C   C4987     1.0  0.83892  0.29563  0.09072  1.0000
  H   H3967     1.0  0.91638  0.22921  0.07833  1.0000
  H   H3968     1.0  0.94617  0.24138  0.06561  1.0000
  H   H3969     1.0  0.94593  0.27544  0.06367  1.0000
  H   H3970     1.0  0.91611  0.29738  0.07413  1.0000
  H   H3971     1.0  0.88635  0.25102  0.08881  1.0000
  H   H3972     1.0  0.88840  0.31178  0.05071  1.0000
  H   H3973     1.0  0.88825  0.34597  0.03594  1.0000
  H   H3974     1.0  0.87739  0.37028  0.05595  1.0000
  H   H3975     1.0  0.86659  0.36022  0.09080  1.0000
  H   H3976     1.0  0.86655  0.32629  0.10567  1.0000
  H   H3977     1.0  0.89604  0.30021  0.11518  1.0000
  H   H3978     1.0  0.89309  0.29141  0.14998  1.0000
  H   H3979     1.0  0.86976  0.27229  0.17026  1.0000
  H   H3980     1.0  0.84945  0.26126  0.15556  1.0000
  H   H3981     1.0  0.85234  0.26951  0.12085  1.0000
  H   H3982     1.0  0.87467  0.27651  0.05783  1.0000
  H   H3983     1.0  0.84732  0.27489  0.04604  1.0000
  H   H3984     1.0  0.81454  0.28682  0.06248  1.0000
  H   H3985     1.0  0.80931  0.30029  0.09089  1.0000
  H   H3986     1.0  0.83630  0.30209  0.10281  1.0000
  C   C4988     1.0  0.88055  0.22074  0.42445  1.0000
  C   C4989     1.0  0.88417  0.22039  0.40520  1.0000
  C   C4990     1.0  0.86911  0.22355  0.39618  1.0000
  C   C4991     1.0  0.85043  0.22719  0.40635  1.0000
  C   C4992     1.0  0.84663  0.22779  0.42566  1.0000
  C   C4993     1.0  0.86187  0.22434  0.43469  1.0000
  P   P164      1.0  0.82239  0.23280  0.43857  1.0000
  C   C4994     1.0  0.80867  0.25124  0.42320  1.0000
  C   C4995     1.0  0.81679  0.26613  0.41043  1.0000
  H   H3987     1.0  0.79543  0.35646  0.24623  1.0000
  C   C4996     1.0  0.80377  0.20780  0.23594  1.0000
  C   C4997     1.0  0.97922  0.19675  0.40123  1.0000
  H   H3988     1.0  0.97995  0.35548  0.25273  1.0000
  H   H3989     1.0  0.80406  0.35613  0.99046  1.0000
  H   H3990     1.0  0.96408  0.16811  0.29207  1.0000
  C   C4998     1.0  0.97462  0.37684  0.26896  1.0000
  P   P165      1.0  0.80415  0.15499  0.36507  1.0000
  H   H3991     1.0  0.81341  0.17207  0.42975  1.0000
  H   H3992     1.0  0.89226  0.21827  0.43142  1.0000
  C   C4999     1.0  0.96562  0.26566  0.26856  1.0000
  C   C5000     1.0  0.83497  0.40086  0.14035  1.0000
  C   C5001     1.0  0.82151  0.24112  0.45951  1.0000
  H   H3993     1.0  0.83175  0.35722  0.07549  1.0000
  C   C5002     1.0  0.81681  0.34411  0.04253  1.0000
  H   H3994     1.0  0.90758  0.46561  0.18978  1.0000
  C   C5003     1.0  0.80716  0.47468  0.20621  1.0000
  C   C5004     1.0  0.98490  0.40743  0.13935  1.0000
  C   C5005     1.0  0.97066  0.14286  0.32604  1.0000
  C   C5006     1.0  0.96366  0.36405  0.09770  1.0000
  C   C5007     1.0  0.79098  0.24947  0.29008  1.0000
  C   C5008     1.0  0.80659  0.21191  0.19704  1.0000
  C   C5009     1.0  0.86871  0.19828  0.24675  1.0000
  C   C5010     1.0  0.88328  0.20221  0.23112  1.0000
  C   C5011     1.0  0.79392  0.17850  0.28619  1.0000
  C   C5012     1.0  0.84637  0.22413  0.23145  1.0000
  H   H3995     1.0  0.87164  0.18675  0.25877  1.0000
  H   H3996     1.0  0.89754  0.19386  0.23114  1.0000
  H   H3997     1.0  0.83917  0.20570  0.25908  1.0000
  H   H3998     1.0  0.87520  0.41790  0.12969  1.0000
  H   H3999     1.0  0.81518  0.38467  0.00396  1.0000
  C   C5013     1.0  0.79318  0.12802  0.32921  1.0000
  H   H4000     1.0  0.83279  0.30822  0.27293  1.0000
  H   H4001     1.0  0.86240  0.39202  0.22538  1.0000
  H   H4002     1.0  0.89669  0.37315  0.25010  1.0000
  H   H4003     1.0  0.81771  0.19108  0.34600  1.0000
  C   C5014     1.0  0.86099  0.22770  0.21557  1.0000
  Fe  Fe349     1.0  0.98186  0.24410  0.35342  1.0000
  C   C5015     1.0  0.80543  0.30975  0.24243  1.0000
  C   C5016     1.0  0.80150  0.34125  0.24854  1.0000
  C   C5017     1.0  0.95318  0.21574  0.21778  1.0000
  H   H4004     1.0  0.83122  0.26687  0.40985  1.0000
  H   H4005     1.0  0.91980  0.13584  0.35225  1.0000
  C   C5018     1.0  0.82635  0.40673  0.15739  1.0000
  C   C5019     1.0  0.85826  0.15665  0.36518  1.0000
  C   C5020     1.0  0.97802  0.32390  0.23891  1.0000
  C   C5021     1.0  0.96830  0.36985  0.07794  1.0000
  C   C5022     1.0  0.90529  0.34748  0.23906  1.0000
  C   C5023     1.0  0.86119  0.47611  0.15189  1.0000
  H   H4006     1.0  0.92995  0.40203  0.16056  1.0000
  C   C5024     1.0  0.81998  0.24477  0.26644  1.0000
  H   H4007     1.0  0.80249  0.30027  0.23530  1.0000
  C   C5025     1.0  0.81464  0.33370  0.26035  1.0000
  C   C5026     1.0  0.85270  0.40468  0.13064  1.0000
  C   C5027     1.0  0.80332  0.12908  0.42097  1.0000
  C   C5028     1.0  0.82275  0.31413  0.26361  1.0000
  H   H4008     1.0  0.85049  0.41774  0.24350  1.0000
  H   H4009     1.0  0.97320  0.35698  0.12380  1.0000
  C   C5029     1.0  0.80410  0.36109  0.03684  1.0000
  C   C5030     1.0  0.96391  0.38377  0.28500  1.0000
  C   C5031     1.0  0.94976  0.37456  0.29723  1.0000
  C   C5032     1.0  0.94640  0.35835  0.29346  1.0000
  C   C5033     1.0  0.95740  0.35105  0.27759  1.0000
  C   C5034     1.0  0.97138  0.36058  0.26523  1.0000
  P   P166      1.0  0.95310  0.33006  0.27281  1.0000
  C   C5035     1.0  0.97473  0.31888  0.25883  1.0000
  C   C5036     1.0  0.94760  0.31317  0.29500  1.0000
  C   C5037     1.0  0.95647  0.31160  0.30991  1.0000
  C   C5038     1.0  0.95343  0.29778  0.32669  1.0000
  C   C5039     1.0  0.94147  0.28539  0.32878  1.0000
  C   C5040     1.0  0.93235  0.28700  0.31416  1.0000
  C   C5041     1.0  0.93530  0.30087  0.29731  1.0000
  H   H4010     1.0  0.81062  0.11592  0.42885  1.0000
  C   C5042     1.0  0.79820  0.15012  0.39073  1.0000
  C   C5043     1.0  0.97872  0.23645  0.25678  1.0000
  H   H4011     1.0  0.79504  0.45490  0.98157  1.0000
  C   C5044     1.0  0.96252  0.30456  0.20494  1.0000
  C   C5045     1.0  0.93405  0.33677  0.26001  1.0000
  C   C5046     1.0  0.92105  0.35433  0.26027  1.0000
  C   C5047     1.0  0.91823  0.33006  0.23864  1.0000
  C   C5048     1.0  0.93234  0.32457  0.24931  1.0000
  C   C5049     1.0  0.79637  0.13854  0.35616  1.0000
  H   H4012     1.0  0.84538  0.26539  0.22583  1.0000
  H   H4013     1.0  0.88541  0.45316  0.12619  1.0000
  H   H4014     1.0  0.93537  0.35138  0.30304  1.0000
  C   C5050     1.0  0.83852  0.16008  0.36842  1.0000
  H   H4015     1.0  0.96614  0.32078  0.30840  1.0000
  H   H4016     1.0  0.96070  0.29645  0.33793  1.0000
  H   H4017     1.0  0.93937  0.27445  0.34169  1.0000
  H   H4018     1.0  0.92314  0.27729  0.31595  1.0000
  H   H4019     1.0  0.92817  0.30173  0.28615  1.0000
  C   C5051     1.0  0.79731  0.48326  0.23690  1.0000
  C   C5052     1.0  0.79637  0.32921  0.23992  1.0000
  C   C5053     1.0  0.80202  0.37722  0.04431  1.0000
  C   C5054     1.0  0.79248  0.43089  0.00532  1.0000
  C   C5055     1.0  0.79348  0.18120  0.45392  1.0000
  H   H4020     1.0  0.92208  0.36409  0.26826  1.0000
  H   H4021     1.0  0.91738  0.32093  0.22988  1.0000
  H   H4022     1.0  0.94209  0.31094  0.24902  1.0000
  C   C5056     1.0  0.81717  0.26081  0.45940  1.0000
  C   C5057     1.0  0.81249  0.35708  0.17607  1.0000
  C   C5058     1.0  0.90665  0.35958  0.24993  1.0000
  C   C5059     1.0  0.95613  0.15869  0.32967  1.0000
  H   H4023     1.0  0.97569  0.17005  0.39775  1.0000
  H   H4024     1.0  0.79483  0.12994  0.31400  1.0000
  C   C5060     1.0  0.81040  0.24898  0.28409  1.0000
  S   S692      1.0  0.97390  0.37468  0.21385  1.0000
  H   H4025     1.0  0.81863  0.34306  0.26688  1.0000
  H   H4026     1.0  0.97402  0.22613  0.32503  1.0000
  H   H4027     1.0  0.95888  0.17308  0.32513  1.0000
  H   H4028     1.0  0.80546  0.40027  0.25436  1.0000
  C   C5061     1.0  0.95447  0.23235  0.22250  1.0000
  C   C5062     1.0  0.95222  0.30670  0.19111  1.0000
  C   C5063     1.0  0.94033  0.29413  0.19355  1.0000
  C   C5064     1.0  0.93845  0.27962  0.20995  1.0000
  C   C5065     1.0  0.94884  0.27723  0.22389  1.0000
  C   C5066     1.0  0.96101  0.28977  0.22122  1.0000
  P   P167      1.0  0.94539  0.25896  0.24543  1.0000
  C   C5067     1.0  0.92431  0.26734  0.26190  1.0000
  C   C5068     1.0  0.94345  0.23756  0.23942  1.0000
  C   C5069     1.0  0.93128  0.22578  0.25163  1.0000
  C   C5070     1.0  0.93013  0.20911  0.24693  1.0000
  H   H4029     1.0  0.80362  0.15318  0.32680  1.0000
  H   H4030     1.0  0.96160  0.21189  0.20463  1.0000
  C   C5071     1.0  0.97714  0.36155  0.10852  1.0000
  C   C5072     1.0  0.92208  0.25849  0.28128  1.0000
  C   C5073     1.0  0.90615  0.26519  0.29428  1.0000
  C   C5074     1.0  0.89242  0.28089  0.28811  1.0000
  C   C5075     1.0  0.89461  0.28987  0.26889  1.0000
  C   C5076     1.0  0.91030  0.28290  0.25574  1.0000
  C   C5077     1.0  0.96491  0.25343  0.25740  1.0000
  C   C5078     1.0  0.81208  0.22242  0.22295  1.0000
  C   C5079     1.0  0.97471  0.36501  0.18049  1.0000
  H   H4031     1.0  0.87188  0.22316  0.38127  1.0000
  C   C5080     1.0  0.94853  0.12183  0.34220  1.0000
  C   C5081     1.0  0.81392  0.22405  0.20341  1.0000
  C   C5082     1.0  0.93400  0.13775  0.34510  1.0000
  C   C5083     1.0  0.80610  0.34845  0.19503  1.0000
  H   H4032     1.0  0.93221  0.29587  0.18289  1.0000
  H   H4033     1.0  0.92869  0.27039  0.21183  1.0000
  C   C5084     1.0  0.79669  0.47199  0.22482  1.0000
  H   H4034     1.0  0.92269  0.22928  0.26485  1.0000
  H   H4035     1.0  0.92088  0.20000  0.25656  1.0000
  C   C5085     1.0  0.92687  0.42379  0.13512  1.0000
  H   H4036     1.0  0.80642  0.46610  0.19681  1.0000
  C   C5086     1.0  0.82438  0.35848  0.06435  1.0000
  H   H4037     1.0  0.93253  0.24623  0.28637  1.0000
  H   H4038     1.0  0.90444  0.25805  0.30915  1.0000
  H   H4039     1.0  0.87987  0.28583  0.29814  1.0000
  H   H4040     1.0  0.88383  0.30189  0.26408  1.0000
  H   H4041     1.0  0.91122  0.28953  0.24085  1.0000
  C   C5087     1.0  0.79696  0.20998  0.46101  1.0000
  H   H4042     1.0  0.81637  0.33975  0.20342  1.0000
  C   C5088     1.0  0.91428  0.43826  0.12556  1.0000
  H   H4043     1.0  0.96916  0.28836  0.23172  1.0000
  H   H4044     1.0  0.95329  0.31825  0.17858  1.0000
  C   C5089     1.0  0.83519  0.27142  0.21670  1.0000
  P   P168      1.0  0.82240  0.23733  0.23122  1.0000
  H   H4045     1.0  0.81252  0.40379  0.16469  1.0000
  H   H4046     1.0  0.97838  0.22670  0.24848  1.0000
  C   C5090     1.0  0.90113  0.41786  0.16198  1.0000
  S   S693      1.0  0.98855  0.26551  0.36577  1.0000
  H   H4047     1.0  0.94560  0.10753  0.34726  1.0000
  C   C5091     1.0  0.81019  0.24102  0.25463  1.0000
  C   C5092     1.0  0.82212  0.29796  0.19352  1.0000
  C   C5093     1.0  0.79757  0.42467  0.05099  1.0000
  H   H4048     1.0  0.79191  0.22063  0.46967  1.0000
  C   C5094     1.0  0.86159  0.41494  0.13764  1.0000
  H   H4049     1.0  0.94003  0.19122  0.22640  1.0000
  C   C5095     1.0  0.84077  0.14089  0.34593  1.0000
  H   H4050     1.0  0.95785  0.37172  0.06955  1.0000
  H   H4051     1.0  0.80442  0.37454  0.15010  1.0000
  H   H4052     1.0  0.96662  0.39625  0.28794  1.0000
  H   H4053     1.0  0.82124  0.23449  0.19307  1.0000
  H   H4054     1.0  0.96405  0.24115  0.21293  1.0000
  H   H4055     1.0  0.82791  0.39329  0.13466  1.0000
  C   C5096     1.0  0.89508  0.44248  0.13415  1.0000
  C   C5097     1.0  0.93783  0.15618  0.33889  1.0000
  H   H4056     1.0  0.94165  0.42016  0.12832  1.0000
  H   H4057     1.0  0.82231  0.31211  0.18451  1.0000
  H   H4058     1.0  0.85950  0.39959  0.11769  1.0000
  H   H4059     1.0  0.94148  0.37990  0.30969  1.0000
  H   H4060     1.0  0.96590  0.20488  0.39735  1.0000
  H   H4061     1.0  0.97781  0.21632  0.46111  1.0000
  H   H4062     1.0  0.79592  0.36159  0.02662  1.0000
  H   H4063     1.0  0.80309  0.20553  0.25101  1.0000
  H   H4064     1.0  0.79567  0.26125  0.34506  1.0000
  H   H4065     1.0  0.80312  0.34364  0.11062  1.0000
  H   H4066     1.0  0.96553  0.18920  0.26054  1.0000
  H   H4067     1.0  0.97695  0.38716  0.12884  1.0000
  C   C5098     1.0  0.79953  0.43958  0.98658  1.0000
  H   H4068     1.0  0.79718  0.31055  0.00446  1.0000
  H   H4069     1.0  0.79865  0.29432  0.18420  1.0000
  H   H4070     1.0  0.80100  0.22337  0.33295  1.0000
  S   S694      1.0  0.79920  0.30461  0.13090  1.0000
  H   H4071     1.0  0.80261  0.15028  0.28010  1.0000
  C   C5099     1.0  0.79989  0.24925  0.35616  1.0000
  C   C5100     1.0  0.81196  0.37560  0.05847  1.0000
  C   C5101     1.0  0.79815  0.14113  0.33650  1.0000
  H   H4072     1.0  0.81294  0.29112  0.38783  1.0000
  H   H4073     1.0  0.80689  0.44194  0.06446  1.0000
  H   H4074     1.0  0.88574  0.46007  0.22112  1.0000
  C   C5102     1.0  0.79951  0.36818  0.16488  1.0000
  C   C5103     1.0  0.97773  0.17073  0.28383  1.0000
  C   C5104     1.0  0.80645  0.27997  0.39800  1.0000
  C   C5105     1.0  0.97965  0.26080  0.27922  1.0000
  C   C5106     1.0  0.98642  0.37321  0.06901  1.0000
  H   H4075     1.0  0.81419  0.27141  0.44683  1.0000
  H   H4076     1.0  0.97977  0.27004  0.28821  1.0000
  H   H4077     1.0  0.79773  0.26224  0.20514  1.0000
  C   C5107     1.0  0.79217  0.22848  0.38691  1.0000
  H   H4078     1.0  0.97793  0.11179  0.33116  1.0000
  H   H4079     1.0  0.98553  0.38400  0.25940  1.0000
  H   H4080     1.0  0.98696  0.22131  0.40509  1.0000
  C   C5108     1.0  0.79804  0.41100  0.01191  1.0000
  C   C5109     1.0  0.98898  0.30604  0.26769  1.0000
  H   H4081     1.0  0.98959  0.36552  0.17679  1.0000
  C   C5110     1.0  0.98873  0.39214  0.13032  1.0000
  C   C5111     1.0  0.79538  0.43571  0.06427  1.0000
  C   C5112     1.0  0.78996  0.25065  0.42356  1.0000
  H   H4082     1.0  0.86241  0.34243  0.88778  1.0000
  H   H4083     1.0  0.81736  0.43521  0.95966  1.0000
  C   C5113     1.0  0.96275  0.33420  0.74626  1.0000
  S   S695      1.0  0.81327  0.44694  0.73742  1.0000
  S   S696      1.0  0.81134  0.30744  0.90201  1.0000
  H   H4084     1.0  0.91691  0.39293  0.76815  1.0000
  C   C5114     1.0  0.94291  0.38178  0.75021  1.0000
  C   C5115     1.0  0.88304  0.42268  0.89247  1.0000
  H   H4085     1.0  0.83553  0.22980  0.55937  1.0000
  C   C5116     1.0  0.92685  0.24111  0.67022  1.0000
  C   C5117     1.0  0.96318  0.31617  0.75853  1.0000
  H   H4086     1.0  0.95132  0.43375  0.73622  1.0000
  H   H4087     1.0  0.86647  0.16125  0.65819  1.0000
  H   H4088     1.0  0.94521  0.41661  0.79107  1.0000
  Fe  Fe350     1.0  0.89130  0.36514  0.76594  1.0000
  S   S697      1.0  0.89246  0.36437  0.79575  1.0000
  S   S698      1.0  0.89277  0.39158  0.74282  1.0000
  Fe  Fe351     1.0  0.88666  0.32400  0.77479  1.0000
  S   S699      1.0  0.88690  0.31980  0.80563  1.0000
  S   S700      1.0  0.88721  0.29937  0.76220  1.0000
  Fe  Fe352     1.0  0.86836  0.34907  0.80351  1.0000
  S   S701      1.0  0.84178  0.35921  0.82368  1.0000
  Fe  Fe353     1.0  0.91112  0.33519  0.79528  1.0000
  S   S702      1.0  0.93634  0.32200  0.80931  1.0000
  S   S703      1.0  0.86590  0.35202  0.77349  1.0000
  S   S704      1.0  0.91225  0.33733  0.76451  1.0000
  C   C5118     1.0  0.84609  0.12584  0.64728  1.0000
  C   C5119     1.0  0.85367  0.21579  0.57945  1.0000
  H   H4089     1.0  0.85428  0.43189  0.88834  1.0000
  C   C5120     1.0  0.80798  0.39804  0.89967  1.0000
  H   H4090     1.0  0.97109  0.39278  0.80455  1.0000
  C   C5121     1.0  0.96306  0.36555  0.67089  1.0000
  H   H4091     1.0  0.80919  0.42644  0.88194  1.0000
  H   H4092     1.0  0.79219  0.25549  0.79260  1.0000
  H   H4093     1.0  0.82871  0.41465  0.85359  1.0000
  C   C5122     1.0  0.87679  0.36417  0.86853  1.0000
  S   S705      1.0  0.80875  0.26533  0.57050  1.0000
  P   P169      1.0  0.79465  0.38240  0.74847  1.0000
  C   C5123     1.0  0.84061  0.25745  0.80313  1.0000
  C   C5124     1.0  0.87290  0.21383  0.64547  1.0000
  H   H4094     1.0  0.86007  0.41544  0.86220  1.0000
  C   C5125     1.0  0.82423  0.23407  0.49257  1.0000
  C   C5126     1.0  0.82444  0.37181  0.88382  1.0000
  Fe  Fe354     1.0  0.82871  0.26966  0.70991  1.0000
  S   S706      1.0  0.84825  0.24099  0.71603  1.0000
  S   S707      1.0  0.82070  0.29117  0.72888  1.0000
  Fe  Fe355     1.0  0.81941  0.26111  0.67527  1.0000
  S   S708      1.0  0.83862  0.23207  0.67876  1.0000
  S   S709      1.0  0.79766  0.27117  0.65643  1.0000
  Fe  Fe356     1.0  0.82619  0.22921  0.70987  1.0000
  S   S710      1.0  0.81215  0.20537  0.72893  1.0000
  Fe  Fe357     1.0  0.85899  0.24681  0.68433  1.0000
  S   S711      1.0  0.80585  0.25740  0.70628  1.0000
  S   S712      1.0  0.84052  0.27631  0.67843  1.0000
  H   H4095     1.0  0.88950  0.16987  0.67104  1.0000
  C   C5127     1.0  0.81356  0.43312  0.91704  1.0000
  H   H4096     1.0  0.85076  0.22051  0.62995  1.0000
  H   H4097     1.0  0.82583  0.42180  0.91431  1.0000
  C   C5128     1.0  0.81636  0.26702  0.47577  1.0000
  S   S713      1.0  0.81109  0.13663  0.69427  1.0000
  C   C5129     1.0  0.93273  0.41490  0.75326  1.0000
  H   H4098     1.0  0.79797  0.34881  0.79628  1.0000
  C   C5130     1.0  0.83656  0.22083  0.57332  1.0000
  C   C5131     1.0  0.81156  0.18757  0.71765  1.0000
  H   H4099     1.0  0.81861  0.25848  0.50520  1.0000
  H   H4100     1.0  0.80233  0.47986  0.92072  1.0000
  C   C5132     1.0  0.81093  0.15670  0.70273  1.0000
  C   C5133     1.0  0.82747  0.16396  0.69843  1.0000
  C   C5134     1.0  0.82771  0.17957  0.70564  1.0000
  C   C5135     1.0  0.85355  0.22663  0.79404  1.0000
  C   C5136     1.0  0.94181  0.40614  0.80403  1.0000
  H   H4101     1.0  0.84018  0.15740  0.68971  1.0000
  H   H4102     1.0  0.84057  0.18498  0.70243  1.0000
  C   C5137     1.0  0.93775  0.24103  0.69820  1.0000
  C   C5138     1.0  0.91892  0.24284  0.70842  1.0000
  C   C5139     1.0  0.90412  0.24364  0.69965  1.0000
  C   C5140     1.0  0.90806  0.24251  0.68057  1.0000
  H   H4103     1.0  0.91577  0.24347  0.72325  1.0000
  H   H4104     1.0  0.88972  0.24492  0.70772  1.0000
  C   C5141     1.0  0.80570  0.26556  0.59478  1.0000
  C   C5142     1.0  0.95899  0.38294  0.67664  1.0000
  H   H4105     1.0  0.81263  0.28218  0.47579  1.0000
  C   C5143     1.0  0.80137  0.26847  0.63278  1.0000
  C   C5144     1.0  0.81923  0.26123  0.62257  1.0000
  C   C5145     1.0  0.82142  0.26005  0.60352  1.0000
  C   C5146     1.0  0.87308  0.34566  0.87509  1.0000
  H   H4106     1.0  0.79566  0.08945  0.76932  1.0000
  H   H4107     1.0  0.83138  0.25703  0.62918  1.0000
  H   H4108     1.0  0.83532  0.25494  0.59551  1.0000
  C   C5147     1.0  0.82478  0.39729  0.72279  1.0000
  H   H4109     1.0  0.85849  0.23346  0.81829  1.0000
  C   C5148     1.0  0.81670  0.36581  0.96102  1.0000
  C   C5149     1.0  0.81394  0.37831  0.94375  1.0000
  H   H4110     1.0  0.95610  0.23903  0.67099  1.0000
  C   C5150     1.0  0.81894  0.38130  0.73583  1.0000
  H   H4111     1.0  0.95108  0.34046  0.73909  1.0000
  H   H4112     1.0  0.98394  0.21311  0.49306  1.0000
  H   H4113     1.0  0.82531  0.37763  0.93138  1.0000
  C   C5151     1.0  0.85358  0.12054  0.62978  1.0000
  H   H4114     1.0  0.82737  0.40010  0.97108  1.0000
  H   H4115     1.0  0.87451  0.22859  0.64239  1.0000
  C   C5152     1.0  0.80217  0.25465  0.87831  1.0000
  C   C5153     1.0  0.82518  0.22780  0.47620  1.0000
  C   C5154     1.0  0.86809  0.29708  0.75396  1.0000
  C   C5155     1.0  0.85061  0.30993  0.75597  1.0000
  C   C5156     1.0  0.83594  0.30787  0.74854  1.0000
  C   C5157     1.0  0.83887  0.29317  0.73882  1.0000
  C   C5158     1.0  0.85625  0.28018  0.73718  1.0000
  C   C5159     1.0  0.87068  0.28198  0.74494  1.0000
  H   H4116     1.0  0.84846  0.32142  0.76316  1.0000
  H   H4117     1.0  0.82245  0.31783  0.75010  1.0000
  H   H4118     1.0  0.85872  0.26881  0.72975  1.0000
  H   H4119     1.0  0.88404  0.27177  0.74359  1.0000
  C   C5160     1.0  0.83304  0.34340  0.84424  1.0000
  C   C5161     1.0  0.84422  0.32578  0.85115  1.0000
  C   C5162     1.0  0.83736  0.31447  0.86879  1.0000
  C   C5163     1.0  0.81925  0.32066  0.87927  1.0000
  C   C5164     1.0  0.80778  0.33779  0.87183  1.0000
  C   C5165     1.0  0.81474  0.34923  0.85444  1.0000
  H   H4120     1.0  0.85834  0.32124  0.84327  1.0000
  H   H4121     1.0  0.84622  0.30117  0.87451  1.0000
  C   C5166     1.0  0.81980  0.25367  0.49236  1.0000
  H   H4122     1.0  0.80608  0.36288  0.84912  1.0000
  C   C5167     1.0  0.85131  0.36301  0.73009  1.0000
  H   H4123     1.0  0.80561  0.16912  0.64010  1.0000
  C   C5168     1.0  0.85472  0.20469  0.59769  1.0000
  H   H4124     1.0  0.85629  0.16450  0.60127  1.0000
  H   H4125     1.0  0.98379  0.29453  0.63178  1.0000
  C   C5169     1.0  0.96913  0.36173  0.78644  1.0000
  C   C5170     1.0  0.95374  0.35251  0.79174  1.0000
  C   C5171     1.0  0.95537  0.33395  0.80290  1.0000
  C   C5172     1.0  0.97236  0.32478  0.80911  1.0000
  C   C5173     1.0  0.97820  0.30779  0.76789  1.0000
  H   H4126     1.0  0.96775  0.37611  0.77777  1.0000
  H   H4127     1.0  0.94051  0.35978  0.78746  1.0000
  H   H4128     1.0  0.97365  0.31042  0.81784  1.0000
  C   C5174     1.0  0.95955  0.38583  0.73743  1.0000
  C   C5175     1.0  0.81308  0.20120  0.66130  1.0000
  C   C5176     1.0  0.83559  0.43269  0.74033  1.0000
  C   C5177     1.0  0.83808  0.41929  0.75723  1.0000
  C   C5178     1.0  0.85567  0.40657  0.75825  1.0000
  C   C5179     1.0  0.87085  0.40770  0.74255  1.0000
  C   C5180     1.0  0.86851  0.42170  0.72605  1.0000
  C   C5181     1.0  0.85088  0.43398  0.72486  1.0000
  H   H4129     1.0  0.82631  0.41839  0.76925  1.0000
  H   H4130     1.0  0.85748  0.39590  0.77112  1.0000
  H   H4131     1.0  0.88021  0.42270  0.71396  1.0000
  H   H4132     1.0  0.84900  0.44436  0.71182  1.0000
  H   H4133     1.0  0.83647  0.14905  0.66184  1.0000
  C   C5182     1.0  0.83849  0.19900  0.61007  1.0000
  C   C5183     1.0  0.84236  0.14510  0.64825  1.0000
  H   H4134     1.0  0.86738  0.38135  0.82698  1.0000
  C   C5184     1.0  0.86817  0.17594  0.65439  1.0000
  S   S714      1.0  0.88997  0.24255  0.66924  1.0000
  H   H4135     1.0  0.84431  0.39984  0.80723  1.0000
  C   C5185     1.0  0.81611  0.45113  0.91722  1.0000
  C   C5186     1.0  0.97719  0.34416  0.74348  1.0000
  H   H4136     1.0  0.88048  0.42993  0.90400  1.0000
  C   C5187     1.0  0.82056  0.21468  0.58537  1.0000
  H   H4137     1.0  0.92999  0.24032  0.65544  1.0000
  C   C5188     1.0  0.79855  0.17030  0.81406  1.0000
  C   C5189     1.0  0.81954  0.24746  0.84786  1.0000
  H   H4138     1.0  0.97425  0.33511  0.67790  1.0000
  C   C5190     1.0  0.80839  0.18344  0.78053  1.0000
  H   H4139     1.0  0.80777  0.36801  0.91213  1.0000
  H   H4140     1.0  0.84046  0.43507  0.79665  1.0000
  C   C5191     1.0  0.86830  0.42376  0.88371  1.0000
  C   C5192     1.0  0.82445  0.26553  0.84214  1.0000
  H   H4141     1.0  0.85984  0.45201  0.80617  1.0000
  H   H4142     1.0  0.80195  0.28252  0.88228  1.0000
  C   C5193     1.0  0.80676  0.27274  0.87264  1.0000
  H   H4143     1.0  0.79272  0.21368  0.68328  1.0000
  H   H4144     1.0  0.81828  0.19017  0.76881  1.0000
  S   S715      1.0  0.79464  0.23400  0.54517  1.0000
  C   C5194     1.0  0.90115  0.41230  0.88629  1.0000
  C   C5195     1.0  0.82499  0.40452  0.86678  1.0000
  H   H4145     1.0  0.80727  0.21860  0.58070  1.0000
  C   C5196     1.0  0.79834  0.06433  0.65845  1.0000
  H   H4146     1.0  0.79909  0.09983  0.59007  1.0000
  H   H4147     1.0  0.87989  0.31705  0.87006  1.0000
  C   C5197     1.0  0.91847  0.39223  0.82980  1.0000
  C   C5198     1.0  0.93329  0.37838  0.83692  1.0000
  H   H4148     1.0  0.90403  0.32436  0.84075  1.0000
  H   H4149     1.0  0.80895  0.19900  0.61249  1.0000
  C   C5199     1.0  0.85070  0.42706  0.80537  1.0000
  H   H4150     1.0  0.82113  0.29235  0.85049  1.0000
  H   H4151     1.0  0.88327  0.43370  0.82601  1.0000
  C   C5200     1.0  0.83234  0.36414  0.73939  1.0000
  C   C5201     1.0  0.94905  0.41920  0.74023  1.0000
  H   H4152     1.0  0.91875  0.39521  0.86675  1.0000
  C   C5202     1.0  0.98616  0.35260  0.79254  1.0000
  C   C5203     1.0  0.90023  0.35391  0.84197  1.0000
  C   C5204     1.0  0.95641  0.39273  0.81162  1.0000
  C   C5205     1.0  0.79739  0.31882  0.80364  1.0000
  C   C5206     1.0  0.83432  0.25194  0.77488  1.0000
  H   H4153     1.0  0.79385  0.25036  0.89239  1.0000
  C   C5207     1.0  0.88292  0.33132  0.86511  1.0000
  H   H4154     1.0  0.82311  0.18305  0.80187  1.0000
  C   C5208     1.0  0.83030  0.38486  0.86726  1.0000
  C   C5209     1.0  0.96285  0.38341  0.69384  1.0000
  C   C5210     1.0  0.91003  0.37145  0.68461  1.0000
  C   C5211     1.0  0.91410  0.37638  0.69967  1.0000
  C   C5212     1.0  0.92234  0.36211  0.71337  1.0000
  C   C5213     1.0  0.92652  0.34290  0.71209  1.0000
  C   C5214     1.0  0.92283  0.33782  0.69683  1.0000
  C   C5215     1.0  0.91424  0.35223  0.68326  1.0000
  P   P170      1.0  0.92693  0.31295  0.69560  1.0000
  C   C5216     1.0  0.93563  0.29716  0.71597  1.0000
  C   C5217     1.0  0.90444  0.30869  0.69490  1.0000
  C   C5218     1.0  0.90341  0.29564  0.68477  1.0000
  C   C5219     1.0  0.88577  0.29317  0.68384  1.0000
  C   C5220     1.0  0.86912  0.30371  0.69294  1.0000
  C   C5221     1.0  0.87004  0.31651  0.70324  1.0000
  C   C5222     1.0  0.88761  0.31876  0.70451  1.0000
  C   C5223     1.0  0.92517  0.28407  0.72866  1.0000
  C   C5224     1.0  0.93239  0.27135  0.74392  1.0000
  C   C5225     1.0  0.95018  0.27147  0.74652  1.0000
  C   C5226     1.0  0.96075  0.28441  0.73391  1.0000
  C   C5227     1.0  0.95355  0.29718  0.71862  1.0000
  C   C5228     1.0  0.94465  0.30754  0.67501  1.0000
  C   C5229     1.0  0.95321  0.28834  0.67450  1.0000
  C   C5230     1.0  0.96705  0.28369  0.65886  1.0000
  C   C5231     1.0  0.97269  0.29819  0.64367  1.0000
  C   C5232     1.0  0.96439  0.31738  0.64408  1.0000
  C   C5233     1.0  0.95036  0.32207  0.65965  1.0000
  H   H4155     1.0  0.90323  0.38247  0.67423  1.0000
  H   H4156     1.0  0.91046  0.39119  0.70109  1.0000
  H   H4157     1.0  0.92501  0.36598  0.72528  1.0000
  H   H4158     1.0  0.93205  0.33205  0.72333  1.0000
  H   H4159     1.0  0.91044  0.34850  0.67187  1.0000
  H   H4160     1.0  0.91608  0.28717  0.67775  1.0000
  H   H4161     1.0  0.88502  0.28290  0.67621  1.0000
  H   H4162     1.0  0.85545  0.30162  0.69248  1.0000
  H   H4163     1.0  0.85710  0.32424  0.71073  1.0000
  H   H4164     1.0  0.88802  0.32821  0.71316  1.0000
  H   H4165     1.0  0.91154  0.28345  0.72675  1.0000
  H   H4166     1.0  0.92423  0.26119  0.75352  1.0000
  H   H4167     1.0  0.95596  0.26129  0.75808  1.0000
  H   H4168     1.0  0.97475  0.28410  0.73575  1.0000
  H   H4169     1.0  0.96210  0.30678  0.70867  1.0000
  H   H4170     1.0  0.94921  0.27691  0.68626  1.0000
  H   H4171     1.0  0.83027  0.45380  0.91443  1.0000
  H   H4172     1.0  0.94427  0.33698  0.65964  1.0000
  H   H4173     1.0  0.81927  0.38760  0.80185  1.0000
  H   H4174     1.0  0.86163  0.34984  0.73320  1.0000
  H   H4175     1.0  0.98079  0.33586  0.70826  1.0000
  C   C5234     1.0  0.83231  0.26409  0.78708  1.0000
  H   H4176     1.0  0.82817  0.35174  0.74963  1.0000
  H   H4177     1.0  0.96355  0.36780  0.83318  1.0000
  P   P171      1.0  0.83874  0.27297  0.81893  1.0000
  C   C5235     1.0  0.86244  0.27272  0.82087  1.0000
  C   C5236     1.0  0.87761  0.27006  0.80546  1.0000
  C   C5237     1.0  0.89602  0.26981  0.80668  1.0000
  C   C5238     1.0  0.89948  0.27218  0.82331  1.0000
  C   C5239     1.0  0.88446  0.27490  0.83873  1.0000
  C   C5240     1.0  0.86601  0.27522  0.83753  1.0000
  H   H4178     1.0  0.83149  0.34354  0.79795  1.0000
  C   C5241     1.0  0.87744  0.40605  0.82765  1.0000
  H   H4179     1.0  0.82480  0.27874  0.78342  1.0000
  H   H4180     1.0  0.87524  0.26852  0.79229  1.0000
  H   H4181     1.0  0.90751  0.26835  0.79444  1.0000
  H   H4182     1.0  0.91371  0.27245  0.82403  1.0000
  H   H4183     1.0  0.88711  0.27710  0.85149  1.0000
  H   H4184     1.0  0.85469  0.27755  0.84959  1.0000
  C   C5242     1.0  0.95215  0.37866  0.82785  1.0000
  H   H4185     1.0  0.89370  0.20351  0.66304  1.0000
  H   H4186     1.0  0.84825  0.40849  0.70353  1.0000
  C   C5243     1.0  0.85351  0.15387  0.61424  1.0000
  C   C5244     1.0  0.84597  0.15927  0.63180  1.0000
  C   C5245     1.0  0.85705  0.37900  0.71719  1.0000
  C   C5246     1.0  0.81386  0.41113  0.88291  1.0000
  H   H4187     1.0  0.86303  0.13049  0.59967  1.0000
  C   C5247     1.0  0.79137  0.12874  0.57467  1.0000
  H   H4188     1.0  0.86225  0.21231  0.79638  1.0000
  H   H4189     1.0  0.82816  0.25725  0.76232  1.0000
  H   H4190     1.0  0.85003  0.31073  0.80666  1.0000
  H   H4191     1.0  0.81489  0.41084  0.72010  1.0000
  H   H4192     1.0  0.93032  0.36738  0.84954  1.0000
  C   C5248     1.0  0.88131  0.18075  0.66169  1.0000
  H   H4193     1.0  0.95170  0.30880  0.76108  1.0000
  H   H4194     1.0  0.95279  0.39606  0.66779  1.0000
  C   C5249     1.0  0.87169  0.41450  0.86874  1.0000
  C   C5250     1.0  0.79496  0.35349  0.73104  1.0000
  C   C5251     1.0  0.94166  0.24044  0.67898  1.0000
  C   C5252     1.0  0.88371  0.19967  0.65719  1.0000
  C   C5253     1.0  0.85951  0.20916  0.63841  1.0000
  C   C5254     1.0  0.89648  0.33545  0.84858  1.0000
  H   H4195     1.0  0.80054  0.28830  0.81302  1.0000
  C   C5255     1.0  0.80876  0.38449  0.77891  1.0000
  H   H4196     1.0  0.92226  0.42607  0.75928  1.0000
  H   H4197     1.0  0.85644  0.10560  0.62902  1.0000
  H   H4198     1.0  0.86816  0.20069  0.60213  1.0000
  C   C5256     1.0  0.92972  0.39620  0.75828  1.0000
  C   C5257     1.0  0.82151  0.20372  0.60360  1.0000
  C   C5258     1.0  0.84375  0.39603  0.71337  1.0000
  C   C5259     1.0  0.85731  0.13455  0.61327  1.0000
  S   S716      1.0  0.80455  0.46324  0.78604  1.0000
  H   H4199     1.0  0.97480  0.40846  0.72204  1.0000
  H   H4200     1.0  0.82350  0.20887  0.66137  1.0000
  H   H4201     1.0  0.97842  0.29393  0.77759  1.0000
  H   H4202     1.0  0.84699  0.22416  0.76842  1.0000
  C   C5260     1.0  0.81110  0.17941  0.79913  1.0000
  C   C5261     1.0  0.80690  0.38729  0.79711  1.0000
  H   H4203     1.0  0.82277  0.38255  0.76995  1.0000
  H   H4204     1.0  0.84299  0.11514  0.66017  1.0000
  C   C5262     1.0  0.81705  0.18844  0.64918  1.0000
  P   P172      1.0  0.97686  0.36720  0.72710  1.0000
  H   H4205     1.0  0.95971  0.39703  0.69797  1.0000
  C   C5263     1.0  0.82665  0.29703  0.81015  1.0000
  C   C5264     1.0  0.86168  0.43655  0.81072  1.0000
  C   C5265     1.0  0.81774  0.27822  0.85461  1.0000
  C   C5266     1.0  0.92290  0.40589  0.81303  1.0000
  C   C5267     1.0  0.85289  0.40718  0.81130  1.0000
  H   H4206     1.0  0.81450  0.10588  0.64335  1.0000
  C   C5268     1.0  0.79266  0.38475  0.77243  1.0000
  H   H4207     1.0  0.91378  0.98806  0.58758  1.0000
  H   H4208     1.0  0.82423  0.23747  0.83855  1.0000
  H   H4209     1.0  0.87942  0.99627  0.60141  1.0000
  C   C5269     1.0  0.80300  0.17889  0.64944  1.0000
  C   C5270     1.0  0.80756  0.30024  0.80917  1.0000
  H   H4210     1.0  0.94000  0.36754  0.75413  1.0000
  C   C5271     1.0  0.96237  0.40477  0.73227  1.0000
  C   C5272     1.0  0.83538  0.31273  0.80583  1.0000
  H   H4211     1.0  0.82854  0.21255  0.47665  1.0000
  P   P173      1.0  0.89418  0.39267  0.84259  1.0000
  C   C5273     1.0  0.88992  0.40426  0.86224  1.0000
  C   C5274     1.0  0.87495  0.42612  0.82188  1.0000
  H   H4212     1.0  0.80543  0.12897  0.56595  1.0000
  C   C5275     1.0  0.85139  0.23866  0.80640  1.0000
  C   C5276     1.0  0.80664  0.09524  0.64401  1.0000
  C   C5277     1.0  0.82499  0.33136  0.80074  1.0000
  H   H4213     1.0  0.79372  0.34255  0.87970  1.0000
  C   C5278     1.0  0.84498  0.23327  0.77829  1.0000
  S   S717      1.0  0.95584  0.23906  0.71030  1.0000
  C   C5279     1.0  0.89050  0.36841  0.85198  1.0000
  C   C5280     1.0  0.97471  0.34907  0.69959  1.0000
  H   H4214     1.0  0.83838  0.37972  0.85460  1.0000
  H   H4215     1.0  0.86876  0.37515  0.87627  1.0000
  H   H4216     1.0  0.87185  0.37831  0.71046  1.0000
  H   H4217     1.0  0.91066  0.35679  0.82897  1.0000
  C   C5281     1.0  0.79501  0.18043  0.72178  1.0000
  Fe  Fe358     1.0  0.79441  0.45671  0.76333  1.0000
  H   H4218     1.0  0.91193  0.41635  0.80676  1.0000
  C   C5282     1.0  0.80604  0.33438  0.79969  1.0000
  H   H4219     1.0  0.81893  0.07464  0.66634  1.0000
  H   H4220     1.0  0.86603  0.22068  0.57013  1.0000
  C   C5283     1.0  0.85722  0.19010  0.64260  1.0000
  P   P174      1.0  0.83990  0.18418  0.63338  1.0000
  C   C5284     1.0  0.81301  0.37835  0.89982  1.0000
  Fe  Fe359     1.0  0.98664  0.24118  0.69804  1.0000
  C   C5285     1.0  0.86612  0.39672  0.82245  1.0000
  H   H4221     1.0  0.79461  0.32585  0.84519  1.0000
  H   H4222     1.0  0.91261  0.41144  0.89307  1.0000
  C   C5286     1.0  0.90460  0.40311  0.87126  1.0000
  C   C5287     1.0  0.79551  0.20402  0.67377  1.0000
  H   H4223     1.0  0.82823  0.35660  0.88405  1.0000
  C   C5288     1.0  0.97061  0.36643  0.70554  1.0000
  H   H4224     1.0  0.96900  0.32857  0.63236  1.0000
  H   H4225     1.0  0.82654  0.22375  0.50556  1.0000
  C   C5289     1.0  0.80912  0.07767  0.65698  1.0000
  H   H4226     1.0  0.97357  0.26882  0.65866  1.0000
  C   C5290     1.0  0.97097  0.34862  0.68235  1.0000
  H   H4227     1.0  0.79526  0.15892  0.61200  1.0000
  C   C5291     1.0  0.79524  0.42980  0.92012  1.0000
  H   H4228     1.0  0.96007  0.36520  0.65758  1.0000
  C   C5292     1.0  0.98777  0.33405  0.80388  1.0000
  C   C5293     1.0  0.79460  0.16518  0.71416  1.0000
  H   H4229     1.0  0.80088  0.16679  0.82843  1.0000
  C   C5294     1.0  0.80844  0.24207  0.86590  1.0000
  H   H4230     1.0  0.80359  0.36092  0.71865  1.0000
  H   H4231     1.0  0.79654  0.33055  0.71761  1.0000
  C   C5295     1.0  0.79651  0.39118  0.94251  1.0000
  H   H4232     1.0  0.79979  0.05097  0.66897  1.0000
  H   H4233     1.0  0.80486  0.22804  0.87035  1.0000
  C   C5296     1.0  0.79318  0.09958  0.63272  1.0000
  H   H4234     1.0  0.82986  0.35536  0.96174  1.0000
  H   H4235     1.0  0.79892  0.11920  0.74462  1.0000
  C   C5297     1.0  0.80038  0.46581  0.92082  1.0000
  C   C5298     1.0  0.79083  0.12003  0.75887  1.0000
  C   C5299     1.0  0.79309  0.17853  0.77685  1.0000
  H   H4236     1.0  0.79159  0.18134  0.76227  1.0000
  H   H4237     1.0  0.79178  0.40042  0.86184  1.0000
  P   P175      1.0  0.79220  0.40647  0.91999  1.0000
  C   C5300     1.0  0.79087  0.33637  0.73032  1.0000
  H   H4238     1.0  0.79084  0.11371  0.62358  1.0000
  C   C5301     1.0  0.81210  0.42850  0.97424  1.0000
  H   H4239     1.0  0.78984  0.23868  0.82643  1.0000
  H   H4240     1.0  0.86097  0.72395  0.99327  1.0000
  C   C5302     1.0  0.79476  0.88500  0.23873  1.0000
  P   P176      1.0  0.83559  0.51583  0.20367  1.0000
  C   C5303     1.0  0.85876  0.50054  0.19909  1.0000
  H   H4241     1.0  0.78994  0.72841  0.17677  1.0000
  S   S718      1.0  0.81645  0.60804  0.22306  1.0000
  C   C5304     1.0  0.87858  0.86541  0.42013  1.0000
  H   H4242     1.0  0.89447  0.91287  0.34584  1.0000
  C   C5305     1.0  0.84821  0.75162  0.33502  1.0000
  H   H4243     1.0  0.98266  0.79802  0.28950  1.0000
  S   S719      1.0  0.95482  0.75551  0.21448  1.0000
  H   H4244     1.0  0.88362  0.79355  0.39920  1.0000
  Fe  Fe360     1.0  0.83402  0.74179  0.24494  1.0000
  S   S720      1.0  0.84612  0.71019  0.24779  1.0000
  S   S721      1.0  0.82592  0.75433  0.27114  1.0000
  Fe  Fe361     1.0  0.83479  0.74800  0.20270  1.0000
  S   S722      1.0  0.84719  0.71712  0.20208  1.0000
  S   S723      1.0  0.82624  0.76984  0.17720  1.0000
  Fe  Fe362     1.0  0.82632  0.71077  0.22948  1.0000
  S   S724      1.0  0.80460  0.69240  0.23543  1.0000
  Fe  Fe363     1.0  0.86602  0.71929  0.22028  1.0000
  S   S725      1.0  0.89732  0.70540  0.21576  1.0000
  S   S726      1.0  0.81258  0.74179  0.22890  1.0000
  S   S727      1.0  0.85512  0.75086  0.21866  1.0000
  S   S728      1.0  0.83630  0.70785  0.08929  1.0000
  H   H4245     1.0  0.90932  0.84450  0.34179  1.0000
  H   H4246     1.0  0.85960  0.50669  0.14370  1.0000
  S   S729      1.0  0.83840  0.70663  0.03599  1.0000
  Fe  Fe364     1.0  0.83801  0.73788  0.08869  1.0000
  S   S730      1.0  0.86147  0.74220  0.09985  1.0000
  C   C5306     1.0  0.79603  0.83944  0.27675  1.0000
  H   H4247     1.0  0.85195  0.92253  0.41679  1.0000
  C   C5307     1.0  0.83395  0.90412  0.41662  1.0000
  C   C5308     1.0  0.84776  0.91521  0.40828  1.0000
  C   C5309     1.0  0.92739  0.81166  0.36533  1.0000
  C   C5310     1.0  0.90593  0.85930  0.34305  1.0000
  C   C5311     1.0  0.79581  0.89250  0.28093  1.0000
  H   H4248     1.0  0.94949  0.81674  0.39219  1.0000
  Fe  Fe365     1.0  0.80571  0.71704  0.10206  1.0000
  H   H4249     1.0  0.88133  0.86619  0.44790  1.0000
  Fe  Fe366     1.0  0.86675  0.82230  0.30017  1.0000
  S   S731      1.0  0.88545  0.79678  0.31464  1.0000
  S   S732      1.0  0.86077  0.82316  0.27193  1.0000
  Fe  Fe367     1.0  0.86252  0.84499  0.32950  1.0000
  S   S733      1.0  0.88102  0.82143  0.34649  1.0000
  S   S734      1.0  0.84836  0.87143  0.34120  1.0000
  Fe  Fe368     1.0  0.89988  0.81811  0.31838  1.0000
  S   S735      1.0  0.93150  0.80847  0.31529  1.0000
  Fe  Fe369     1.0  0.86518  0.80208  0.34157  1.0000
  S   S736      1.0  0.85948  0.77634  0.36457  1.0000
  S   S737      1.0  0.88286  0.84344  0.30156  1.0000
  S   S738      1.0  0.84491  0.82577  0.32683  1.0000
  C   C5312     1.0  0.82596  0.63160  0.99093  1.0000
  H   H4250     1.0  0.88939  0.82472  0.39955  1.0000
  C   C5313     1.0  0.81844  0.48844  0.19973  1.0000
  C   C5314     1.0  0.83064  0.53374  0.18274  1.0000
  C   C5315     1.0  0.83692  0.89651  0.38623  1.0000
  C   C5316     1.0  0.95595  0.82789  0.38198  1.0000
  C   C5317     1.0  0.84171  0.89240  0.32459  1.0000
  C   C5318     1.0  0.85283  0.89611  0.30629  1.0000
  C   C5319     1.0  0.84748  0.91317  0.29334  1.0000
  C   C5320     1.0  0.83078  0.92631  0.29851  1.0000
  C   C5321     1.0  0.81952  0.92246  0.31672  1.0000
  C   C5322     1.0  0.82517  0.90567  0.32985  1.0000
  H   H4251     1.0  0.86561  0.88593  0.30221  1.0000
  H   H4252     1.0  0.85616  0.91616  0.27925  1.0000
  C   C5323     1.0  0.83713  0.56276  0.15970  1.0000
  H   H4253     1.0  0.81654  0.90282  0.34401  1.0000
  C   C5324     1.0  0.97116  0.84792  0.31057  1.0000
  C   C5325     1.0  0.79799  0.56960  0.11117  1.0000
  C   C5326     1.0  0.96304  0.81653  0.32044  1.0000
  C   C5327     1.0  0.94566  0.82426  0.31481  1.0000
  C   C5328     1.0  0.94058  0.84403  0.30792  1.0000
  C   C5329     1.0  0.95327  0.85586  0.30598  1.0000
  H   H4254     1.0  0.82890  0.65587  0.99991  1.0000
  H   H4255     1.0  0.96700  0.80127  0.32594  1.0000
  H   H4256     1.0  0.92722  0.85006  0.30346  1.0000
  H   H4257     1.0  0.94952  0.87110  0.30036  1.0000
  H   H4258     1.0  0.88616  0.85836  0.20352  1.0000
  C   C5330     1.0  0.83957  0.76623  0.40047  1.0000
  C   C5331     1.0  0.83954  0.77936  0.38307  1.0000
  C   C5332     1.0  0.82377  0.79436  0.38084  1.0000
  H   H4259     1.0  0.85156  0.75443  0.40219  1.0000
  H   H4260     1.0  0.82326  0.80407  0.36719  1.0000
  C   C5333     1.0  0.82253  0.69809  0.01083  1.0000
  H   H4261     1.0  0.90609  0.66435  0.20534  1.0000
  H   H4262     1.0  0.83532  0.70033  0.00051  1.0000
  C   C5334     1.0  0.83689  0.77275  0.27086  1.0000
  C   C5335     1.0  0.83701  0.77663  0.28816  1.0000
  C   C5336     1.0  0.84489  0.79170  0.28860  1.0000
  C   C5337     1.0  0.85225  0.80334  0.27161  1.0000
  C   C5338     1.0  0.85226  0.79947  0.25422  1.0000
  C   C5339     1.0  0.84472  0.78408  0.25384  1.0000
  H   H4263     1.0  0.83093  0.76794  0.30124  1.0000
  H   H4264     1.0  0.84491  0.79453  0.30208  1.0000
  H   H4265     1.0  0.85797  0.80842  0.24105  1.0000
  H   H4266     1.0  0.84446  0.78133  0.24043  1.0000
  C   C5340     1.0  0.83649  0.76247  0.15561  1.0000
  C   C5341     1.0  0.85283  0.74801  0.15402  1.0000
  C   C5342     1.0  0.86074  0.74215  0.13673  1.0000
  C   C5343     1.0  0.85207  0.75040  0.12111  1.0000
  C   C5344     1.0  0.83590  0.76506  0.12259  1.0000
  C   C5345     1.0  0.82827  0.77125  0.13974  1.0000
  H   H4267     1.0  0.85945  0.74147  0.16608  1.0000
  H   H4268     1.0  0.87339  0.73103  0.13556  1.0000
  H   H4269     1.0  0.80791  0.84637  0.27370  1.0000
  C   C5346     1.0  0.88788  0.68205  0.98227  1.0000
  H   H4270     1.0  0.82779  0.90295  0.43156  1.0000
  C   C5347     1.0  0.91295  0.74484  0.34455  1.0000
  H   H4271     1.0  0.84522  0.57398  0.15414  1.0000
  S   S739      1.0  0.80792  0.74612  0.10360  1.0000
  H   H4272     1.0  0.95551  0.81097  0.27379  1.0000
  C   C5348     1.0  0.89790  0.87346  0.32908  1.0000
  C   C5349     1.0  0.90555  0.88378  0.35919  1.0000
  C   C5350     1.0  0.81418  0.85080  0.44921  1.0000
  H   H4273     1.0  0.85299  0.54798  0.18142  1.0000
  H   H4274     1.0  0.86818  0.83856  0.23094  1.0000
  C   C5351     1.0  0.93944  0.74108  0.21470  1.0000
  C   C5352     1.0  0.92000  0.74891  0.21763  1.0000
  C   C5353     1.0  0.90711  0.73822  0.21752  1.0000
  C   C5354     1.0  0.91348  0.71943  0.21486  1.0000
  C   C5355     1.0  0.93301  0.71152  0.21194  1.0000
  C   C5356     1.0  0.94601  0.72234  0.21182  1.0000
  H   H4275     1.0  0.91484  0.76325  0.22021  1.0000
  H   H4276     1.0  0.89222  0.74442  0.22006  1.0000
  H   H4277     1.0  0.93807  0.69698  0.20987  1.0000
  H   H4278     1.0  0.96102  0.71620  0.20954  1.0000
  C   C5357     1.0  0.81363  0.63173  0.22567  1.0000
  C   C5358     1.0  0.82915  0.63830  0.22701  1.0000
  C   C5359     1.0  0.82677  0.65701  0.22971  1.0000
  C   C5360     1.0  0.80881  0.66911  0.23126  1.0000
  C   C5361     1.0  0.98639  0.69990  0.25974  1.0000
  C   C5362     1.0  0.82713  0.62381  0.97543  1.0000
  H   H4279     1.0  0.84299  0.62889  0.22607  1.0000
  H   H4280     1.0  0.83867  0.66191  0.23106  1.0000
  H   H4281     1.0  0.80240  0.69753  0.05730  1.0000
  C   C5363     1.0  0.97462  0.76172  0.14744  1.0000
  H   H4282     1.0  0.81688  0.63619  0.11556  1.0000
  H   H4283     1.0  0.86128  0.80140  0.20908  1.0000
  H   H4284     1.0  0.84174  0.90776  0.20991  1.0000
  C   C5364     1.0  0.94779  0.77540  0.13202  1.0000
  C   C5365     1.0  0.91494  0.82310  0.37751  1.0000
  Fe  Fe370     1.0  0.82735  0.72067  0.06130  1.0000
  C   C5366     1.0  0.82638  0.66012  0.06846  1.0000
  H   H4285     1.0  0.86599  0.72894  0.32150  1.0000
  H   H4286     1.0  0.94546  0.87059  0.35102  1.0000
  C   C5367     1.0  0.81020  0.87698  0.30819  1.0000
  C   C5368     1.0  0.82737  0.87151  0.29606  1.0000
  C   C5369     1.0  0.82884  0.87644  0.27639  1.0000
  C   C5370     1.0  0.81798  0.94807  0.23672  1.0000
  C   C5371     1.0  0.81907  0.92836  0.24367  1.0000
  H   H4287     1.0  0.89605  0.79621  0.20592  1.0000
  C   C5372     1.0  0.89925  0.81634  0.38995  1.0000
  C   C5373     1.0  0.89760  0.89790  0.34513  1.0000
  H   H4288     1.0  0.93950  0.81660  0.35556  1.0000
  H   H4289     1.0  0.79651  0.89838  0.44831  1.0000
  C   C5374     1.0  0.80854  0.63924  0.06377  1.0000
  H   H4290     1.0  0.83974  0.86390  0.30192  1.0000
  H   H4291     1.0  0.84254  0.87248  0.26749  1.0000
  H   H4292     1.0  0.82392  0.95594  0.24324  1.0000
  H   H4293     1.0  0.82602  0.92121  0.25552  1.0000
  H   H4294     1.0  0.94242  0.78371  0.11953  1.0000
  C   C5375     1.0  0.83316  0.49967  0.14470  1.0000
  C   C5376     1.0  0.83636  0.72899  0.32547  1.0000
  C   C5377     1.0  0.83239  0.55483  0.24367  1.0000
  C   C5378     1.0  0.96263  0.71797  0.28115  1.0000
  C   C5379     1.0  0.80265  0.92791  0.21985  1.0000
  P   P177      1.0  0.94486  0.73939  0.28399  1.0000
  C   C5380     1.0  0.93465  0.74064  0.30844  1.0000
  C   C5381     1.0  0.95781  0.75812  0.27198  1.0000
  H   H4295     1.0  0.82734  0.67064  0.07567  1.0000
  H   H4296     1.0  0.98492  0.93129  0.42883  1.0000
  H   H4297     1.0  0.96537  0.72432  0.25058  1.0000
  C   C5382     1.0  0.96710  0.78151  0.24346  1.0000
  C   C5383     1.0  0.95456  0.76970  0.25446  1.0000
  C   C5384     1.0  0.92600  0.72580  0.32054  1.0000
  C   C5385     1.0  0.91529  0.72787  0.33857  1.0000
  C   C5386     1.0  0.92158  0.75962  0.33262  1.0000
  C   C5387     1.0  0.93237  0.75760  0.31461  1.0000
  C   C5388     1.0  0.92450  0.74093  0.27450  1.0000
  C   C5389     1.0  0.90927  0.75662  0.27619  1.0000
  C   C5390     1.0  0.89238  0.75718  0.27112  1.0000
  C   C5391     1.0  0.89047  0.74201  0.26447  1.0000
  C   C5392     1.0  0.90549  0.72623  0.26290  1.0000
  C   C5393     1.0  0.92247  0.72566  0.26787  1.0000
  H   H4298     1.0  0.79894  0.65661  0.08503  1.0000
  H   H4299     1.0  0.80932  0.87347  0.32344  1.0000
  H   H4300     1.0  0.90062  0.83075  0.10292  1.0000
  C   C5394     1.0  0.80454  0.66509  0.11968  1.0000
  Fe  Fe371     1.0  0.79268  0.60418  0.21190  1.0000
  H   H4301     1.0  0.98056  0.83194  0.21755  1.0000
  H   H4302     1.0  0.80752  0.97315  0.21681  1.0000
  C   C5395     1.0  0.79923  0.87646  0.47351  1.0000
  H   H4303     1.0  0.86003  0.75683  0.33620  1.0000
  H   H4304     1.0  0.94295  0.76888  0.24880  1.0000
  H   H4305     1.0  0.92694  0.71296  0.31573  1.0000
  H   H4306     1.0  0.90829  0.71657  0.34770  1.0000
  H   H4307     1.0  0.93812  0.76966  0.30531  1.0000
  H   H4308     1.0  0.91030  0.76819  0.28192  1.0000
  H   H4309     1.0  0.88066  0.76924  0.27262  1.0000
  H   H4310     1.0  0.87733  0.74245  0.26056  1.0000
  H   H4311     1.0  0.90400  0.71450  0.25763  1.0000
  H   H4312     1.0  0.93371  0.71314  0.26677  1.0000
  C   C5396     1.0  0.92420  0.79385  0.36545  1.0000
  H   H4313     1.0  0.89485  0.86948  0.31746  1.0000
  H   H4314     1.0  0.90559  0.77380  0.37733  1.0000
  H   H4315     1.0  0.93381  0.78534  0.35574  1.0000
  C   C5397     1.0  0.80859  0.85928  0.39060  1.0000
  C   C5398     1.0  0.87239  0.86480  0.21086  1.0000
  C   C5399     1.0  0.79338  0.66247  0.22992  1.0000
  H   H4316     1.0  0.81435  0.73468  0.14739  1.0000
  H   H4317     1.0  0.91595  0.85287  0.44206  1.0000
  C   C5400     1.0  0.96291  0.75275  0.16331  1.0000
  C   C5401     1.0  0.83952  0.64210  0.04370  1.0000
  C   C5402     1.0  0.85158  0.73583  0.32684  1.0000
  C   C5403     1.0  0.84445  0.86184  0.23586  1.0000
  H   H4318     1.0  0.86350  0.51956  0.22368  1.0000
  C   C5404     1.0  0.90815  0.85507  0.43103  1.0000
  C   C5405     1.0  0.81641  0.55518  0.23714  1.0000
  C   C5406     1.0  0.80854  0.79678  0.39638  1.0000
  C   C5407     1.0  0.86219  0.85361  0.22624  1.0000
  C   C5408     1.0  0.81290  0.88656  0.26863  1.0000
  H   H4319     1.0  0.82452  0.75824  0.42926  1.0000
  H   H4320     1.0  0.91928  0.77300  0.33700  1.0000
  C   C5409     1.0  0.79095  0.69149  0.01854  1.0000
  H   H4321     1.0  0.90580  0.69289  0.15109  1.0000
  C   C5410     1.0  0.80183  0.71706  0.17319  1.0000
  H   H4322     1.0  0.79291  0.69621  0.19807  1.0000
  H   H4323     1.0  0.86346  0.87111  0.42272  1.0000
  C   C5411     1.0  0.82430  0.76841  0.41582  1.0000
  C   C5412     1.0  0.94472  0.84415  0.37248  1.0000
  H   H4324     1.0  0.82268  0.62367  0.04146  1.0000
  C   C5413     1.0  0.80887  0.78378  0.41391  1.0000
  H   H4325     1.0  0.79383  0.95526  0.20183  1.0000
  H   H4326     1.0  0.91771  0.65407  0.17452  1.0000
  C   C5414     1.0  0.81897  0.86054  0.40321  1.0000
  H   H4327     1.0  0.97647  0.74969  0.29190  1.0000
  C   C5415     1.0  0.96708  0.77297  0.13177  1.0000
  C   C5416     1.0  0.80883  0.95778  0.22171  1.0000
  H   H4328     1.0  0.89247  0.74005  0.17862  1.0000
  H   H4329     1.0  0.80749  0.82927  0.31337  1.0000
  H   H4330     1.0  0.87593  0.78702  0.09664  1.0000
  H   H4331     1.0  0.83688  0.85289  0.24786  1.0000
  H   H4332     1.0  0.81907  0.84043  0.44027  1.0000
  H   H4333     1.0  0.85302  0.66205  0.04900  1.0000
  C   C5417     1.0  0.88865  0.86260  0.43432  1.0000
  C   C5418     1.0  0.87123  0.50363  0.18139  1.0000
  H   H4334     1.0  0.88196  0.82011  0.08610  1.0000
  C   C5419     1.0  0.81727  0.54259  0.22581  1.0000
  C   C5420     1.0  0.97061  0.70620  0.29647  1.0000
  C   C5421     1.0  0.79188  0.60588  0.08682  1.0000
  C   C5422     1.0  0.82845  0.89460  0.40567  1.0000
  Fe  Fe372     1.0  0.80134  0.75587  0.07454  1.0000
  C   C5423     1.0  0.84090  0.65525  0.05338  1.0000
  H   H4335     1.0  0.88851  0.76476  0.12333  1.0000
  C   C5424     1.0  0.84457  0.83592  0.39145  1.0000
  C   C5425     1.0  0.83705  0.84876  0.40354  1.0000
  C   C5426     1.0  0.80006  0.80208  0.32821  1.0000
  C   C5427     1.0  0.85615  0.91692  0.38898  1.0000
  S   S740      1.0  0.79850  0.58294  0.19347  1.0000
  H   H4336     1.0  0.85697  0.90891  0.36295  1.0000
  H   H4337     1.0  0.87008  0.77703  0.16075  1.0000
  H   H4338     1.0  0.85854  0.82699  0.39147  1.0000
  H   H4339     1.0  0.84552  0.84991  0.41276  1.0000
  H   H4340     1.0  0.86678  0.92556  0.38252  1.0000
  H   H4341     1.0  0.96515  0.70885  0.31065  1.0000
  H   H4342     1.0  0.82599  0.51448  0.14072  1.0000
  C   C5428     1.0  0.90944  0.86432  0.35843  1.0000
  C   C5429     1.0  0.83414  0.52955  0.22085  1.0000
  H   H4343     1.0  0.96515  0.78957  0.22945  1.0000
  H   H4344     1.0  0.80919  0.69292  0.99080  1.0000
  H   H4345     1.0  0.81158  0.85871  0.23036  1.0000
  C   C5430     1.0  0.84920  0.54166  0.23908  1.0000
  C   C5431     1.0  0.85014  0.52911  0.22763  1.0000
  C   C5432     1.0  0.82172  0.56361  0.15202  1.0000
  C   C5433     1.0  0.81069  0.54969  0.15972  1.0000
  C   C5434     1.0  0.81507  0.53482  0.17504  1.0000
  C   C5435     1.0  0.80144  0.88325  0.45384  1.0000
  C   C5436     1.0  0.94367  0.75505  0.16357  1.0000
  H   H4346     1.0  0.86164  0.54160  0.24399  1.0000
  S   S741      1.0  0.98774  0.86263  0.30585  1.0000
  H   H4347     1.0  0.81786  0.57550  0.14059  1.0000
  H   H4348     1.0  0.87363  0.69076  0.00872  1.0000
  H   H4349     1.0  0.80579  0.52474  0.18119  1.0000
  H   H4350     1.0  0.92382  0.71121  0.12246  1.0000
  C   C5437     1.0  0.81341  0.57742  0.09987  1.0000
  H   H4351     1.0  0.84045  0.82556  0.36896  1.0000
  H   H4352     1.0  0.93267  0.84436  0.41140  1.0000
  C   C5438     1.0  0.90274  0.65949  0.17924  1.0000
  C   C5439     1.0  0.89622  0.66510  0.19666  1.0000
  C   C5440     1.0  0.87690  0.67184  0.20292  1.0000
  C   C5441     1.0  0.86409  0.67340  0.19163  1.0000
  C   C5442     1.0  0.87055  0.66852  0.17380  1.0000
  C   C5443     1.0  0.88994  0.66110  0.16788  1.0000
  P   P178      1.0  0.85390  0.66921  0.15980  1.0000
  C   C5444     1.0  0.84722  0.64622  0.16657  1.0000
  C   C5445     1.0  0.83312  0.68780  0.16440  1.0000
  C   C5446     1.0  0.83118  0.70608  0.15229  1.0000
  C   C5447     1.0  0.79920  0.82054  0.27484  1.0000
  C   C5448     1.0  0.79579  0.64396  0.22696  1.0000
  C   C5449     1.0  0.80347  0.69887  0.18514  1.0000
  C   C5450     1.0  0.81893  0.68423  0.18070  1.0000
  C   C5451     1.0  0.85821  0.63010  0.17651  1.0000
  C   C5452     1.0  0.85311  0.61228  0.18144  1.0000
  C   C5453     1.0  0.83712  0.61038  0.17640  1.0000
  C   C5454     1.0  0.82603  0.62635  0.16670  1.0000
  C   C5455     1.0  0.83095  0.64426  0.16185  1.0000
  C   C5456     1.0  0.86500  0.67422  0.13491  1.0000
  C   C5457     1.0  0.87567  0.68860  0.12786  1.0000
  C   C5458     1.0  0.88390  0.69303  0.10855  1.0000
  C   C5459     1.0  0.88173  0.68298  0.09614  1.0000
  C   C5460     1.0  0.87128  0.66850  0.10305  1.0000
  C   C5461     1.0  0.86285  0.66418  0.12235  1.0000
  H   H4353     1.0  0.87185  0.67611  0.21649  1.0000
  H   H4354     1.0  0.84917  0.67847  0.19687  1.0000
  H   H4355     1.0  0.89516  0.65649  0.15452  1.0000
  H   H4356     1.0  0.84158  0.70941  0.13947  1.0000
  Fe  Fe373     1.0  0.79316  0.95969  0.28621  1.0000
  H   H4357     1.0  0.82253  0.60132  0.07918  1.0000
  C   C5462     1.0  0.96683  0.81876  0.26993  1.0000
  H   H4358     1.0  0.82003  0.67026  0.19024  1.0000
  H   H4359     1.0  0.87052  0.63120  0.18083  1.0000
  H   H4360     1.0  0.86119  0.60005  0.18969  1.0000
  H   H4361     1.0  0.83298  0.59667  0.18062  1.0000
  H   H4362     1.0  0.81338  0.62491  0.16329  1.0000
  H   H4363     1.0  0.82205  0.65656  0.15449  1.0000
  H   H4364     1.0  0.87699  0.69690  0.13720  1.0000
  H   H4365     1.0  0.89133  0.70479  0.10309  1.0000
  H   H4366     1.0  0.88766  0.68683  0.08109  1.0000
  H   H4367     1.0  0.86921  0.66104  0.09335  1.0000
  H   H4368     1.0  0.85443  0.65327  0.12727  1.0000
  C   C5463     1.0  0.85068  0.90758  0.37797  1.0000
  H   H4369     1.0  0.92624  0.74407  0.12161  1.0000
  H   H4370     1.0  0.80671  0.93264  0.32079  1.0000
  C   C5464     1.0  0.83686  0.88151  0.23037  1.0000
  C   C5465     1.0  0.95669  0.85596  0.21990  1.0000
  C   C5466     1.0  0.94766  0.87359  0.21017  1.0000
  P   P179      1.0  0.94662  0.84581  0.24413  1.0000
  C   C5467     1.0  0.92983  0.86428  0.25513  1.0000
  C   C5468     1.0  0.93417  0.82776  0.24445  1.0000
  C   C5469     1.0  0.92187  0.82078  0.26117  1.0000
  C   C5470     1.0  0.91080  0.80825  0.26110  1.0000
  C   C5471     1.0  0.91214  0.80226  0.24450  1.0000
  C   C5472     1.0  0.92466  0.80874  0.22792  1.0000
  C   C5473     1.0  0.93547  0.82162  0.22780  1.0000
  C   C5474     1.0  0.91055  0.86805  0.25438  1.0000
  C   C5475     1.0  0.89747  0.88206  0.26316  1.0000
  C   C5476     1.0  0.90352  0.89256  0.27260  1.0000
  C   C5477     1.0  0.92268  0.88913  0.27315  1.0000
  C   C5478     1.0  0.93580  0.87511  0.26441  1.0000
  C   C5479     1.0  0.96608  0.83613  0.25645  1.0000
  H   H4371     1.0  0.87990  0.86283  0.39183  1.0000
  C   C5480     1.0  0.86483  0.88428  0.20503  1.0000
  H   H4372     1.0  0.79663  0.76473  0.30696  1.0000
  H   H4373     1.0  0.89007  0.70740  0.17905  1.0000
  C   C5481     1.0  0.80774  0.69392  0.00532  1.0000
  S   S742      1.0  0.82455  0.94775  0.28226  1.0000
  C   C5482     1.0  0.81425  0.75451  0.33954  1.0000
  H   H4374     1.0  0.80616  0.73259  0.33085  1.0000
  H   H4375     1.0  0.89370  0.66759  0.98910  1.0000
  H   H4376     1.0  0.93462  0.88164  0.21715  1.0000
  H   H4377     1.0  0.92055  0.82534  0.27419  1.0000
  H   H4378     1.0  0.90094  0.80339  0.27388  1.0000
  H   H4379     1.0  0.90355  0.79249  0.24455  1.0000
  H   H4380     1.0  0.92612  0.80363  0.21519  1.0000
  H   H4381     1.0  0.94487  0.82658  0.21469  1.0000
  H   H4382     1.0  0.90551  0.86008  0.24717  1.0000
  H   H4383     1.0  0.88258  0.88465  0.26284  1.0000
  H   H4384     1.0  0.89337  0.90333  0.27950  1.0000
  H   H4385     1.0  0.92739  0.89722  0.28053  1.0000
  H   H4386     1.0  0.95052  0.87261  0.26522  1.0000
  C   C5483     1.0  0.89923  0.73408  0.16616  1.0000
  C   C5484     1.0  0.93586  0.76675  0.14812  1.0000
  C   C5485     1.0  0.84715  0.89261  0.21469  1.0000
  C   C5486     1.0  0.90755  0.85294  0.39929  1.0000
  H   H4387     1.0  0.80859  0.48838  0.14718  1.0000
  C   C5487     1.0  0.95356  0.85817  0.35903  1.0000
  H   H4388     1.0  0.91336  0.80841  0.13003  1.0000
  H   H4389     1.0  0.81578  0.67133  0.10966  1.0000
  C   C5488     1.0  0.80513  0.64529  0.12301  1.0000
  H   H4390     1.0  0.91793  0.78200  0.18008  1.0000
  H   H4391     1.0  0.84850  0.79189  0.18634  1.0000
  C   C5489     1.0  0.90840  0.78735  0.37762  1.0000
  H   H4392     1.0  0.88703  0.90356  0.31950  1.0000
  C   C5490     1.0  0.81132  0.91814  0.23534  1.0000
  C   C5491     1.0  0.81776  0.73812  0.33203  1.0000
  C   C5492     1.0  0.89357  0.89271  0.33020  1.0000
  C   C5493     1.0  0.89598  0.79855  0.38992  1.0000
  C   C5494     1.0  0.81560  0.72061  0.15671  1.0000
  H   H4393     1.0  0.82663  0.49020  0.18535  1.0000
  H   H4394     1.0  0.90861  0.88802  0.37069  1.0000
  H   H4395     1.0  0.82938  0.77179  0.11045  1.0000
  H   H4396     1.0  0.87271  0.89299  0.19307  1.0000
  C   C5495     1.0  0.83026  0.64960  0.98793  1.0000
  H   H4397     1.0  0.80497  0.54348  0.22032  1.0000
  C   C5496     1.0  0.91759  0.85024  0.41360  1.0000
  C   C5497     1.0  0.80932  0.87054  0.44147  1.0000
  C   C5498     1.0  0.97570  0.82832  0.31839  1.0000
  C   C5499     1.0  0.90912  0.74468  0.14982  1.0000
  H   H4398     1.0  0.83895  0.71682  0.31901  1.0000
  P   P180      1.0  0.91113  0.76870  0.14864  1.0000
  C   C5500     1.0  0.89569  0.77817  0.16851  1.0000
  C   C5501     1.0  0.97326  0.85602  0.35531  1.0000
  C   C5502     1.0  0.82042  0.70005  0.02948  1.0000
  S   S743      1.0  0.83185  0.75006  0.05939  1.0000
  C   C5503     1.0  0.91699  0.71758  0.13466  1.0000
  C   C5504     1.0  0.90569  0.80347  0.12246  1.0000
  C   C5505     1.0  0.88797  0.86069  0.40265  1.0000
  C   C5506     1.0  0.90286  0.78387  0.18127  1.0000
  C   C5507     1.0  0.89047  0.79217  0.19590  1.0000
  C   C5508     1.0  0.87090  0.79513  0.19769  1.0000
  C   C5509     1.0  0.86368  0.78976  0.18489  1.0000
  C   C5510     1.0  0.87599  0.78121  0.17045  1.0000
  P   P181      1.0  0.81415  0.89242  0.24323  1.0000
  C   C5511     1.0  0.89836  0.81619  0.10722  1.0000
  C   C5512     1.0  0.90682  0.70724  0.15080  1.0000
  H   H4399     1.0  0.83293  0.88947  0.37729  1.0000
  P   P182      1.0  0.91934  0.84620  0.37690  1.0000
  C   C5513     1.0  0.91828  0.73618  0.13421  1.0000
  H   H4400     1.0  0.90404  0.74678  0.35821  1.0000
  C   C5514     1.0  0.81203  0.84407  0.46889  1.0000
  C   C5515     1.0  0.88449  0.79160  0.10361  1.0000
  C   C5516     1.0  0.83424  0.83495  0.37880  1.0000
  C   C5517     1.0  0.80383  0.69696  0.04273  1.0000
  C   C5518     1.0  0.81618  0.84642  0.37852  1.0000
  C   C5519     1.0  0.84148  0.54800  0.17512  1.0000
  H   H4401     1.0  0.97629  0.77965  0.11937  1.0000
  H   H4402     1.0  0.85078  0.63841  0.03197  1.0000
  H   H4403     1.0  0.79695  0.92033  0.21284  1.0000
  H   H4404     1.0  0.79133  0.76571  0.13543  1.0000
  H   H4405     1.0  0.80627  0.74253  0.01297  1.0000
  C   C5520     1.0  0.89795  0.71545  0.16652  1.0000
  C   C5521     1.0  0.82962  0.76085  0.34152  1.0000
  H   H4406     1.0  0.81583  0.78267  0.14080  1.0000
  C   C5522     1.0  0.85207  0.49525  0.14647  1.0000
  H   H4407     1.0  0.81341  0.81299  0.27002  1.0000
  C   C5523     1.0  0.89186  0.77887  0.11875  1.0000
  H   H4408     1.0  0.82734  0.77302  0.34791  1.0000
  C   C5524     1.0  0.81920  0.49979  0.21175  1.0000
  C   C5525     1.0  0.82350  0.63394  0.04900  1.0000
  H   H4409     1.0  0.98065  0.85950  0.24207  1.0000
  H   H4410     1.0  0.82771  0.56951  0.10058  1.0000
  C   C5526     1.0  0.90285  0.78457  0.12807  1.0000
  H   H4411     1.0  0.80822  0.84573  0.36859  1.0000
  C   C5527     1.0  0.88782  0.81023  0.09776  1.0000
  H   H4412     1.0  0.93486  0.74768  0.17584  1.0000
  C   C5528     1.0  0.97233  0.87085  0.18193  1.0000
  C   C5529     1.0  0.97348  0.84573  0.21038  1.0000
  P   P183      1.0  0.81114  0.87956  0.41610  1.0000
  H   H4413     1.0  0.80872  0.50570  0.24000  1.0000
  H   H4414     1.0  0.96875  0.74395  0.17544  1.0000
  C   C5530     1.0  0.80114  0.94770  0.21329  1.0000
  H   H4415     1.0  0.86748  0.51556  0.17008  1.0000
  C   C5531     1.0  0.98096  0.84593  0.25223  1.0000
  H   H4416     1.0  0.82148  0.62380  0.00526  1.0000
  H   H4417     1.0  0.80982  0.79452  0.31783  1.0000
  C   C5532     1.0  0.97076  0.71483  0.26274  1.0000
  H   H4418     1.0  0.79823  0.55088  0.15434  1.0000
  H   H4419     1.0  0.98958  0.75977  0.14724  1.0000
  H   H4420     1.0  0.94860  0.89473  0.18385  1.0000
  C   C5533     1.0  0.79774  0.86796  0.23244  1.0000
  C   C5534     1.0  0.95552  0.88103  0.19126  1.0000
  C   C5535     1.0  0.97353  0.75881  0.27856  1.0000
  C   C5536     1.0  0.80848  0.49715  0.23040  1.0000
  C   C5537     1.0  0.97567  0.82572  0.37805  1.0000
  Fe  Fe374     1.0  0.98659  0.74581  0.20786  1.0000
  C   C5538     1.0  0.98281  0.78200  0.24998  1.0000
  C   C5539     1.0  0.81021  0.65223  0.07361  1.0000
  H   H4421     1.0  0.79583  0.77219  0.38250  1.0000
  C   C5540     1.0  0.98127  0.85318  0.19149  1.0000
  C   C5541     1.0  0.79446  0.88762  0.30062  1.0000
  H   H4422     1.0  0.80355  0.56575  0.24027  1.0000
  H   H4423     1.0  0.79653  0.80856  0.39473  1.0000
  C   C5542     1.0  0.88880  0.49109  0.17809  1.0000
  H   H4424     1.0  0.83182  0.56512  0.25188  1.0000
  H   H4425     1.0  0.97842  0.87664  0.16730  1.0000
  C   C5543     1.0  0.98234  0.81121  0.27880  1.0000
  S   S744      1.0  0.79258  0.61234  0.14341  1.0000
  C   C5544     1.0  0.87671  0.69509  0.99333  1.0000
  C   C5545     1.0  0.79858  0.82184  0.32549  1.0000
  C   C5546     1.0  0.98604  0.77061  0.26753  1.0000
  S   S745      1.0  0.79641  0.72745  0.07429  1.0000
  C   C5547     1.0  0.86953  0.71387  0.98458  1.0000
  H   H4426     1.0  0.89842  0.49355  0.16443  1.0000
  H   H4427     1.0  0.79488  0.86853  0.38965  1.0000
  H   H4428     1.0  0.98730  0.96518  0.41431  1.0000
  H   H4429     1.0  0.98908  0.82210  0.32255  1.0000
  H   H4430     1.0  0.79877  0.91121  0.38529  1.0000
  C   C5548     1.0  0.79094  0.63719  0.13675  1.0000
  C   C5549     1.0  0.81039  0.59551  0.08775  1.0000
  H   H4431     1.0  0.98004  0.86673  0.34468  1.0000
  H   H4432     1.0  0.80031  0.55554  0.12046  1.0000
  H   H4433     1.0  0.98434  0.81303  0.38515  1.0000
  C   C5550     1.0  0.98433  0.83976  0.36469  1.0000
  C   C5551     1.0  0.98626  0.69124  0.29341  1.0000
  H   H4434     1.0  0.82358  0.60993  0.97795  1.0000
  H   H4435     1.0  0.79130  0.73210  0.99266  1.0000
  C   C5552     1.0  0.79096  0.74504  0.01526  1.0000
  H   H4436     1.0  0.79122  0.65136  0.03146  1.0000
  C   C5553     1.0  0.86418  0.48482  0.21342  1.0000
  C   C5554     1.0  0.82337  0.48498  0.14827  1.0000
  S   S746      1.0  0.79001  0.78579  0.43359  1.0000
  P   P184      1.0  0.79025  0.76694  0.34700  1.0000
  H   H4437     1.0  0.84078  0.94776  0.63329  1.0000
  H   H4438     1.0  0.81096  0.65466  0.83954  1.0000
  S   S747      1.0  0.81629  0.63897  0.78684  1.0000
  C   C5555     1.0  0.90240  0.65944  0.77363  1.0000
  H   H4439     1.0  0.89668  0.58458  0.94641  1.0000
  C   C5556     1.0  0.84005  0.75782  0.90427  1.0000
  P   P185      1.0  0.79500  0.71695  0.79557  1.0000
  S   S748      1.0  0.82721  0.69805  0.92667  1.0000
  S   S749      1.0  0.96683  0.74538  0.86867  1.0000
  Fe  Fe375     1.0  0.88133  0.68191  0.81997  1.0000
  S   S750      1.0  0.86454  0.70913  0.80569  1.0000
  S   S751      1.0  0.87236  0.65355  0.82957  1.0000
  Fe  Fe376     1.0  0.91136  0.70164  0.82255  1.0000
  S   S752      1.0  0.89703  0.73076  0.80851  1.0000
  S   S753      1.0  0.94015  0.69374  0.82990  1.0000
  Fe  Fe377     1.0  0.87015  0.72224  0.82689  1.0000
  S   S754      1.0  0.84489  0.74155  0.84117  1.0000
  Fe  Fe378     1.0  0.89262  0.71511  0.78868  1.0000
  S   S755      1.0  0.89828  0.72537  0.75708  1.0000
  S   S756      1.0  0.88500  0.69432  0.84265  1.0000
  S   S757      1.0  0.90909  0.68665  0.80113  1.0000
  C   C5557     1.0  0.86918  0.82115  0.76269  1.0000
  Fe  Fe379     1.0  0.85866  0.82246  0.70517  1.0000
  S   S758      1.0  0.87796  0.81254  0.67945  1.0000
  S   S759      1.0  0.84380  0.80396  0.73096  1.0000
  Fe  Fe380     1.0  0.86327  0.86356  0.69019  1.0000
  S   S760      1.0  0.88268  0.85705  0.66320  1.0000
  S   S761      1.0  0.85783  0.89223  0.69782  1.0000
  Fe  Fe381     1.0  0.86223  0.83950  0.66322  1.0000
  S   S762      1.0  0.85415  0.84184  0.63530  1.0000
  Fe  Fe382     1.0  0.89663  0.83095  0.68178  1.0000
  S   S763      1.0  0.92873  0.82233  0.67652  1.0000
  S   S764      1.0  0.84166  0.84834  0.68882  1.0000
  S   S765      1.0  0.87860  0.83850  0.70883  1.0000
  C   C5558     1.0  0.90614  0.68215  0.88708  1.0000
  C   C5559     1.0  0.83400  0.83371  0.63499  1.0000
  C   C5560     1.0  0.82441  0.82290  0.65128  1.0000
  C   C5561     1.0  0.97802  0.75617  0.73548  1.0000
  H   H4440     1.0  0.80273  0.85162  0.49631  1.0000
  C   C5562     1.0  0.80732  0.73651  0.75865  1.0000
  C   C5563     1.0  0.82722  0.83857  0.61810  1.0000
  H   H4441     1.0  0.82984  0.81871  0.66417  1.0000
  H   H4442     1.0  0.96720  0.89092  0.68239  1.0000
  C   C5564     1.0  0.88753  0.98199  0.60587  1.0000
  H   H4443     1.0  0.83468  0.84673  0.60537  1.0000
  C   C5565     1.0  0.83422  0.90413  0.70450  1.0000
  C   C5566     1.0  0.82933  0.91218  0.72051  1.0000
  C   C5567     1.0  0.82040  0.95923  0.67616  1.0000
  C   C5568     1.0  0.97495  0.58669  0.77497  1.0000
  C   C5569     1.0  0.79835  0.92781  0.71339  1.0000
  C   C5570     1.0  0.82094  0.90759  0.69310  1.0000
  H   H4444     1.0  0.83963  0.90977  0.72918  1.0000
  H   H4445     1.0  0.95585  0.58021  0.74109  1.0000
  H   H4446     1.0  0.82470  0.90168  0.68053  1.0000
  C   C5571     1.0  0.96248  0.84769  0.70336  1.0000
  C   C5572     1.0  0.85509  0.83583  0.75556  1.0000
  C   C5573     1.0  0.96126  0.82831  0.68231  1.0000
  C   C5574     1.0  0.94138  0.83226  0.68709  1.0000
  C   C5575     1.0  0.93208  0.84379  0.70023  1.0000
  C   C5576     1.0  0.94261  0.85150  0.70831  1.0000
  H   H4447     1.0  0.88872  0.55377  0.94739  1.0000
  H   H4448     1.0  0.96856  0.81920  0.67235  1.0000
  H   H4449     1.0  0.91678  0.84689  0.70410  1.0000
  H   H4450     1.0  0.93532  0.86049  0.71840  1.0000
  C   C5577     1.0  0.85884  0.78207  0.73826  1.0000
  C   C5578     1.0  0.85657  0.77302  0.75754  1.0000
  C   C5579     1.0  0.86882  0.75569  0.76349  1.0000
  C   C5580     1.0  0.88300  0.74715  0.75007  1.0000
  C   C5581     1.0  0.88493  0.75595  0.73079  1.0000
  C   C5582     1.0  0.87304  0.77351  0.72492  1.0000
  H   H4451     1.0  0.84554  0.77956  0.76790  1.0000
  H   H4452     1.0  0.86722  0.74891  0.77841  1.0000
  H   H4453     1.0  0.89577  0.74929  0.72037  1.0000
  H   H4454     1.0  0.87467  0.78021  0.71002  1.0000
  C   C5583     1.0  0.95902  0.73183  0.85731  1.0000
  C   C5584     1.0  0.93968  0.73167  0.86058  1.0000
  C   C5585     1.0  0.93351  0.72068  0.85155  1.0000
  C   C5586     1.0  0.94675  0.70963  0.83953  1.0000
  C   C5587     1.0  0.96594  0.71020  0.83599  1.0000
  C   C5588     1.0  0.97207  0.72130  0.84477  1.0000
  H   H4455     1.0  0.92955  0.73992  0.87021  1.0000
  H   H4456     1.0  0.91865  0.72034  0.85426  1.0000
  H   H4457     1.0  0.85668  0.55326  0.94410  1.0000
  C   C5589     1.0  0.83158  0.71165  0.90339  1.0000
  C   C5590     1.0  0.81689  0.72359  0.89474  1.0000
  C   C5591     1.0  0.82098  0.73336  0.87569  1.0000
  C   C5592     1.0  0.83973  0.73127  0.86544  1.0000
  C   C5593     1.0  0.85437  0.72016  0.87443  1.0000
  C   C5594     1.0  0.85026  0.71018  0.89323  1.0000
  H   H4458     1.0  0.80245  0.72508  0.90259  1.0000
  H   H4459     1.0  0.80962  0.74197  0.86874  1.0000
  H   H4460     1.0  0.86893  0.71931  0.86696  1.0000
  H   H4461     1.0  0.86161  0.70124  0.89984  1.0000
  C   C5595     1.0  0.95986  0.59999  0.78273  1.0000
  C   C5596     1.0  0.83232  0.64297  0.79826  1.0000
  C   C5597     1.0  0.83625  0.63051  0.81515  1.0000
  C   C5598     1.0  0.84885  0.63371  0.82438  1.0000
  C   C5599     1.0  0.85733  0.64965  0.81701  1.0000
  C   C5600     1.0  0.85359  0.66210  0.80000  1.0000
  C   C5601     1.0  0.84133  0.65859  0.79047  1.0000
  H   H4462     1.0  0.82991  0.61812  0.82095  1.0000
  H   H4463     1.0  0.85176  0.62396  0.83745  1.0000
  H   H4464     1.0  0.86010  0.67442  0.79422  1.0000
  H   H4465     1.0  0.83850  0.66820  0.77732  1.0000
  H   H4466     1.0  0.86153  0.76722  0.88055  1.0000
  H   H4467     1.0  0.88802  0.74423  0.89348  1.0000
  H   H4468     1.0  0.91679  0.93100  0.62184  1.0000
  H   H4469     1.0  0.95284  0.70560  0.78747  1.0000
  C   C5602     1.0  0.85521  0.85497  0.75434  1.0000
  H   H4470     1.0  0.90926  0.88017  0.61807  1.0000
  C   C5603     1.0  0.88366  0.76727  0.83442  1.0000
  C   C5604     1.0  0.92924  0.64867  0.74985  1.0000
  C   C5605     1.0  0.89660  0.66704  0.89512  1.0000
  H   H4471     1.0  0.95685  0.73909  0.77596  1.0000
  H   H4472     1.0  0.91461  0.68337  0.87273  1.0000
  C   C5606     1.0  0.97355  0.57963  0.75991  1.0000
  H   H4473     1.0  0.82720  0.68315  0.88762  1.0000
  C   C5607     1.0  0.88529  0.66580  0.91341  1.0000
  H   H4474     1.0  0.85538  0.90237  0.65742  1.0000
  C   C5608     1.0  0.83053  0.65722  0.90918  1.0000
  H   H4475     1.0  0.84792  0.88000  0.64261  1.0000
  C   C5609     1.0  0.88355  0.67965  0.92371  1.0000
  H   H4476     1.0  0.89762  0.65659  0.88696  1.0000
  C   C5610     1.0  0.85790  0.63243  0.90131  1.0000
  C   C5611     1.0  0.81001  0.61304  0.92069  1.0000
  C   C5612     1.0  0.93342  0.82423  0.76035  1.0000
  H   H4477     1.0  0.81496  0.87473  0.62331  1.0000
  H   H4478     1.0  0.87729  0.65454  0.91930  1.0000
  C   C5613     1.0  0.94190  0.59911  0.76037  1.0000
  H   H4479     1.0  0.80409  0.71015  0.68134  1.0000
  H   H4480     1.0  0.87925  0.75749  0.84762  1.0000
  H   H4481     1.0  0.80094  0.56964  0.67669  1.0000
  C   C5614     1.0  0.87822  0.56701  0.94548  1.0000
  C   C5615     1.0  0.83633  0.74496  0.92165  1.0000
  H   H4482     1.0  0.93029  0.69838  0.91748  1.0000
  H   H4483     1.0  0.82064  0.81462  0.69919  1.0000
  H   H4484     1.0  0.84795  0.72121  0.94189  1.0000
  H   H4485     1.0  0.91341  0.75792  0.83484  1.0000
  H   H4486     1.0  0.92351  0.77899  0.80403  1.0000
  C   C5616     1.0  0.92375  0.81947  0.79457  1.0000
  P   P186      1.0  0.90257  0.80655  0.77648  1.0000
  H   H4487     1.0  0.92662  0.76113  0.72048  1.0000
  C   C5617     1.0  0.96058  0.77241  0.81817  1.0000
  C   C5618     1.0  0.90780  0.74351  0.92360  1.0000
  H   H4488     1.0  0.81003  0.96229  0.65097  1.0000
  H   H4489     1.0  0.92889  0.74587  0.75386  1.0000
  C   C5619     1.0  0.90467  0.59416  0.80722  1.0000
  S   S766      1.0  0.97526  0.85768  0.71362  1.0000
  H   H4490     1.0  0.90622  0.69406  0.73313  1.0000
  H   H4491     1.0  0.83940  0.67364  0.96701  1.0000
  C   C5620     1.0  0.88309  0.84476  0.76824  1.0000
  C   C5621     1.0  0.90992  0.72435  0.92258  1.0000
  H   H4492     1.0  0.79980  0.79544  0.72383  1.0000
  C   C5622     1.0  0.81050  0.83345  0.61771  1.0000
  C   C5623     1.0  0.98212  0.69409  0.78916  1.0000
  C   C5624     1.0  0.92146  0.81719  0.77727  1.0000
  H   H4493     1.0  0.90528  0.81602  0.73518  1.0000
  P   P187      1.0  0.88932  0.71399  0.92793  1.0000
  C   C5625     1.0  0.91734  0.95898  0.60388  1.0000
  H   H4494     1.0  0.98772  0.58174  0.78071  1.0000
  C   C5626     1.0  0.87573  0.79139  0.80686  1.0000
  C   C5627     1.0  0.87012  0.77930  0.82430  1.0000
  H   H4495     1.0  0.91125  0.70805  0.89052  1.0000
  C   C5628     1.0  0.87327  0.71959  0.96475  1.0000
  H   H4496     1.0  0.93380  0.66902  0.72313  1.0000
  C   C5629     1.0  0.95701  0.58581  0.75265  1.0000
  H   H4497     1.0  0.82842  0.76753  0.89830  1.0000
  C   C5630     1.0  0.89808  0.67686  0.76093  1.0000
  H   H4498     1.0  0.79802  0.55699  0.77553  1.0000
  C   C5631     1.0  0.96658  0.76319  0.80290  1.0000
  C   C5632     1.0  0.90847  0.94519  0.61747  1.0000
  C   C5633     1.0  0.88402  0.70642  0.95351  1.0000
  C   C5634     1.0  0.86318  0.64436  0.88365  1.0000
  H   H4499     1.0  0.80672  0.96522  0.68408  1.0000
  C   C5635     1.0  0.82384  0.69562  0.83894  1.0000
  C   C5636     1.0  0.81563  0.70787  0.82404  1.0000
  H   H4500     1.0  0.80048  0.80917  0.66351  1.0000
  C   C5637     1.0  0.87860  0.96824  0.61949  1.0000
  H   H4501     1.0  0.93136  0.82354  0.74677  1.0000
  H   H4502     1.0  0.98018  0.67947  0.79457  1.0000
  C   C5638     1.0  0.83259  0.63400  0.95678  1.0000
  C   C5639     1.0  0.96902  0.72781  0.77875  1.0000
  C   C5640     1.0  0.98677  0.88133  0.63838  1.0000
  H   H4503     1.0  0.80712  0.84616  0.68097  1.0000
  C   C5641     1.0  0.80787  0.81745  0.65081  1.0000
  C   C5642     1.0  0.80576  0.70093  0.81458  1.0000
  H   H4504     1.0  0.86044  0.88027  0.60847  1.0000
  H   H4505     1.0  0.82222  0.61032  0.90942  1.0000
  C   C5643     1.0  0.95014  0.85720  0.63320  1.0000
  C   C5644     1.0  0.90853  0.77941  0.80967  1.0000
  H   H4506     1.0  0.94158  0.63815  0.74540  1.0000
  C   C5645     1.0  0.81279  0.72363  0.77485  1.0000
  C   C5646     1.0  0.83210  0.71605  0.77466  1.0000
  C   C5647     1.0  0.84578  0.72207  0.75890  1.0000
  C   C5648     1.0  0.84028  0.73550  0.74314  1.0000
  C   C5649     1.0  0.82105  0.74259  0.74293  1.0000
  C   C5650     1.0  0.79325  0.71579  0.67291  1.0000
  H   H4507     1.0  0.96117  0.60496  0.79459  1.0000
  C   C5651     1.0  0.90937  0.68029  0.74273  1.0000
  H   H4508     1.0  0.83177  0.70095  0.84594  1.0000
  H   H4509     1.0  0.81722  0.72267  0.81978  1.0000
  C   C5652     1.0  0.87232  0.91586  0.63150  1.0000
  Fe  Fe383     1.0  0.79668  0.70018  0.94110  1.0000
  C   C5653     1.0  0.83590  0.66908  0.89154  1.0000
  H   H4510     1.0  0.97615  0.70210  0.82637  1.0000
  C   C5654     1.0  0.90376  0.61104  0.79300  1.0000
  C   C5655     1.0  0.88902  0.94972  0.62538  1.0000
  Fe  Fe384     1.0  0.79186  0.62804  0.80836  1.0000
  H   H4511     1.0  0.79149  0.60553  0.90733  1.0000
  C   C5656     1.0  0.92266  0.76983  0.73103  1.0000
  C   C5657     1.0  0.92369  0.75170  0.91927  1.0000
  C   C5658     1.0  0.92401  0.76125  0.74985  1.0000
  H   H4512     1.0  0.83668  0.70556  0.78663  1.0000
  H   H4513     1.0  0.86069  0.71657  0.75901  1.0000
  H   H4514     1.0  0.85095  0.74047  0.73115  1.0000
  H   H4515     1.0  0.81686  0.75295  0.73065  1.0000
  C   C5659     1.0  0.81213  0.66958  0.83531  1.0000
  H   H4516     1.0  0.82183  0.74452  0.92902  1.0000
  H   H4517     1.0  0.98524  0.56927  0.75397  1.0000
  C   C5660     1.0  0.87499  0.90338  0.60373  1.0000
  H   H4518     1.0  0.97021  0.79614  0.75317  1.0000
  C   C5661     1.0  0.79172  0.54177  0.72101  1.0000
  C   C5662     1.0  0.89169  0.68773  0.96243  1.0000
  C   C5663     1.0  0.91043  0.80074  0.73954  1.0000
  C   C5664     1.0  0.88339  0.82550  0.76899  1.0000
  C   C5665     1.0  0.91824  0.77232  0.76364  1.0000
  H   H4519     1.0  0.90482  0.62103  0.82591  1.0000
  C   C5666     1.0  0.86913  0.85942  0.76080  1.0000
  H   H4520     1.0  0.87383  0.67912  0.93736  1.0000
  H   H4521     1.0  0.90076  0.67761  0.95409  1.0000
  C   C5667     1.0  0.80071  0.82292  0.63409  1.0000
  C   C5668     1.0  0.94330  0.60647  0.77531  1.0000
  C   C5669     1.0  0.90433  0.69606  0.89729  1.0000
  H   H4522     1.0  0.95697  0.79069  0.70259  1.0000
  C   C5670     1.0  0.79688  0.71263  0.65454  1.0000
  C   C5671     1.0  0.79773  0.83792  0.69160  1.0000
  H   H4523     1.0  0.80783  0.93000  0.73742  1.0000
  H   H4524     1.0  0.87285  0.61483  0.94194  1.0000
  C   C5672     1.0  0.84170  0.63896  0.91438  1.0000
  H   H4525     1.0  0.81964  0.90639  0.62393  1.0000
  H   H4526     1.0  0.81054  0.70454  0.64875  1.0000
  H   H4527     1.0  0.98318  0.87099  0.58425  1.0000
  C   C5673     1.0  0.86083  0.90289  0.64237  1.0000
  C   C5674     1.0  0.94178  0.74078  0.91409  1.0000
  C   C5675     1.0  0.80764  0.88119  0.63532  1.0000
  H   H4528     1.0  0.95518  0.84460  0.64334  1.0000
  C   C5676     1.0  0.82209  0.67645  0.84451  1.0000
  C   C5677     1.0  0.86018  0.56673  0.94361  1.0000
  H   H4529     1.0  0.92065  0.87351  0.67074  1.0000
  C   C5678     1.0  0.90688  0.97737  0.59808  1.0000
  C   C5679     1.0  0.90235  0.92830  0.66679  1.0000
  H   H4530     1.0  0.81765  0.66236  0.91876  1.0000
  C   C5680     1.0  0.89327  0.69477  0.91580  1.0000
  C   C5681     1.0  0.83619  0.65959  0.96943  1.0000
  H   H4531     1.0  0.89387  0.75216  0.92761  1.0000
  H   H4532     1.0  0.92204  0.76658  0.91970  1.0000
  C   C5682     1.0  0.94805  0.83249  0.76081  1.0000
  H   H4533     1.0  0.89754  0.94364  0.66556  1.0000
  C   C5683     1.0  0.92494  0.66620  0.73718  1.0000
  H   H4534     1.0  0.88701  0.63015  0.77288  1.0000
  H   H4535     1.0  0.79638  0.65731  0.89097  1.0000
  C   C5684     1.0  0.91786  0.64516  0.76814  1.0000
  H   H4536     1.0  0.89042  0.57146  0.82423  1.0000
  H   H4537     1.0  0.91890  0.76515  0.77815  1.0000
  H   H4538     1.0  0.92908  0.60367  0.75472  1.0000
  C   C5685     1.0  0.86920  0.60145  0.94238  1.0000
  H   H4539     1.0  0.86126  0.61251  0.78309  1.0000
  H   H4540     1.0  0.80476  0.68672  0.77440  1.0000
  C   C5686     1.0  0.91125  0.79218  0.75863  1.0000
  C   C5687     1.0  0.94404  0.72160  0.91346  1.0000
  C   C5688     1.0  0.90286  0.76743  0.82715  1.0000
  C   C5689     1.0  0.91555  0.88881  0.66971  1.0000
  H   H4541     1.0  0.96133  0.75054  0.80410  1.0000
  H   H4542     1.0  0.81529  0.53986  0.69730  1.0000
  C   C5690     1.0  0.95068  0.83410  0.77809  1.0000
  H   H4543     1.0  0.89388  0.84861  0.77286  1.0000
  C   C5691     1.0  0.92257  0.89852  0.67911  1.0000
  C   C5692     1.0  0.80144  0.54801  0.70255  1.0000
  C   C5693     1.0  0.97548  0.88003  0.65675  1.0000
  C   C5694     1.0  0.92820  0.71331  0.91792  1.0000
  H   H4544     1.0  0.86930  0.80644  0.76273  1.0000
  C   C5695     1.0  0.98674  0.78596  0.78627  1.0000
  H   H4545     1.0  0.92964  0.90342  0.59944  1.0000
  H   H4546     1.0  0.86505  0.93795  0.68243  1.0000
  C   C5696     1.0  0.87007  0.73182  0.91929  1.0000
  H   H4547     1.0  0.82858  0.66668  0.85575  1.0000
  H   H4548     1.0  0.94034  0.82919  0.80836  1.0000
  H   H4549     1.0  0.91421  0.81501  0.80778  1.0000
  C   C5697     1.0  0.85658  0.89020  0.63403  1.0000
  H   H4550     1.0  0.83272  0.58316  0.93984  1.0000
  H   H4551     1.0  0.91680  0.58877  0.81394  1.0000
  H   H4552     1.0  0.84447  0.83240  0.75027  1.0000
  C   C5698     1.0  0.87368  0.74458  0.90167  1.0000
  C   C5699     1.0  0.89500  0.79155  0.79938  1.0000
  C   C5700     1.0  0.98683  0.73220  0.77616  1.0000
  C   C5701     1.0  0.83763  0.65170  0.95394  1.0000
  P   P188      1.0  0.87792  0.93166  0.64295  1.0000
  H   H4553     1.0  0.85639  0.67192  0.86518  1.0000
  H   H4554     1.0  0.87541  0.63928  0.87335  1.0000
  C   C5702     1.0  0.93127  0.86092  0.63155  1.0000
  C   C5703     1.0  0.85871  0.75760  0.89426  1.0000
  H   H4555     1.0  0.86782  0.73430  0.95826  1.0000
  H   H4556     1.0  0.86497  0.80029  0.79921  1.0000
  H   H4557     1.0  0.85527  0.77888  0.82978  1.0000
  H   H4558     1.0  0.84477  0.86636  0.74799  1.0000
  H   H4559     1.0  0.93598  0.65173  0.84361  1.0000
  C   C5704     1.0  0.90178  0.89876  0.65905  1.0000
  H   H4560     1.0  0.91023  0.63381  0.85064  1.0000
  H   H4561     1.0  0.95116  0.64390  0.78631  1.0000
  H   H4562     1.0  0.86933  0.87429  0.75961  1.0000
  H   H4563     1.0  0.89383  0.65715  0.78788  1.0000
  H   H4564     1.0  0.88040  0.90349  0.58876  1.0000
  C   C5705     1.0  0.85237  0.66278  0.87892  1.0000
  H   H4565     1.0  0.93303  0.89069  0.68761  1.0000
  H   H4566     1.0  0.96213  0.84042  0.77834  1.0000
  C   C5706     1.0  0.79335  0.56478  0.69098  1.0000
  C   C5707     1.0  0.85125  0.73179  0.92899  1.0000
  H   H4567     1.0  0.92160  0.92580  0.68482  1.0000
  C   C5708     1.0  0.97536  0.89249  0.66795  1.0000
  C   C5709     1.0  0.91591  0.78957  0.72587  1.0000
  C   C5710     1.0  0.93842  0.82774  0.79497  1.0000
  C   C5711     1.0  0.85558  0.94258  0.65616  1.0000
  C   C5712     1.0  0.83601  0.95244  0.68487  1.0000
  C   C5713     1.0  0.80311  0.91973  0.69740  1.0000
  H   H4568     1.0  0.86628  0.61809  0.90443  1.0000
  C   C5714     1.0  0.89484  0.91852  0.65773  1.0000
  C   C5715     1.0  0.88811  0.61743  0.78414  1.0000
  C   C5716     1.0  0.79364  0.80917  0.71581  1.0000
  H   H4569     1.0  0.84251  0.65957  0.93980  1.0000
  C   C5717     1.0  0.88984  0.58426  0.81300  1.0000
  C   C5718     1.0  0.96289  0.78419  0.71519  1.0000
  C   C5719     1.0  0.81145  0.61981  0.93602  1.0000
  C   C5720     1.0  0.80543  0.82002  0.70186  1.0000
  C   C5721     1.0  0.85111  0.60132  0.94027  1.0000
  C   C5722     1.0  0.88271  0.58436  0.94491  1.0000
  C   C5723     1.0  0.96207  0.86972  0.62209  1.0000
  C   C5724     1.0  0.80048  0.90772  0.65083  1.0000
  H   H4570     1.0  0.95086  0.76688  0.83078  1.0000
  H   H4571     1.0  0.96314  0.89697  0.60228  1.0000
  C   C5725     1.0  0.96671  0.70883  0.78516  1.0000
  C   C5726     1.0  0.91605  0.91828  0.67758  1.0000
  H   H4572     1.0  0.97067  0.75585  0.70953  1.0000
  C   C5727     1.0  0.96792  0.78809  0.81768  1.0000
  C   C5728     1.0  0.92393  0.87744  0.61924  1.0000
  H   H4573     1.0  0.95739  0.83767  0.74772  1.0000
  H   H4574     1.0  0.96397  0.79457  0.82994  1.0000
  C   C5729     1.0  0.97053  0.76455  0.71915  1.0000
  H   H4575     1.0  0.86256  0.58341  0.80890  1.0000
  C   C5730     1.0  0.97177  0.83591  0.69050  1.0000
  C   C5731     1.0  0.87936  0.91609  0.61206  1.0000
  C   C5732     1.0  0.87420  0.59090  0.80432  1.0000
  H   H4576     1.0  0.98713  0.80668  0.80158  1.0000
  C   C5733     1.0  0.84662  0.58380  0.94108  1.0000
  C   C5734     1.0  0.81137  0.92370  0.72512  1.0000
  C   C5735     1.0  0.85350  0.94395  0.67501  1.0000
  C   C5736     1.0  0.87345  0.60733  0.78976  1.0000
  H   H4577     1.0  0.95811  0.71335  0.90906  1.0000
  H   H4578     1.0  0.91474  0.79619  0.71129  1.0000
  P   P189      1.0  0.83404  0.62366  0.93696  1.0000
  C   C5737     1.0  0.98096  0.79490  0.80172  1.0000
  H   H4579     1.0  0.80526  0.83756  0.60469  1.0000
  C   C5738     1.0  0.86368  0.89036  0.61475  1.0000
  H   H4580     1.0  0.88816  0.92600  0.60331  1.0000
  H   H4581     1.0  0.88626  0.68791  0.76539  1.0000
  H   H4582     1.0  0.89667  0.89097  0.65185  1.0000
  C   C5739     1.0  0.91968  0.63529  0.83684  1.0000
  C   C5740     1.0  0.93411  0.64542  0.83287  1.0000
  C   C5741     1.0  0.94562  0.64819  0.81473  1.0000
  C   C5742     1.0  0.94262  0.64096  0.80051  1.0000
  C   C5743     1.0  0.92820  0.63066  0.80442  1.0000
  C   C5744     1.0  0.91671  0.62794  0.82270  1.0000
  P   P190      1.0  0.92339  0.62324  0.78529  1.0000
  C   C5745     1.0  0.97983  0.76982  0.78683  1.0000
  H   H4583     1.0  0.96689  0.86926  0.66249  1.0000
  H   H4584     1.0  0.98696  0.72154  0.84193  1.0000
  H   H4585     1.0  0.92233  0.85093  0.63998  1.0000
  C   C5746     1.0  0.83971  0.94920  0.64762  1.0000
  H   H4586     1.0  0.83435  0.95308  0.69955  1.0000
  C   C5747     1.0  0.80472  0.85690  0.48102  1.0000
  C   C5748     1.0  0.79264  0.61016  0.91953  1.0000
  C   C5749     1.0  0.80410  0.68167  0.82035  1.0000
  C   C5750     1.0  0.82224  0.95750  0.65757  1.0000
  S   S767      1.0  0.79420  0.51978  0.77457  1.0000
  H   H4587     1.0  0.79716  0.77466  0.85546  1.0000
  S   S768      1.0  0.79533  0.60686  0.83555  1.0000
  C   C5751     1.0  0.93544  0.89045  0.60875  1.0000
  H   H4588     1.0  0.80199  0.92191  0.65074  1.0000
  C   C5752     1.0  0.95441  0.88669  0.61028  1.0000
  C   C5753     1.0  0.97774  0.76740  0.74807  1.0000
  H   H4589     1.0  0.95632  0.65667  0.81153  1.0000
  H   H4590     1.0  0.93237  0.95542  0.59792  1.0000
  C   C5754     1.0  0.81036  0.89903  0.63568  1.0000
  C   C5755     1.0  0.96265  0.79543  0.72761  1.0000
  H   H4591     1.0  0.95688  0.81065  0.72438  1.0000
  H   H4592     1.0  0.86365  0.97222  0.62537  1.0000
  H   H4593     1.0  0.95410  0.74725  0.91021  1.0000
  C   C5756     1.0  0.97006  0.78712  0.74399  1.0000
  P   P191      1.0  0.98942  0.75689  0.76784  1.0000
  C   C5757     1.0  0.79162  0.55036  0.78972  1.0000
  H   H4594     1.0  0.98669  0.91573  0.66973  1.0000
  H   H4595     1.0  0.79246  0.74215  0.75836  1.0000
  H   H4596     1.0  0.79800  0.52886  0.73016  1.0000
  C   C5758     1.0  0.79506  0.87198  0.65014  1.0000
  H   H4597     1.0  0.79507  0.75869  0.78428  1.0000
  H   H4598     1.0  0.98434  0.74100  0.73806  1.0000
  H   H4599     1.0  0.79542  0.63071  0.96107  1.0000
  H   H4600     1.0  0.79319  0.92327  0.68817  1.0000
  H   H4601     1.0  0.79522  0.71273  0.87153  1.0000
  H   H4602     1.0  0.79283  0.88624  0.48303  1.0000
  H   H4603     1.0  0.98406  0.66776  0.83375  1.0000
  H   H4604     1.0  0.79687  0.67570  0.81332  1.0000
  H   H4605     1.0  0.98197  0.82887  0.61907  1.0000
  H   H4606     1.0  0.79273  0.85838  0.64940  1.0000
  C   C5759     1.0  0.79508  0.62440  0.94974  1.0000
  C   C5760     1.0  0.98635  0.90649  0.66081  1.0000
  H   H4607     1.0  0.98706  0.83264  0.68697  1.0000
  P   P192      1.0  0.98648  0.86509  0.62428  1.0000
  H   H4608     1.0  0.81551  0.82882  0.47483  1.0000
