data_image0
_chemical_formula_structural       CHPS3HCHCSH2FeCSFeS2FeS2FeSFeS3C6H4C6H4C6H2CHC2HCSC4HCHC2HC3HCHC7PC14FeC2H12C2H3C2HCFeH2CH2PCHC10FeH2CH2C2HCFeHCHC2SH4C3H2CHC3HPCH4C7H2C4HCSCHCH7C3HC6HC2HPH4C3HCHCHCH5C2H3C2H2PSC3H3C2HCHCHC5H3CFeHFeH2CH2CH2C3H5CH3CH2CH3C6PHCHCHC2H2CH2S2CHC2HCH3SH2CHCH3SCFeSHFeS2FeSFeS3CSHCHSFe2SHPFeS2FeS2FeSFeS4C3HFe2SFeSHSHCHCFeHC7H4C2H2C2H4C6H5C6H4C6H4C2H2C2HC2HC11PC8HC4H18CHC2HC6HC4HC2SCH2CSH2CH4C2H3C4SHC3HC2SCH3CH2C3PHCH2CH2CPHC3HFeC4FeHCSH2C5H2C2H3C2HC2H2C6PC2HCH2C5H2CHC2HCHCHPC2HSHC3HCH2CHC2H3CHCH3C2H2CH2C2HC2HCHCH3C2HCHC3HCSHCSHCSCH3CS2CHCH2FeH3CHC3HC4H2PH2C2HSCH2CHC3PCH2CHSC2HCHCHFeS2CFeS2FeSFeSFeCS3C2HCH2SPC8H6C7H5C2H3CHCH2PCH2C3H2CHFeH4C2PC2HC12HC2HCHCHCSCHC2H5CSH2C2HCSH2C4HC6HC2H3FeC2HCH4C2HC3HC2H3CH3SC2HCH2CH3FeS2FeS2FeSFeS3C2FeHSC5HCSFeS2FeSCFeSFeS3CHC5H3C2H3CH2C7H4C6H4C3HC2H6C3H7C4HC6HFeC4H2C6PC16H13CH3CH3C6PC9SHC7H11C2H4SC3PCSC2HCH2C4HCH2C2HCHCHCHCH3C4H2C4HCH2CHC2HC2PHC2HC4H2C4HC5H2C3FeH2FeH2CHCH2PSH4CH2C2SC3HCH3C2H3CHCHCHC4HPC2HCH3CH2CH2C3H3C4H3C2HC2HC2H4C2HCH2CSHCS2C3HCHSC4SHCHSC2HC3H2CH2C2HC2H4CHC3HC3HCHC2HSH3CHCHCHC2HCH2C2H2C4HC2FeSCFeS2FeSFeCS2H2C3FeSCH5CHCFeSFeSFeS2FeS2FeSFeS3C6H4C2H2C5H4C3HC5H2CH2CHCHSC6H4C6H3CHCH2C6H6C4HC7PHC6HC8HCH2CH7SHC2H5C7H5C2HCH5C7PC18H22C4FeHCH2C4SC2HCHCH2FeHC3HC4H2C2HC4HCP2C2H3SCH5C2HCHC5HC8PC18H12CPH6CHC6PCHC2H3C11H7SCH3C3H5S2CPC2HC2H3C2HCHC5HC2HCSH3C3HCH2CHCHC2H3FeH4C2H2CHCHCHCSFeS2FeS2FeSFeS3H2CSC2HSHCHSFeCHCHFeSHCHCH2SCH2SC2SHSCH2C4FeHC2HC2HFeH4CHCSCFeSHS2HC12H2C2HCHC6H4C6H4C6H4C3SHCHC2H3C9PC18H6PH13C2SCFeC5HFeCH3CH2CH4C11HC6H6S2CHCHSHCHC5H3FeHC5HSC3HCH2CHC4HC2SHC5H8SC2PC5H4C2HC3H2C7H2CH6C6PC10H3CPCH9CH3C3HCH4CHCH2C2HCH2SCH4C2FeHCHCSHSCSH4C2HCFeH2FeC3FeH2C3H3C2HPC2HCH3CHCH2CH3C6H3CHCHFeHC2H2CHCH4C2HC2HPH3CSHSHCHCHCH2C3H3CHC3HFeS2H2CHS2FeS3FeS2FeS2FeSFeS3C2SH2CH3FeS2FeS2FeSFeS3C2FeSH3C9HCH2C6H4C6H2C6H5CHC4H2CHCSCHC7H4C6H5C3HCHC2HSCSC5HC3H3C6PC18H16CH3PCHCHFe2C2H3C2HCHCHC2HC2HCHCH5CH2C2HPHC5HC2HC5HSC3PC18H7CH12FeH3C3H3C2H5C3SH4C4FeC2SFeH2CH2CHCH5C2HFeC6SCHCH8CH3CPCSHC6H2CHCH2CH3C2HCHCH2CH3PC4HC2H2C2HC2HCPH2CHC2FeHCH2PC9H4CHC2HSC3HCHC2HCHPC3H2C3H2C2HCHC3FeCHSHC2H3C6H3C8FeCH2CHSH3C4H3CHC3FeH2SC3HCHCHCH2C2HC2H3C2HC3HSHCH2C4SPH2C8HC2HC3H2CHC4HCHC3H4C3H4C2H2C2HCHCH2C3SCHCH3CH4CH3CHPCHCHC2HCHCH3C2FeCHCH3SHC2SC4HCHCFeH3CH4CHCHC2H2CHSHCHSHC2HC2HCH4C2H2C2HCHC3H3C3SC5HCH3C2H2C2HCHC2HCHC2H3CHCHC3HCHCH2C3H4CSCH3C2PH3CHC2H2C4HC3H2CH3FeH5C2HCH3CSHCSC4SCHC2S2C4HCHC3PC2H2C2PHC9H2C3H3CH2FeHC2HC2HC5HCS2H2FeHCH7CFeSCH2SC2HSH2CHSHC6HPH3FeC2FeC2SHSHSCFeH2C3HC5SH2C4H3C3H2C2HFeC2S2HC4SHCHCHPCFeH4CH2C6HCHPCH4FeHSFeSFeSFeS2HCSCSHCSC4SHC2H2C6SC3HC2H2C4PH3C3SHSH4C6HCH3C2HCHFeC2H3CH3C5HC2HC3HSHC2HC6PC7HC2HC5H12C4H4CHSFeHCHFeH2C3H4CH4SC3H3C2HCHCSHPSH2CHCH2C2HC2PSH4SCFeC2H2CHC2HC5HC3HC4HC2HCHCHSHCH2C2HC2HCHSHC3HC4SPC3HCSCFeCH3C2FeCFeH3FeCHCH6C3HC2HC6H2C3HCH2C3H5CHC3HC5HC3HC4HC4PC4HPFeHCH2CHC2HC2SC3HC2H2C2HCHCFeH5C2SFeC2HCH2CPCH4CSCHC3HC2H3C2H2SHCH2FeS2FeSFeSFeS4FeSFeS2FeS2FeSFeS3C6H4CH2C6H6PH2CSH2CPHC3HC3H4CHC7HCHC4HCH2CH2CH2C3HC3SC4H3CHC4HPC3SCHC2H3CSC3H3C2H3CFeH2C2H3C2H2C4HCFeHC6H5C3HCH7CHC2HFeCHCHSC4HSCHCHCH2C2HC3SHPC2PCHC7PC16H8CH11CH3C2HCS2H2CHC4H3CH2C2H2CHC2HC6HC3H2CHCH2C3HC2HC2H3CH2CH3C5HC2HC4H2CH2CHCHCHCHCHSC3HC3HCHC2SCH3CHCHFeS2FeS2FeSFeS3CH2CFeS2FeS2FeSFeS3H4CHC2FeHSFeS2FeSCFeCHSHC3H3CHC6H2CHC6H4CHC4H4C3H2C2H2CHC8H4C3H2C3FeC2H5C2HC3PC8HSCHC6H3CH7CH8C2H3SC2HCHCHC2HCH2CHCHCHC6PC15HC2H10CH6CH3CHC2HC4H3C3HCHCHCSHC5H3CHC3SCH3C3SH2C2HCHCHCHC4HC2HC3H2C2HCH2SCHC2HC4PHC5H4CH2C3H3CH2PCH2CHPCPC7H2SH3C2HC6PC10HC7H15CHC2HC6HCHCHC6HC2H4PC3H2C4SCHCH3C4H4C2HC4HCHC4H3CH3C3FeC2HCH2FeH2C3H4SHCHCH2C4H2CSCSC2HCHCHCHC2H2CHC3PH2CH3CHCHSFe2SFeHSHCH2S2FeSCFeS2FeSFeS3FeSFeS2FeSFeS4HC6HC4H2C3H3CH5CH2CH2CHC6H2CHC6H4C6H4C2HC3PH3SCHCHCHFeCHC2H2C2SC2HCH4C2SC2H2CHC2HCH3CH3CHSC10H4PCH3C2HC6PC18H21C4H2C2HCH3CH2C3H2PC2SH2C2H5CHC3HCSC4HC3HCH4C3PCHCH2CHCHC4HC4HCHCSHCHCH2CFeCHC4HC5H2CHCHCH2C3HC4FeCSH2CHC2HC2FeCH2C3FeSHC3HC4SHCH2CH4CSH2CSFeS2FeS2FeSFeS3HC4H2CFeS2Fe2SFeHS2HC4H2C7H2C8H4C2H2C2HFeC7H4C6H4CHCHC2HC8HCHCH3C3HCHSCH5C4H3C2HC8H7C4H2PSHCHCH5C3H3C7H3C3HCHC2H3C6H6SH2C2SH2CSC5H5CH3CHC3HC3H2SH2C5HC3H2C3HCHCHC2HC2PCH2C2H2CH2CSHCH2P2CH2C4HCHCH2CHPHCPHC3H2CFeHC2HCH2C4H6C2SH2CHC2H3CHCHC3H3CHC3HC3FeCHC3HCHCH2C6H2CHC5SFeHSHSH2SH4C3H4C3FeH2CH3C6H3SCH3CH2CHC3H2C3H2C3HC3HFeCHC3HPCH3C2HCSC2HCHCSHCH3C4HPCHCHCHC4HC8H2CHCH3C5HCHC2H2CHCH2C2HCHC3HC2H2SCPC2FeCHCH2C2HCH2C2PH2C3HC3H2S2HCHC3HC5SH2C3H3CFeCHC3H4CH4CH2CHFeCSFeS2CFeS2FeS2FeSFeS3FeS2FeS2FeHFeS3CHCH2CHC2H2C3H2C4FeSFeS2FeSFeS3CHC5H3CH2C3HC2H2C9H4C2H2C2HCH2C2HPHC2H3CPCH2C6H5CSHC6H4C4HCHC2H2CHC4HC2HC2PC6HC3HC7H5SHCH2C3H5CHCHPC18H18C3HCH3CH2C2HCHC3H2CSCH3C2SCHCH2C8HCHFeH3CHCHC2HCH2CH3C2H2CH2C6PC18H22C2HCHCHC2H3CH2PC3H2C2H2SC2HC4HFeCHCH2PCHC8H3C2HFeH3C4SC2HCH2C3HC2HC2PH3C3H3CSCH2C2H3CHCHC6HC2HC2SC2HC2HCH3CFeS2FeS2FeSFeS3HFeS2CH2CFeSC2SHFeSFeSHSHCSC2SC2H4C4H4C5H2C6H4C6H4C6H4C2FeC2H2CH4C4HC5HC3HCH2CFeCH2CHCHCHC2H3CSPC16H13CHC3SCSC2H2C4SFeC3HC2FeHFeCFePH2C3HC3H3C6PC18H20C2SC3H3C2SHC4H6CHCH5SHPC2HCH2C4HC2H2C2PCH4C5H3CH2C3HC2HCHCHCHCHC2HCHFeH2CHC4HC2HC4H2C2HCHCHCH2SC3PH3CHCH2CHCHCH2PC2SHCFeSFeS2FeS2FeSFeS3CHCSFeS2FeS2FeSFeS3C2HCHCHC2HCHC4H6C2H2C7H3CHC6H5C6H4C6H3C3H2CHC3H3C2HCHC3HC2H5CH2C3H3CH5C7PC7H11C2SC3H3CH2CSCHC5PC9H2C3PHC2H4CH8C4HC3HCH2CHC2HCFeCHCHC4H2C2H2CH5C6PC2HC5H2C2HC5H5C3H9C2H4C6HCHCHCH2CPC4SHC2HCHC2HCHC3H3C4PH3CHCHCHC4HCHC2HC2H2CSFeC4HSHC2HC3HCH2C3PHC2H2CH2C4H2C2SH2CHCHCH2C4HCHC3HC2HC3H2C3HCH5C2HCH6CHCH2C2S2FeSFeSFeS2FeHFeS2HCHFeS2FeSCFeHFeS3Fe2S2FeS2FeSFeHS2PHC2HFeCHC2HC2H2CHC6HCH2SHCH2C3H2C3HCHC3HC4H2CH3C6H3CHCH2C2HC6H4C2HCHC7H4C8PC4SC13H7C2H13C2H3C7PCHC8HCH10SHC2HC4PH2C4HC4HC2SC5HCSCH3CH10C6H4SHC9H6SH2C2FeC4HCHCH3C2HC2H2CHC2SC2SH2CSFeHC3H2C7H3C2H2PHCHCPHC4HCHC2HC3H2CHPCH3CHC2H4CH2FeH4C5H6C4HPC2HCHC2HC5HCHCH2CHC2HSH2C4HC3HCH2C4HCH5CHC2SHCHC3SH2CHCH4SHCH3SHC4H2C2HC3HCH2FeSCFe2S2CH2C2HFeSCSCHPCHSH2C2H3CH2C3H2C4H5CHC2HC2HC6H5C3H2CHC2H2S2C7H2C4H3SHC2H2C5H2CHCH2C4FeC2PH3CH2C2HCHC3HFeCHCH2SHCHCH2CSCH2CHC2HCSC4FeSCH3CFeCH2CHC2H6C4H2C3SCH3SCHC6H2CHC2FeC2PC17H3CHCH3PHCH2CHSHFeHSFeS2CHSHCSHCFeS2FeC2FeSHCSHC4H2CSCH2FeS2FeS2FeCFeS3FeSCFeS2FeSFeS3H3CH4C2HC2HCHC3H2CHC6H8C6H2CHFeH3CHC6H4C6H3C7H3CHC6H2PHCH2SHC2H2C2H2CHSC2H6C5H2CH3CH4CH5CFeC3SC6PC18HC2H9CH7CHC2HC7HSH2CH2CPH3C3HFeHCH2C3H2SHCHCH2C3SH2CPCSHCH2CH2C7PC4HC3HC6HPCH8PHC3H3C2H2C4HFeC2HC2H2CHSH2CHC2H3C3H2CH2C2SC5H2CHC3HCHC4H5CFeSHFeHSFe2HS2Fe2S3FeSC2SCHSHFeSFeSH2SFeSHC10H4CHCHC4SHCH3FeHC6H4C4H4CSC2H2CH3CH2CH2C3HCSC8H3C3HSCH2SPC2H5CSHCPH4C6H3CH3CHCH2C3FeSHSH2C2HCHCHS2CH2C3H2C4HSCSC6PCH2SHCHC11H6C4H7CFeH2C3PC18FeH3SCH10CH4C3H3CHC2HC3HSHC3HCH2CH4SC2H2CHCH2CP2HFeH4C3HC3HCHSHC2HFeC2PHCHCHC2HSHC6H3CHCH2PC3H6C3HC3PC20HCH2SCHC3HC3H2C2H2CHFeC2H3CHC3HCS
_chemical_formula_sum              "C4320 H3456 P144 S576 Fe288"
_cell_length_a       64.3467
_cell_length_b       65.0442
_cell_length_c       97.8786
_cell_angle_alpha    76.9809
_cell_angle_beta     77.3724
_cell_angle_gamma    101.845

_space_group_name_H-M_alt    "P 1"
_space_group_IT_number       1

loop_
  _space_group_symop_operation_xyz
  'x, y, z'

loop_
  _atom_site_type_symbol
  _atom_site_label
  _atom_site_symmetry_multiplicity
  _atom_site_fract_x
  _atom_site_fract_y
  _atom_site_fract_z
  _atom_site_occupancy
  C   C1        1.0  0.48046  0.26485  0.11828  1.0000
  H   H1        1.0  0.12417  0.28316  0.01287  1.0000
  P   P1        1.0  0.04921  0.05456  0.06585  1.0000
  S   S1        1.0  0.47869  0.32376  0.07765  1.0000
  S   S2        1.0  0.04603  0.08475  0.12663  1.0000
  S   S3        1.0  0.04086  0.12623  0.09046  1.0000
  H   H2        1.0  0.44979  0.32841  0.21915  1.0000
  C   C2        1.0  0.04222  0.01437  0.03933  1.0000
  H   H3        1.0  0.10535  0.19968  0.05046  1.0000
  C   C3        1.0  0.11509  0.19491  0.07042  1.0000
  S   S4        1.0  0.00170  0.10241  0.12881  1.0000
  H   H4        1.0  0.25020  0.19665  0.19342  1.0000
  H   H5        1.0  0.04586  0.01603  0.02773  1.0000
  Fe  Fe1       1.0  0.02378  0.05192  0.12830  1.0000
  C   C4        1.0  0.00341  0.04654  0.07738  1.0000
  S   S5        1.0  0.08605  0.10266  0.20303  1.0000
  Fe  Fe2       1.0  0.15870  0.21966  0.01870  1.0000
  S   S6        1.0  0.19511  0.22756  0.00804  1.0000
  S   S7        1.0  0.13798  0.24363  0.01532  1.0000
  Fe  Fe3       1.0  0.15641  0.17355  0.03652  1.0000
  S   S8        1.0  0.19260  0.17806  0.02715  1.0000
  S   S9        1.0  0.13891  0.14098  0.05326  1.0000
  Fe  Fe4       1.0  0.19708  0.21146  0.03034  1.0000
  S   S10       1.0  0.22085  0.22412  0.04221  1.0000
  Fe  Fe5       1.0  0.18690  0.19338  0.00586  1.0000
  S   S11       1.0  0.16123  0.20599  0.04129  1.0000
  S   S12       1.0  0.15019  0.18635  0.01497  1.0000
  S   S13       1.0  0.32181  0.24034  0.01042  1.0000
  C   C5        1.0  0.24873  0.22875  0.03291  1.0000
  C   C6        1.0  0.25552  0.23171  0.01783  1.0000
  C   C7        1.0  0.27808  0.23585  0.01064  1.0000
  C   C8        1.0  0.29362  0.23618  0.01868  1.0000
  C   C9        1.0  0.28669  0.23285  0.03377  1.0000
  C   C10       1.0  0.26438  0.22958  0.04082  1.0000
  H   H6        1.0  0.24341  0.23080  0.01171  1.0000
  H   H7        1.0  0.28334  0.23812  0.99900  1.0000
  H   H8        1.0  0.29868  0.23300  0.03996  1.0000
  H   H9        1.0  0.25916  0.22721  0.05247  1.0000
  C   C11       1.0  0.06811  0.13028  0.08015  1.0000
  C   C12       1.0  0.08182  0.11850  0.08559  1.0000
  C   C13       1.0  0.10342  0.12164  0.07712  1.0000
  C   C14       1.0  0.11161  0.13706  0.06335  1.0000
  C   C15       1.0  0.09794  0.14891  0.05787  1.0000
  C   C16       1.0  0.07619  0.14552  0.06629  1.0000
  H   H10       1.0  0.07579  0.10705  0.09634  1.0000
  H   H11       1.0  0.11392  0.11233  0.08131  1.0000
  H   H12       1.0  0.10416  0.16065  0.04718  1.0000
  H   H13       1.0  0.06560  0.15470  0.06206  1.0000
  C   C17       1.0  0.06707  0.09929  0.19255  1.0000
  C   C18       1.0  0.07499  0.10234  0.17748  1.0000
  C   C19       1.0  0.06028  0.10044  0.16879  1.0000
  C   C20       1.0  0.03760  0.09644  0.17504  1.0000
  C   C21       1.0  0.08459  0.16342  0.10550  1.0000
  C   C22       1.0  0.04430  0.09408  0.19891  1.0000
  H   H14       1.0  0.09259  0.10634  0.17251  1.0000
  H   H15       1.0  0.06653  0.10286  0.15720  1.0000
  C   C23       1.0  0.49155  0.21038  0.02983  1.0000
  H   H16       1.0  0.03802  0.09172  0.21049  1.0000
  C   C24       1.0  0.17357  0.27681  0.99622  1.0000
  C   C25       1.0  0.25598  0.22855  0.19704  1.0000
  H   H17       1.0  0.05059  0.14424  0.11334  1.0000
  C   C26       1.0  0.49970  0.24663  0.22656  1.0000
  S   S14       1.0  0.47589  0.29953  0.04531  1.0000
  C   C27       1.0  0.06666  0.14147  0.13052  1.0000
  C   C28       1.0  0.15189  0.30943  0.99843  1.0000
  C   C29       1.0  0.49776  0.19061  0.15793  1.0000
  C   C30       1.0  0.44444  0.31926  0.00259  1.0000
  H   H18       1.0  0.18146  0.19467  0.21971  1.0000
  C   C31       1.0  0.47774  0.25144  0.13236  1.0000
  H   H19       1.0  0.13524  0.13109  0.23493  1.0000
  C   C32       1.0  0.42264  0.31832  0.00197  1.0000
  C   C33       1.0  0.47537  0.29150  0.20678  1.0000
  H   H20       1.0  0.24713  0.29885  0.03107  1.0000
  C   C34       1.0  0.47896  0.17535  0.04825  1.0000
  C   C35       1.0  0.01980  0.14250  0.22085  1.0000
  C   C36       1.0  0.15184  0.27102  0.00508  1.0000
  H   H21       1.0  0.12688  0.14108  0.10253  1.0000
  C   C37       1.0  0.14092  0.28741  0.00598  1.0000
  H   H22       1.0  0.01584  0.01135  0.21381  1.0000
  C   C38       1.0  0.49601  0.16808  0.14140  1.0000
  C   C39       1.0  0.30966  0.24313  0.06606  1.0000
  C   C40       1.0  0.30915  0.22102  0.06836  1.0000
  C   C41       1.0  0.32840  0.21506  0.06317  1.0000
  C   C42       1.0  0.34813  0.23121  0.05555  1.0000
  C   C43       1.0  0.34866  0.25348  0.05290  1.0000
  C   C44       1.0  0.32934  0.25933  0.05841  1.0000
  P   P2        1.0  0.37389  0.27421  0.04225  1.0000
  C   C45       1.0  0.39214  0.28019  0.05335  1.0000
  C   C46       1.0  0.38716  0.26435  0.02771  1.0000
  C   C47       1.0  0.41017  0.26750  0.02363  1.0000
  C   C48       1.0  0.42013  0.26024  0.01209  1.0000
  C   C49       1.0  0.40728  0.25006  0.00443  1.0000
  C   C50       1.0  0.38437  0.24653  0.00859  1.0000
  C   C51       1.0  0.37434  0.25338  0.02028  1.0000
  C   C52       1.0  0.40938  0.29958  0.04821  1.0000
  C   C53       1.0  0.42353  0.30461  0.05667  1.0000
  C   C54       1.0  0.42080  0.29019  0.07027  1.0000
  C   C55       1.0  0.40370  0.27080  0.07548  1.0000
  C   C56       1.0  0.38937  0.26578  0.06706  1.0000
  C   C57       1.0  0.36654  0.29880  0.03455  1.0000
  C   C58       1.0  0.36032  0.30158  0.02151  1.0000
  Fe  Fe6       1.0  0.33519  0.26011  0.98692  1.0000
  C   C59       1.0  0.03541  0.14200  0.19615  1.0000
  C   C60       1.0  0.17350  0.31518  0.98930  1.0000
  H   H23       1.0  0.25838  0.25808  0.20378  1.0000
  H   H24       1.0  0.29465  0.24771  0.06994  1.0000
  H   H25       1.0  0.29375  0.20850  0.07397  1.0000
  H   H26       1.0  0.32791  0.19791  0.06479  1.0000
  H   H27       1.0  0.36282  0.22631  0.05140  1.0000
  H   H28       1.0  0.32925  0.27633  0.05659  1.0000
  H   H29       1.0  0.42064  0.27607  0.02898  1.0000
  H   H30       1.0  0.43795  0.26339  0.00867  1.0000
  H   H31       1.0  0.41511  0.24547  0.99502  1.0000
  H   H32       1.0  0.37433  0.23889  0.00256  1.0000
  H   H33       1.0  0.35655  0.25054  0.02330  1.0000
  H   H34       1.0  0.41204  0.31077  0.03756  1.0000
  C   C61       1.0  0.45778  0.31157  0.99267  1.0000
  C   C62       1.0  0.17510  0.17863  0.22756  1.0000
  H   H35       1.0  0.40160  0.25970  0.08605  1.0000
  H   H36       1.0  0.37624  0.25071  0.07128  1.0000
  H   H37       1.0  0.36064  0.28957  0.01548  1.0000
  C   C63       1.0  0.35840  0.33304  0.03671  1.0000
  C   C64       1.0  0.49928  0.17103  0.04328  1.0000
  H   H38       1.0  0.09180  0.01480  0.09354  1.0000
  C   C65       1.0  0.26264  0.29730  0.02495  1.0000
  Fe  Fe7       1.0  0.01828  0.08623  0.14443  1.0000
  H   H39       1.0  0.07934  0.18332  0.00063  1.0000
  H   H40       1.0  0.00663  0.10671  0.07748  1.0000
  C   C66       1.0  0.01403  0.04266  0.18132  1.0000
  H   H41       1.0  0.49038  0.20030  0.16425  1.0000
  H   H42       1.0  0.14365  0.32207  0.99972  1.0000
  P   P3        1.0  0.24862  0.30957  0.99997  1.0000
  C   C67       1.0  0.22089  0.29735  0.01187  1.0000
  H   H43       1.0  0.05349  0.14195  0.21214  1.0000
  C   C68       1.0  0.17332  0.14926  0.07537  1.0000
  C   C69       1.0  0.06869  0.00322  0.20516  1.0000
  C   C70       1.0  0.14659  0.17290  0.08808  1.0000
  C   C71       1.0  0.07486  0.05867  0.10010  1.0000
  C   C72       1.0  0.08343  0.01976  0.22210  1.0000
  C   C73       1.0  0.20510  0.30940  0.01280  1.0000
  C   C74       1.0  0.18401  0.29996  0.02255  1.0000
  C   C75       1.0  0.17834  0.27829  0.03116  1.0000
  C   C76       1.0  0.19385  0.26614  0.03013  1.0000
  C   C77       1.0  0.21496  0.27551  0.02043  1.0000
  Fe  Fe8       1.0  0.48353  0.32699  0.02488  1.0000
  H   H44       1.0  0.48602  0.08938  0.99971  1.0000
  H   H45       1.0  0.19381  0.22576  0.10896  1.0000
  C   C78       1.0  0.07298  0.03181  0.08160  1.0000
  H   H46       1.0  0.13176  0.23574  0.08539  1.0000
  H   H47       1.0  0.00431  0.01957  0.11295  1.0000
  C   C79       1.0  0.47040  0.28212  0.11678  1.0000
  C   C80       1.0  0.36542  0.31467  0.04215  1.0000
  H   H48       1.0  0.18322  0.14012  0.07011  1.0000
  C   C81       1.0  0.09759  0.11492  0.03020  1.0000
  Fe  Fe9       1.0  0.49396  0.32401  0.05450  1.0000
  H   H49       1.0  0.43209  0.29407  0.07668  1.0000
  C   C82       1.0  0.06325  0.06202  0.08966  1.0000
  H   H50       1.0  0.47035  0.33053  0.10605  1.0000
  C   C83       1.0  0.28829  0.29986  0.00207  1.0000
  C   C84       1.0  0.11179  0.20560  0.99395  1.0000
  S   S15       1.0  0.00786  0.06537  0.11132  1.0000
  H   H51       1.0  0.49872  0.23029  0.17811  1.0000
  H   H52       1.0  0.16174  0.27066  0.03825  1.0000
  H   H53       1.0  0.18947  0.24932  0.03672  1.0000
  H   H54       1.0  0.22665  0.26568  0.01966  1.0000
  C   C85       1.0  0.48627  0.18034  0.14965  1.0000
  C   C86       1.0  0.15790  0.16331  0.22580  1.0000
  C   C87       1.0  0.22484  0.20778  0.22432  1.0000
  H   H55       1.0  0.13162  0.23678  0.12778  1.0000
  H   H56       1.0  0.47136  0.29201  0.10603  1.0000
  C   C88       1.0  0.02967  0.09307  0.19014  1.0000
  H   H57       1.0  0.16922  0.20134  0.07139  1.0000
  C   C89       1.0  0.45608  0.29528  0.20362  1.0000
  C   C90       1.0  0.06214  0.04857  0.08035  1.0000
  C   C91       1.0  0.00566  0.08999  0.07717  1.0000
  H   H58       1.0  0.17176  0.30918  0.02290  1.0000
  P   P4        1.0  0.04865  0.02410  0.18546  1.0000
  C   C92       1.0  0.06677  0.04471  0.16919  1.0000
  H   H59       1.0  0.23122  0.24014  0.22765  1.0000
  H   H60       1.0  0.07636  0.00609  0.16599  1.0000
  H   H61       1.0  0.11328  0.17760  0.07182  1.0000
  H   H62       1.0  0.08697  0.14161  0.14531  1.0000
  C   C93       1.0  0.12563  0.22749  0.07807  1.0000
  C   C94       1.0  0.08605  0.05906  0.16961  1.0000
  C   C95       1.0  0.10107  0.07322  0.15668  1.0000
  C   C96       1.0  0.09725  0.07283  0.14322  1.0000
  C   C97       1.0  0.07835  0.05833  0.14271  1.0000
  C   C98       1.0  0.06298  0.04468  0.15560  1.0000
  C   C99       1.0  0.23504  0.23036  0.22034  1.0000
  H   H63       1.0  0.07575  0.06915  0.10719  1.0000
  H   H64       1.0  0.20863  0.32577  0.00565  1.0000
  C   C100      1.0  0.41419  0.30975  0.99168  1.0000
  C   C101      1.0  0.07594  0.03807  0.21740  1.0000
  C   C102      1.0  0.06463  0.03892  0.20670  1.0000
  C   C103      1.0  0.14119  0.22919  0.12086  1.0000
  H   H65       1.0  0.09739  0.07429  0.05888  1.0000
  C   C104      1.0  0.08634  0.14771  0.13419  1.0000
  S   S16       1.0  0.03646  0.02169  0.12986  1.0000
  C   C105      1.0  0.08399  0.02809  0.09237  1.0000
  H   H66       1.0  0.39743  0.30920  0.99143  1.0000
  C   C106      1.0  0.06582  0.14927  0.11620  1.0000
  H   H67       1.0  0.07890  0.05165  0.22205  1.0000
  H   H68       1.0  0.08968  0.05953  0.17981  1.0000
  H   H69       1.0  0.11571  0.08444  0.15714  1.0000
  H   H70       1.0  0.10894  0.08367  0.13320  1.0000
  H   H71       1.0  0.07553  0.05747  0.13233  1.0000
  H   H72       1.0  0.04844  0.03353  0.15492  1.0000
  H   H73       1.0  0.05515  0.04869  0.03629  1.0000
  C   C107      1.0  0.04294  0.03081  0.05926  1.0000
  C   C108      1.0  0.17853  0.17199  0.06982  1.0000
  C   C109      1.0  0.02504  0.08392  0.07244  1.0000
  H   H74       1.0  0.05880  0.05319  0.20324  1.0000
  C   C110      1.0  0.46571  0.24909  0.06997  1.0000
  C   C111      1.0  0.44391  0.23790  0.07784  1.0000
  C   C112      1.0  0.43753  0.23331  0.09303  1.0000
  C   C113      1.0  0.45297  0.23995  0.10033  1.0000
  C   C114      1.0  0.47485  0.25161  0.09245  1.0000
  C   C115      1.0  0.48112  0.25611  0.07719  1.0000
  H   H75       1.0  0.04925  0.14137  0.18779  1.0000
  C   C116      1.0  0.30259  0.29254  0.00970  1.0000
  C   C117      1.0  0.06840  0.07765  0.05153  1.0000
  H   H76       1.0  0.01215  0.09011  0.19505  1.0000
  P   P5        1.0  0.49479  0.25878  0.10219  1.0000
  H   H77       1.0  0.09325  0.03856  0.11007  1.0000
  H   H78       1.0  0.46759  0.11898  0.99520  1.0000
  H   H79       1.0  0.45944  0.19846  0.04542  1.0000
  H   H80       1.0  0.48725  0.16045  0.13478  1.0000
  C   C118      1.0  0.45923  0.28691  0.12914  1.0000
  C   C119      1.0  0.45736  0.27404  0.14309  1.0000
  C   C120      1.0  0.46623  0.25605  0.14468  1.0000
  H   H81       1.0  0.09172  0.01894  0.23066  1.0000
  C   C121      1.0  0.14146  0.15002  0.09361  1.0000
  H   H82       1.0  0.29299  0.30358  0.99026  1.0000
  C   C122      1.0  0.25054  0.24067  0.20675  1.0000
  H   H83       1.0  0.02925  0.00797  0.08090  1.0000
  C   C123      1.0  0.15483  0.13828  0.08727  1.0000
  H   H84       1.0  0.05542  0.07530  0.08874  1.0000
  H   H85       1.0  0.47072  0.25246  0.05820  1.0000
  H   H86       1.0  0.43200  0.23284  0.07213  1.0000
  H   H87       1.0  0.42064  0.22456  0.09917  1.0000
  H   H88       1.0  0.44781  0.23602  0.11212  1.0000
  C   C124      1.0  0.23048  0.19571  0.21452  1.0000
  C   C125      1.0  0.18414  0.29871  0.98796  1.0000
  H   H89       1.0  0.46628  0.16353  0.05741  1.0000
  H   H90       1.0  0.22301  0.17822  0.21743  1.0000
  H   H91       1.0  0.12035  0.16618  0.12655  1.0000
  C   C126      1.0  0.06147  0.02178  0.20021  1.0000
  C   C127      1.0  0.47439  0.27822  0.22052  1.0000
  H   H92       1.0  0.07317  0.02167  0.07423  1.0000
  H   H93       1.0  0.44921  0.27814  0.15265  1.0000
  P   P6        1.0  0.49935  0.27470  0.22529  1.0000
  S   S17       1.0  0.01915  0.09887  0.16416  1.0000
  C   C128      1.0  0.10538  0.10212  0.04035  1.0000
  C   C129      1.0  0.11063  0.20738  0.05831  1.0000
  C   C130      1.0  0.10517  0.16175  0.12353  1.0000
  H   H94       1.0  0.18220  0.26438  0.99566  1.0000
  H   H95       1.0  0.08342  0.16898  0.09450  1.0000
  H   H96       1.0  0.45213  0.30073  0.12793  1.0000
  C   C131      1.0  0.14303  0.20580  0.10467  1.0000
  C   C132      1.0  0.03293  0.00999  0.06925  1.0000
  H   H97       1.0  0.25805  0.26916  0.99498  1.0000
  C   C133      1.0  0.47506  0.19496  0.04148  1.0000
  H   H98       1.0  0.04076  0.09622  0.06908  1.0000
  C   C134      1.0  0.04747  0.03289  0.04424  1.0000
  H   H99       1.0  0.47464  0.31231  0.99291  1.0000
  C   C135      1.0  0.26782  0.30154  0.00970  1.0000
  C   C136      1.0  0.09149  0.19642  0.99191  1.0000
  C   C137      1.0  0.10441  0.16995  0.10913  1.0000
  C   C138      1.0  0.13078  0.21572  0.11366  1.0000
  C   C139      1.0  0.16390  0.23285  0.11915  1.0000
  H   H100      1.0  0.00248  0.08280  0.22808  1.0000
  H   H101      1.0  0.46990  0.18203  0.14955  1.0000
  H   H102      1.0  0.26801  0.23658  0.18653  1.0000
  C   C140      1.0  0.43440  0.27166  0.22750  1.0000
  Fe  Fe10      1.0  0.02774  0.09818  0.11115  1.0000
  H   H103      1.0  0.43691  0.31957  0.05255  1.0000
  Fe  Fe11      1.0  0.07270  0.09521  0.22760  1.0000
  H   H104      1.0  0.30787  0.28121  0.03073  1.0000
  H   H105      1.0  0.45705  0.30594  0.19310  1.0000
  C   C141      1.0  0.49148  0.10142  0.98911  1.0000
  H   H106      1.0  0.19261  0.18043  0.06038  1.0000
  H   H107      1.0  0.05206  0.13050  0.13876  1.0000
  C   C142      1.0  0.02255  0.03025  0.19131  1.0000
  H   H108      1.0  0.12422  0.25752  0.06388  1.0000
  H   H109      1.0  0.48877  0.22589  0.02486  1.0000
  C   C143      1.0  0.00983  0.02129  0.20593  1.0000
  C   C144      1.0  0.17620  0.22298  0.11027  1.0000
  C   C145      1.0  0.29702  0.28761  0.02489  1.0000
  H   H110      1.0  0.36964  0.31273  0.05240  1.0000
  H   H111      1.0  0.46458  0.24597  0.15550  1.0000
  H   H112      1.0  0.27257  0.28593  0.04432  1.0000
  H   H113      1.0  0.47706  0.25758  0.17494  1.0000
  H   H114      1.0  0.42083  0.28925  0.21172  1.0000
  C   C146      1.0  0.12142  0.23998  0.06584  1.0000
  H   H115      1.0  0.06927  0.11906  0.02272  1.0000
  H   H116      1.0  0.10887  0.12956  0.02222  1.0000
  H   H117      1.0  0.41205  0.32391  0.00966  1.0000
  C   C147      1.0  0.08495  0.04154  0.10162  1.0000
  H   H118      1.0  0.17575  0.20191  0.09638  1.0000
  H   H119      1.0  0.11522  0.19990  0.00429  1.0000
  C   C148      1.0  0.24595  0.20607  0.20092  1.0000
  H   H120      1.0  0.00198  0.02957  0.07779  1.0000
  H   H121      1.0  0.11124  0.23965  0.04626  1.0000
  H   H122      1.0  0.31763  0.28986  0.00388  1.0000
  C   C149      1.0  0.11399  0.22994  0.05594  1.0000
  C   C150      1.0  0.27712  0.29017  0.03252  1.0000
  C   C151      1.0  0.12249  0.20478  0.08045  1.0000
  C   C152      1.0  0.16584  0.20945  0.10308  1.0000
  C   C153      1.0  0.09091  0.08359  0.05099  1.0000
  C   C154      1.0  0.45364  0.26762  0.23063  1.0000
  P   P7        1.0  0.12901  0.18830  0.09563  1.0000
  H   H123      1.0  0.49178  0.21643  0.09530  1.0000
  C   C155      1.0  0.07530  0.10901  0.03053  1.0000
  H   H124      1.0  0.04347  0.08618  0.04137  1.0000
  C   C156      1.0  0.43565  0.28567  0.21405  1.0000
  H   H125      1.0  0.11315  0.21302  0.11508  1.0000
  C   C157      1.0  0.16516  0.18376  0.07607  1.0000
  C   C158      1.0  0.06076  0.09040  0.04112  1.0000
  H   H126      1.0  0.15046  0.12060  0.09123  1.0000
  H   H127      1.0  0.02159  0.14231  0.23164  1.0000
  C   C159      1.0  0.02409  0.06215  0.07239  1.0000
  H   H128      1.0  0.17196  0.24329  0.12473  1.0000
  H   H129      1.0  0.12263  0.10691  0.04019  1.0000
  S   S18       1.0  0.45427  0.33099  0.01556  1.0000
  S   S19       1.0  0.40474  0.32995  0.21683  1.0000
  C   C160      1.0  0.35320  0.31989  0.01616  1.0000
  H   H130      1.0  0.48438  0.23739  0.13397  1.0000
  C   C161      1.0  0.07953  0.00220  0.21614  1.0000
  C   C162      1.0  0.01504  0.14163  0.19328  1.0000
  H   H131      1.0  0.01365  0.14088  0.18258  1.0000
  C   C163      1.0  0.03775  0.14223  0.20994  1.0000
  H   H132      1.0  0.02353  0.05008  0.17006  1.0000
  H   H133      1.0  0.15101  0.16748  0.21672  1.0000
  H   H134      1.0  0.34827  0.32166  0.00616  1.0000
  S   S20       1.0  0.48944  0.30406  0.16687  1.0000
  H   H135      1.0  0.49781  0.26501  0.07077  1.0000
  H   H136      1.0  0.49090  0.29907  0.19840  1.0000
  C   C164      1.0  0.49457  0.26293  0.17376  1.0000
  H   H137      1.0  0.28908  0.31932  0.23380  1.0000
  C   C165      1.0  0.00899  0.00438  0.11472  1.0000
  H   H138      1.0  0.43082  0.33232  0.18875  1.0000
  H   H139      1.0  0.49438  0.22021  0.05747  1.0000
  H   H140      1.0  0.41851  0.26423  0.23556  1.0000
  S   S21       1.0  0.20340  0.18516  0.98588  1.0000
  C   C166      1.0  0.48090  0.11810  0.98657  1.0000
  Fe  Fe12      1.0  0.36907  0.28869  0.36418  1.0000
  S   S22       1.0  0.34910  0.26058  0.38359  1.0000
  H   H141      1.0  0.41109  0.32588  0.42475  1.0000
  Fe  Fe13      1.0  0.39709  0.26205  0.35152  1.0000
  S   S23       1.0  0.37919  0.23167  0.37001  1.0000
  S   S24       1.0  0.42870  0.26515  0.33488  1.0000
  Fe  Fe14      1.0  0.34815  0.24141  0.36709  1.0000
  S   S25       1.0  0.31619  0.21620  0.36904  1.0000
  Fe  Fe15      1.0  0.38186  0.25404  0.38451  1.0000
  S   S26       1.0  0.39301  0.24627  0.40529  1.0000
  S   S27       1.0  0.36625  0.27025  0.34757  1.0000
  S   S28       1.0  0.40163  0.28346  0.36614  1.0000
  C   C167      1.0  0.23653  0.27017  0.40214  1.0000
  S   S29       1.0  0.40125  0.30548  0.25702  1.0000
  H   H142      1.0  0.44155  0.23639  0.35722  1.0000
  C   C168      1.0  0.24388  0.32097  0.28522  1.0000
  H   H143      1.0  0.24488  0.28162  0.41971  1.0000
  S   S30       1.0  0.47501  0.23580  0.47050  1.0000
  Fe  Fe16      1.0  0.48662  0.27228  0.46088  1.0000
  Fe  Fe17      1.0  0.36736  0.30435  0.26960  1.0000
  S   S31       1.0  0.34422  0.27146  0.28238  1.0000
  H   H144      1.0  0.29472  0.13615  0.29178  1.0000
  P   P8        1.0  0.20520  0.19392  0.24197  1.0000
  Fe  Fe18      1.0  0.22292  0.20282  0.32255  1.0000
  S   S32       1.0  0.22818  0.23892  0.31386  1.0000
  S   S33       1.0  0.24205  0.18770  0.33744  1.0000
  Fe  Fe19      1.0  0.18593  0.19085  0.30679  1.0000
  S   S34       1.0  0.18878  0.22660  0.29745  1.0000
  S   S35       1.0  0.16351  0.16115  0.30250  1.0000
  Fe  Fe20      1.0  0.22545  0.23129  0.29297  1.0000
  S   S36       1.0  0.24960  0.25225  0.27175  1.0000
  Fe  Fe21      1.0  0.19141  0.23122  0.31926  1.0000
  S   S37       1.0  0.17403  0.25298  0.32990  1.0000
  S   S38       1.0  0.22303  0.19563  0.30105  1.0000
  S   S39       1.0  0.18557  0.19497  0.32931  1.0000
  S   S40       1.0  0.45981  0.28931  0.46473  1.0000
  C   C169      1.0  0.19766  0.24309  0.26078  1.0000
  C   C170      1.0  0.48456  0.06919  0.34317  1.0000
  C   C171      1.0  0.34548  0.28817  0.41415  1.0000
  H   H145      1.0  0.25859  0.10877  0.30277  1.0000
  Fe  Fe22      1.0  0.03210  0.08806  0.25218  1.0000
  Fe  Fe23      1.0  0.07886  0.10893  0.25530  1.0000
  S   S41       1.0  0.09933  0.13701  0.26219  1.0000
  Fe  Fe24      1.0  0.06381  0.06027  0.25598  1.0000
  S   S42       1.0  0.06637  0.02684  0.26728  1.0000
  H   H146      1.0  0.15798  0.26710  0.36470  1.0000
  S   S43       1.0  0.04978  0.08063  0.26950  1.0000
  H   H147      1.0  0.40001  0.20579  0.40213  1.0000
  C   C172      1.0  0.33703  0.26540  0.41844  1.0000
  H   H148      1.0  0.43036  0.15437  0.41605  1.0000
  C   C173      1.0  0.41668  0.20681  0.44897  1.0000
  Fe  Fe25      1.0  0.41276  0.33210  0.26684  1.0000
  H   H149      1.0  0.40126  0.20008  0.45755  1.0000
  C   C174      1.0  0.45413  0.23005  0.43995  1.0000
  C   C175      1.0  0.14586  0.15496  0.29104  1.0000
  C   C176      1.0  0.13652  0.13287  0.29195  1.0000
  C   C177      1.0  0.12242  0.12706  0.28331  1.0000
  C   C178      1.0  0.11725  0.14325  0.27350  1.0000
  C   C179      1.0  0.12675  0.16535  0.27250  1.0000
  C   C180      1.0  0.14089  0.17116  0.28113  1.0000
  H   H150      1.0  0.14012  0.12008  0.29950  1.0000
  H   H151      1.0  0.11543  0.11000  0.28432  1.0000
  H   H152      1.0  0.12302  0.17813  0.26502  1.0000
  H   H153      1.0  0.14772  0.18818  0.28026  1.0000
  C   C181      1.0  0.18766  0.27976  0.32974  1.0000
  C   C182      1.0  0.17577  0.29554  0.32882  1.0000
  H   H154      1.0  0.32434  0.25789  0.41405  1.0000
  H   H155      1.0  0.03868  0.01390  0.24852  1.0000
  C   C183      1.0  0.21656  0.19070  0.38455  1.0000
  C   C184      1.0  0.20910  0.28541  0.33138  1.0000
  H   H156      1.0  0.15918  0.29135  0.32771  1.0000
  H   H157      1.0  0.39668  0.12683  0.41749  1.0000
  H   H158      1.0  0.45240  0.25678  0.24113  1.0000
  H   H159      1.0  0.21828  0.27324  0.33236  1.0000
  C   C185      1.0  0.31800  0.26663  0.27929  1.0000
  C   C186      1.0  0.31456  0.27839  0.26650  1.0000
  C   C187      1.0  0.29350  0.27405  0.26421  1.0000
  C   C188      1.0  0.27583  0.25806  0.27474  1.0000
  C   C189      1.0  0.27933  0.24623  0.28747  1.0000
  C   C190      1.0  0.30034  0.25050  0.28973  1.0000
  H   H160      1.0  0.32817  0.29041  0.25821  1.0000
  H   H161      1.0  0.29099  0.28284  0.25422  1.0000
  H   H162      1.0  0.26602  0.23337  0.29545  1.0000
  H   H163      1.0  0.30279  0.24141  0.29968  1.0000
  H   H164      1.0  0.16772  0.30700  0.36200  1.0000
  C   C191      1.0  0.41095  0.26630  0.41022  1.0000
  C   C192      1.0  0.41895  0.28815  0.40171  1.0000
  C   C193      1.0  0.45186  0.24739  0.39284  1.0000
  C   C194      1.0  0.43928  0.29735  0.41895  1.0000
  C   C195      1.0  0.43146  0.27546  0.42739  1.0000
  C   C196      1.0  0.41725  0.26012  0.42309  1.0000
  H   H165      1.0  0.41433  0.29313  0.39178  1.0000
  H   H166      1.0  0.36473  0.13854  0.41120  1.0000
  H   H167      1.0  0.43597  0.27043  0.43740  1.0000
  H   H168      1.0  0.41088  0.24341  0.42984  1.0000
  C   C197      1.0  0.29517  0.21099  0.35995  1.0000
  C   C198      1.0  0.29269  0.22613  0.34799  1.0000
  C   C199      1.0  0.27606  0.21982  0.34107  1.0000
  C   C200      1.0  0.26209  0.19831  0.34597  1.0000
  C   C201      1.0  0.26459  0.18363  0.35798  1.0000
  C   C202      1.0  0.28063  0.18995  0.36498  1.0000
  H   H169      1.0  0.30375  0.24245  0.34395  1.0000
  H   H170      1.0  0.27449  0.23130  0.33171  1.0000
  H   H171      1.0  0.25405  0.16704  0.36190  1.0000
  H   H172      1.0  0.28219  0.17812  0.37417  1.0000
  C   C203      1.0  0.43252  0.28404  0.31802  1.0000
  C   C204      1.0  0.44640  0.22572  0.39203  1.0000
  H   H173      1.0  0.22523  0.21326  0.39662  1.0000
  H   H174      1.0  0.18504  0.22971  0.43162  1.0000
  C   C205      1.0  0.20829  0.17333  0.26929  1.0000
  C   C206      1.0  0.45350  0.29825  0.31061  1.0000
  H   H175      1.0  0.46632  0.18430  0.42772  1.0000
  C   C207      1.0  0.30568  0.23231  0.25256  1.0000
  C   C208      1.0  0.49326  0.17446  0.45879  1.0000
  H   H176      1.0  0.46711  0.29754  0.31535  1.0000
  C   C209      1.0  0.28133  0.14044  0.29832  1.0000
  C   C210      1.0  0.28324  0.29570  0.35003  1.0000
  C   C211      1.0  0.17830  0.29722  0.36560  1.0000
  C   C212      1.0  0.21853  0.22945  0.37676  1.0000
  C   C213      1.0  0.15750  0.13741  0.24793  1.0000
  C   C214      1.0  0.33947  0.22434  0.31249  1.0000
  C   C215      1.0  0.33236  0.21224  0.32716  1.0000
  C   C216      1.0  0.31811  0.19120  0.33140  1.0000
  C   C217      1.0  0.31081  0.18228  0.32100  1.0000
  C   C218      1.0  0.31781  0.19439  0.30619  1.0000
  C   C219      1.0  0.33247  0.21536  0.30203  1.0000
  P   P9        1.0  0.31049  0.18184  0.29256  1.0000
  C   C220      1.0  0.30838  0.20195  0.27713  1.0000
  C   C221      1.0  0.33194  0.16947  0.28603  1.0000
  C   C222      1.0  0.34582  0.16355  0.29460  1.0000
  C   C223      1.0  0.36246  0.15409  0.28942  1.0000
  C   C224      1.0  0.33482  0.16559  0.27228  1.0000
  C   C225      1.0  0.28774  0.20279  0.27479  1.0000
  C   C226      1.0  0.22849  0.33273  0.28893  1.0000
  C   C227      1.0  0.45257  0.01444  0.36645  1.0000
  H   H177      1.0  0.49869  0.22143  0.43316  1.0000
  C   C228      1.0  0.32765  0.21643  0.26694  1.0000
  C   C229      1.0  0.28432  0.16127  0.30064  1.0000
  C   C230      1.0  0.26656  0.16620  0.30925  1.0000
  C   C231      1.0  0.24611  0.15059  0.31540  1.0000
  H   H178      1.0  0.35032  0.24080  0.30916  1.0000
  H   H179      1.0  0.33767  0.21926  0.33530  1.0000
  H   H180      1.0  0.31248  0.18192  0.34281  1.0000
  H   H181      1.0  0.29981  0.16593  0.32457  1.0000
  H   H182      1.0  0.33840  0.22504  0.29076  1.0000
  H   H183      1.0  0.34395  0.16630  0.30526  1.0000
  H   H184      1.0  0.37323  0.14972  0.29604  1.0000
  H   H185      1.0  0.32422  0.16993  0.26553  1.0000
  H   H186      1.0  0.27250  0.19234  0.28249  1.0000
  H   H187      1.0  0.41613  0.02494  0.41678  1.0000
  H   H188      1.0  0.47262  0.11753  0.33138  1.0000
  H   H189      1.0  0.18023  0.14830  0.25940  1.0000
  H   H190      1.0  0.34377  0.21620  0.26847  1.0000
  H   H191      1.0  0.26850  0.18221  0.31114  1.0000
  H   H192      1.0  0.23250  0.15458  0.32205  1.0000
  H   H193      1.0  0.33414  0.29519  0.32337  1.0000
  H   H194      1.0  0.20650  0.20417  0.35148  1.0000
  H   H195      1.0  0.00588  0.12562  0.28519  1.0000
  C   C232      1.0  0.18357  0.17348  0.23961  1.0000
  H   H196      1.0  0.48129  0.16291  0.46842  1.0000
  C   C233      1.0  0.16325  0.22971  0.25546  1.0000
  C   C234      1.0  0.36531  0.15039  0.27569  1.0000
  H   H197      1.0  0.43772  0.20544  0.37822  1.0000
  C   C235      1.0  0.26074  0.28648  0.35706  1.0000
  C   C236      1.0  0.44156  0.33505  0.33244  1.0000
  C   C237      1.0  0.26710  0.29869  0.30776  1.0000
  C   C238      1.0  0.27394  0.28349  0.31708  1.0000
  C   C239      1.0  0.29605  0.28312  0.31384  1.0000
  C   C240      1.0  0.31136  0.29825  0.30144  1.0000
  H   H198      1.0  0.24990  0.29865  0.31039  1.0000
  C   C241      1.0  0.29216  0.26781  0.36696  1.0000
  C   C242      1.0  0.23619  0.29924  0.28506  1.0000
  C   C243      1.0  0.21357  0.28953  0.28834  1.0000
  C   C244      1.0  0.19836  0.30128  0.29203  1.0000
  H   H199      1.0  0.49451  0.05916  0.33911  1.0000
  C   C245      1.0  0.26084  0.12483  0.30454  1.0000
  C   C246      1.0  0.32401  0.30799  0.37927  1.0000
  S   S44       1.0  0.49561  0.05057  0.31220  1.0000
  C   C247      1.0  0.36893  0.31040  0.31720  1.0000
  H   H200      1.0  0.33909  0.29795  0.40644  1.0000
  H   H201      1.0  0.20762  0.25410  0.26515  1.0000
  C   C248      1.0  0.21921  0.18154  0.25435  1.0000
  S   S45       1.0  0.26912  0.32992  0.38394  1.0000
  H   H202      1.0  0.26204  0.27174  0.32668  1.0000
  H   H203      1.0  0.30127  0.27093  0.32082  1.0000
  C   C249      1.0  0.20991  0.20609  0.36153  1.0000
  H   H204      1.0  0.20870  0.17219  0.36975  1.0000
  H   H205      1.0  0.24769  0.28953  0.28292  1.0000
  H   H206      1.0  0.20786  0.27267  0.28846  1.0000
  H   H207      1.0  0.18080  0.29337  0.29519  1.0000
  C   C250      1.0  0.44488  0.23945  0.36708  1.0000
  C   C251      1.0  0.24322  0.12993  0.31305  1.0000
  H   H208      1.0  0.32607  0.31895  0.43219  1.0000
  H   H209      1.0  0.21410  0.24072  0.35525  1.0000
  H   H210      1.0  0.40499  0.30010  0.29325  1.0000
  C   C252      1.0  0.47360  0.18309  0.41697  1.0000
  C   C253      1.0  0.21478  0.25533  0.42741  1.0000
  C   C254      1.0  0.33902  0.32439  0.36732  1.0000
  C   C255      1.0  0.23323  0.27004  0.41675  1.0000
  S   S46       1.0  0.49757  0.33488  0.44700  1.0000
  H   H211      1.0  0.30432  0.26042  0.37068  1.0000
  C   C256      1.0  0.21201  0.29488  0.37230  1.0000
  C   C257      1.0  0.21838  0.30676  0.33215  1.0000
  C   C258      1.0  0.20624  0.22755  0.25534  1.0000
  H   H212      1.0  0.46892  0.19363  0.38220  1.0000
  C   C259      1.0  0.21415  0.22680  0.36375  1.0000
  C   C260      1.0  0.23982  0.16113  0.27393  1.0000
  S   S47       1.0  0.45595  0.31757  0.42448  1.0000
  C   C261      1.0  0.25386  0.26822  0.36937  1.0000
  H   H213      1.0  0.42762  0.02344  0.39133  1.0000
  H   H214      1.0  0.49677  0.16684  0.42443  1.0000
  H   H215      1.0  0.47196  0.23118  0.41845  1.0000
  C   C262      1.0  0.26969  0.25865  0.37407  1.0000
  H   H216      1.0  0.32895  0.29415  0.38451  1.0000
  H   H217      1.0  0.29096  0.29708  0.39386  1.0000
  C   C263      1.0  0.45676  0.31371  0.29725  1.0000
  C   C264      1.0  0.44913  0.03951  0.41721  1.0000
  C   C265      1.0  0.43290  0.30359  0.40610  1.0000
  P   P10       1.0  0.47103  0.03669  0.36968  1.0000
  H   H218      1.0  0.26471  0.24415  0.38329  1.0000
  C   C266      1.0  0.18693  0.26232  0.37123  1.0000
  H   H219      1.0  0.37327  0.29623  0.31464  1.0000
  H   H220      1.0  0.25063  0.28205  0.39400  1.0000
  C   C267      1.0  0.18519  0.31680  0.32915  1.0000
  H   H221      1.0  0.20953  0.15621  0.29050  1.0000
  H   H222      1.0  0.21836  0.17685  0.39229  1.0000
  C   C268      1.0  0.00786  0.03723  0.30058  1.0000
  P   P11       1.0  0.37174  0.32767  0.41479  1.0000
  H   H223      1.0  0.27042  0.21878  0.26103  1.0000
  C   C269      1.0  0.29896  0.28654  0.35509  1.0000
  C   C270      1.0  0.32626  0.23171  0.25482  1.0000
  C   C271      1.0  0.45042  0.26090  0.36797  1.0000
  H   H224      1.0  0.01947  0.01705  0.31620  1.0000
  Fe  Fe26      1.0  0.47486  0.30870  0.44124  1.0000
  C   C272      1.0  0.21112  0.18803  0.37188  1.0000
  C   C273      1.0  0.17612  0.24406  0.26097  1.0000
  C   C274      1.0  0.22036  0.21137  0.38697  1.0000
  C   C275      1.0  0.49673  0.01100  0.30671  1.0000
  Fe  Fe27      1.0  0.39663  0.33212  0.23990  1.0000
  H   H225      1.0  0.24773  0.15337  0.28154  1.0000
  C   C276      1.0  0.48409  0.28880  0.24986  1.0000
  S   S48       1.0  0.04424  0.06581  0.23988  1.0000
  H   H226      1.0  0.45749  0.28147  0.38171  1.0000
  H   H227      1.0  0.35372  0.15329  0.25647  1.0000
  C   C277      1.0  0.36205  0.29808  0.41970  1.0000
  C   C278      1.0  0.34537  0.25228  0.42804  1.0000
  C   C279      1.0  0.36197  0.26192  0.43352  1.0000
  C   C280      1.0  0.37033  0.28470  0.42937  1.0000
  C   C281      1.0  0.45395  0.26488  0.38083  1.0000
  H   H228      1.0  0.47217  0.29899  0.26894  1.0000
  H   H229      1.0  0.48364  0.05446  0.41418  1.0000
  C   C282      1.0  0.49578  0.02278  0.31705  1.0000
  C   C283      1.0  0.35147  0.15611  0.26713  1.0000
  H   H230      1.0  0.33944  0.23460  0.43090  1.0000
  H   H231      1.0  0.36892  0.25169  0.44059  1.0000
  H   H232      1.0  0.38348  0.29151  0.43358  1.0000
  C   C284      1.0  0.43433  0.22115  0.45105  1.0000
  C   C285      1.0  0.47140  0.04740  0.40929  1.0000
  H   H233      1.0  0.40477  0.19060  0.43431  1.0000
  C   C286      1.0  0.30250  0.30967  0.38457  1.0000
  C   C287      1.0  0.43919  0.31466  0.29108  1.0000
  H   H234      1.0  0.22732  0.11791  0.31787  1.0000
  H   H235      1.0  0.45134  0.27435  0.35880  1.0000
  C   C288      1.0  0.38054  0.17293  0.40626  1.0000
  C   C289      1.0  0.37952  0.15067  0.41056  1.0000
  C   C290      1.0  0.39753  0.14409  0.41408  1.0000
  C   C291      1.0  0.41665  0.15978  0.41319  1.0000
  C   C292      1.0  0.41792  0.18219  0.40861  1.0000
  C   C293      1.0  0.39959  0.18862  0.40539  1.0000
  P   P12       1.0  0.44226  0.20265  0.40768  1.0000
  C   C294      1.0  0.43871  0.21032  0.42454  1.0000
  C   C295      1.0  0.46563  0.19102  0.40509  1.0000
  H   H236      1.0  0.19180  0.17488  0.27342  1.0000
  C   C296      1.0  0.44281  0.22194  0.37903  1.0000
  H   H237      1.0  0.36659  0.17814  0.40357  1.0000
  H   H238      1.0  0.23481  0.31109  0.33346  1.0000
  C   C297      1.0  0.45640  0.22447  0.42683  1.0000
  C   C298      1.0  0.41878  0.20147  0.43574  1.0000
  C   C299      1.0  0.43342  0.03082  0.41070  1.0000
  C   C300      1.0  0.41501  0.28477  0.31177  1.0000
  C   C301      1.0  0.24075  0.17970  0.24929  1.0000
  H   H239      1.0  0.43875  0.32047  0.39950  1.0000
  H   H240      1.0  0.39896  0.27337  0.31728  1.0000
  C   C302      1.0  0.41845  0.29985  0.29817  1.0000
  H   H241      1.0  0.19404  0.33177  0.29564  1.0000
  C   C303      1.0  0.20583  0.32289  0.29228  1.0000
  C   C304      1.0  0.28645  0.21775  0.26248  1.0000
  H   H242      1.0  0.45372  0.03227  0.34455  1.0000
  C   C305      1.0  0.22148  0.25546  0.39808  1.0000
  H   H243      1.0  0.31643  0.29393  0.34998  1.0000
  C   C306      1.0  0.48462  0.08878  0.33369  1.0000
  H   H244      1.0  0.28833  0.31004  0.34073  1.0000
  P   P13       1.0  0.22509  0.25645  0.37915  1.0000
  C   C307      1.0  0.17286  0.27477  0.36710  1.0000
  C   C308      1.0  0.20274  0.24107  0.40877  1.0000
  H   H245      1.0  0.41116  0.32911  0.36510  1.0000
  S   S49       1.0  0.36164  0.32893  0.25174  1.0000
  H   H246      1.0  0.18200  0.24491  0.37258  1.0000
  C   C309      1.0  0.17196  0.21448  0.24967  1.0000
  C   C310      1.0  0.34676  0.30992  0.32191  1.0000
  C   C311      1.0  0.44740  0.01685  0.35305  1.0000
  H   H247      1.0  0.20204  0.32469  0.36683  1.0000
  C   C312      1.0  0.19951  0.24089  0.42341  1.0000
  H   H248      1.0  0.29344  0.32919  0.42631  1.0000
  H   H249      1.0  0.47288  0.32490  0.29170  1.0000
  C   C313      1.0  0.19359  0.21336  0.24950  1.0000
  H   H250      1.0  0.19056  0.23015  0.40574  1.0000
  C   C314      1.0  0.20696  0.27238  0.37346  1.0000
  C   C315      1.0  0.49833  0.03232  0.36661  1.0000
  H   H251      1.0  0.37829  0.14315  0.27167  1.0000
  H   H252      1.0  0.49459  0.23617  0.25003  1.0000
  H   H253      1.0  0.43274  0.22547  0.46124  1.0000
  C   C316      1.0  0.29486  0.32868  0.24072  1.0000
  H   H254      1.0  0.34112  0.24348  0.24738  1.0000
  C   C317      1.0  0.21838  0.16281  0.27899  1.0000
  H   H255      1.0  0.24889  0.29372  0.35289  1.0000
  H   H256      1.0  0.32852  0.29799  0.29887  1.0000
  H   H257      1.0  0.44943  0.07151  0.37402  1.0000
  C   C318      1.0  0.30452  0.31323  0.29198  1.0000
  C   C319      1.0  0.46245  0.03721  0.38841  1.0000
  H   H258      1.0  0.45025  0.10644  0.35728  1.0000
  H   H259      1.0  0.14639  0.23014  0.25587  1.0000
  C   C320      1.0  0.49078  0.17292  0.41519  1.0000
  H   H260      1.0  0.16933  0.25572  0.26558  1.0000
  H   H261      1.0  0.38113  0.31400  0.38800  1.0000
  C   C321      1.0  0.00596  0.02381  0.31435  1.0000
  C   C322      1.0  0.19778  0.30722  0.36827  1.0000
  H   H262      1.0  0.49095  0.02052  0.33983  1.0000
  C   C323      1.0  0.44001  0.02986  0.39630  1.0000
  C   C324      1.0  0.29589  0.32746  0.37763  1.0000
  H   H263      1.0  0.46775  0.24125  0.44159  1.0000
  C   C325      1.0  0.47229  0.10222  0.33875  1.0000
  H   H264      1.0  0.22703  0.30294  0.37439  1.0000
  C   C326      1.0  0.49408  0.22248  0.47609  1.0000
  H   H265      1.0  0.21219  0.25534  0.43872  1.0000
  H   H266      1.0  0.26777  0.16855  0.25520  1.0000
  H   H267      1.0  0.02267  0.04039  0.29174  1.0000
  C   C327      1.0  0.47804  0.04640  0.39493  1.0000
  C   C328      1.0  0.17459  0.15272  0.24981  1.0000
  H   H268      1.0  0.16153  0.20338  0.24567  1.0000
  C   C329      1.0  0.47174  0.06258  0.35775  1.0000
  H   H269      1.0  0.45371  0.25102  0.40280  1.0000
  C   C330      1.0  0.28224  0.31343  0.29499  1.0000
  C   C331      1.0  0.45932  0.07612  0.36280  1.0000
  C   C332      1.0  0.20637  0.32254  0.33099  1.0000
  H   H270      1.0  0.44406  0.04031  0.42834  1.0000
  C   C333      1.0  0.45969  0.09594  0.35333  1.0000
  S   S50       1.0  0.09387  0.08789  0.24269  1.0000
  H   H271      1.0  0.43954  0.31910  0.33978  1.0000
  C   C334      1.0  0.32803  0.33008  0.42165  1.0000
  S   S51       1.0  0.50019  0.29005  0.43699  1.0000
  H   H272      1.0  0.40252  0.32931  0.31174  1.0000
  C   C335      1.0  0.48497  0.29294  0.26317  1.0000
  S   S52       1.0  0.36602  0.32301  0.36050  1.0000
  C   C336      1.0  0.05972  0.00314  0.26134  1.0000
  H   H273      1.0  0.47128  0.19447  0.45458  1.0000
  H   H274      1.0  0.49537  0.05290  0.38897  1.0000
  H   H275      1.0  0.30454  0.24460  0.24343  1.0000
  C   C337      1.0  0.38541  0.32914  0.31570  1.0000
  S   S53       1.0  0.05957  0.11821  0.23902  1.0000
  S   S54       1.0  0.37909  0.32888  0.28103  1.0000
  C   C338      1.0  0.47494  0.18819  0.39148  1.0000
  H   H276      1.0  0.26592  0.31307  0.25866  1.0000
  C   C339      1.0  0.39447  0.32800  0.38695  1.0000
  H   H277      1.0  0.32385  0.32840  0.32788  1.0000
  H   H278      1.0  0.47067  0.29200  0.24554  1.0000
  Fe  Fe28      1.0  0.48505  0.31328  0.47017  1.0000
  H   H279      1.0  0.31664  0.32432  0.28226  1.0000
  H   H280      1.0  0.15013  0.12166  0.25605  1.0000
  H   H281      1.0  0.40677  0.33220  0.33777  1.0000
  C   C340      1.0  0.25105  0.16966  0.25909  1.0000
  H   H282      1.0  0.45084  0.32236  0.24481  1.0000
  C   C341      1.0  0.28173  0.32515  0.25491  1.0000
  C   C342      1.0  0.49196  0.17778  0.38978  1.0000
  C   C343      1.0  0.49145  0.01152  0.33182  1.0000
  H   H283      1.0  0.49438  0.09349  0.32240  1.0000
  C   C344      1.0  0.48759  0.19218  0.45092  1.0000
  C   C345      1.0  0.34098  0.32841  0.32468  1.0000
  C   C346      1.0  0.49754  0.23162  0.23995  1.0000
  C   C347      1.0  0.48639  0.20042  0.48420  1.0000
  H   H284      1.0  0.49803  0.19893  0.25072  1.0000
  H   H285      1.0  0.22280  0.22673  0.25564  1.0000
  P   P14       1.0  0.27303  0.33230  0.28262  1.0000
  H   H286      1.0  0.17578  0.32880  0.32823  1.0000
  H   H287      1.0  0.42300  0.33489  0.44537  1.0000
  C   C348      1.0  0.49989  0.17017  0.40161  1.0000
  C   C349      1.0  0.49930  0.21038  0.24043  1.0000
  H   H288      1.0  0.49888  0.17539  0.37929  1.0000
  S   S55       1.0  0.44345  0.33456  0.27457  1.0000
  C   C350      1.0  0.50035  0.28070  0.24237  1.0000
  H   H289      1.0  0.49950  0.01948  0.29536  1.0000
  H   H290      1.0  0.50001  0.26899  0.39669  1.0000
  C   C351      1.0  0.46509  0.33283  0.23607  1.0000
  H   H291      1.0  0.24974  0.18610  0.23786  1.0000
  C   C352      1.0  0.40088  0.33277  0.43182  1.0000
  C   C353      1.0  0.14907  0.14273  0.23600  1.0000
  C   C354      1.0  0.46346  0.02974  0.61901  1.0000
  P   P15       1.0  0.03224  0.18310  0.70828  1.0000
  C   C355      1.0  0.48370  0.27153  0.52467  1.0000
  H   H292      1.0  0.09322  0.25141  0.68804  1.0000
  H   H293      1.0  0.11704  0.30811  0.65223  1.0000
  C   C356      1.0  0.47803  0.29594  0.61335  1.0000
  H   H294      1.0  0.17865  0.21533  0.65640  1.0000
  S   S56       1.0  0.03253  0.00650  0.73527  1.0000
  C   C357      1.0  0.21988  0.26134  0.63682  1.0000
  C   C358      1.0  0.00308  0.12895  0.68892  1.0000
  H   H295      1.0  0.48931  0.10339  0.63294  1.0000
  C   C359      1.0  0.45837  0.27937  0.62003  1.0000
  H   H296      1.0  0.49536  0.17115  0.49306  1.0000
  C   C360      1.0  0.18764  0.31105  0.62109  1.0000
  H   H297      1.0  0.03332  0.05920  0.67739  1.0000
  Fe  Fe29      1.0  0.04232  0.08738  0.71838  1.0000
  S   S57       1.0  0.07184  0.11340  0.70227  1.0000
  S   S58       1.0  0.13783  0.28224  0.66928  1.0000
  C   C361      1.0  0.03535  0.17027  0.72586  1.0000
  Fe  Fe30      1.0  0.13403  0.22485  0.71420  1.0000
  S   S59       1.0  0.15634  0.24021  0.72603  1.0000
  S   S60       1.0  0.11082  0.19121  0.72658  1.0000
  Fe  Fe31      1.0  0.14670  0.26720  0.68963  1.0000
  S   S61       1.0  0.16983  0.28578  0.69940  1.0000
  Fe  Fe32      1.0  0.18113  0.25519  0.70412  1.0000
  S   S62       1.0  0.21624  0.25757  0.70494  1.0000
  Fe  Fe33      1.0  0.14355  0.26947  0.72049  1.0000
  C   C362      1.0  0.08715  0.23480  0.68760  1.0000
  S   S63       1.0  0.16002  0.23738  0.69254  1.0000
  S   S64       1.0  0.11913  0.25315  0.71046  1.0000
  S   S65       1.0  0.47541  0.32599  0.48981  1.0000
  C   C363      1.0  0.07936  0.02291  0.63378  1.0000
  C   C364      1.0  0.20893  0.23907  0.64288  1.0000
  H   H298      1.0  0.43909  0.29600  0.64966  1.0000
  C   C365      1.0  0.48521  0.33028  0.51535  1.0000
  H   H299      1.0  0.29861  0.30618  0.60759  1.0000
  H   H300      1.0  0.48018  0.00689  0.58609  1.0000
  S   S66       1.0  0.29438  0.29803  0.64648  1.0000
  P   P16       1.0  0.22307  0.30625  0.63246  1.0000
  C   C366      1.0  0.01983  0.02432  0.68128  1.0000
  C   C367      1.0  0.08488  0.05198  0.67209  1.0000
  C   C368      1.0  0.23739  0.26997  0.68850  1.0000
  C   C369      1.0  0.25772  0.28276  0.68867  1.0000
  C   C370      1.0  0.27521  0.29192  0.67577  1.0000
  C   C371      1.0  0.27262  0.28773  0.66276  1.0000
  C   C372      1.0  0.25238  0.27472  0.66266  1.0000
  C   C373      1.0  0.23466  0.26619  0.67541  1.0000
  H   H301      1.0  0.25993  0.28562  0.69879  1.0000
  H   H302      1.0  0.29079  0.30186  0.67595  1.0000
  H   H303      1.0  0.25041  0.27123  0.65270  1.0000
  H   H304      1.0  0.21912  0.25622  0.67521  1.0000
  H   H305      1.0  0.46970  0.33447  0.51806  1.0000
  H   H306      1.0  0.18717  0.29524  0.61916  1.0000
  C   C374      1.0  0.21728  0.31040  0.66080  1.0000
  C   C375      1.0  0.08359  0.13475  0.70896  1.0000
  C   C376      1.0  0.07794  0.13274  0.72390  1.0000
  C   C377      1.0  0.02083  0.12761  0.69480  1.0000
  C   C378      1.0  0.10139  0.16961  0.71937  1.0000
  C   C379      1.0  0.10729  0.17158  0.70441  1.0000
  C   C380      1.0  0.09853  0.15409  0.69924  1.0000
  H   H307      1.0  0.49286  0.04635  0.58321  1.0000
  H   H308      1.0  0.16740  0.17855  0.72515  1.0000
  H   H309      1.0  0.11841  0.18662  0.69687  1.0000
  H   H310      1.0  0.10302  0.15571  0.68766  1.0000
  H   H311      1.0  0.29833  0.32806  0.58331  1.0000
  C   C381      1.0  0.05054  0.18150  0.73179  1.0000
  C   C382      1.0  0.24634  0.31214  0.61658  1.0000
  H   H312      1.0  0.04667  0.05597  0.62516  1.0000
  H   H313      1.0  0.21494  0.30463  0.73133  1.0000
  H   H314      1.0  0.02582  0.22077  0.68845  1.0000
  C   C383      1.0  0.05890  0.19997  0.69636  1.0000
  H   H315      1.0  0.03372  0.04681  0.65196  1.0000
  C   C384      1.0  0.22422  0.31787  0.67184  1.0000
  H   H316      1.0  0.12489  0.29794  0.70624  1.0000
  H   H317      1.0  0.47291  0.27881  0.53104  1.0000
  P   P17       1.0  0.47750  0.33459  0.64111  1.0000
  C   C385      1.0  0.09227  0.20537  0.67705  1.0000
  H   H318      1.0  0.46467  0.26966  0.50918  1.0000
  H   H319      1.0  0.06990  0.04996  0.71308  1.0000
  C   C386      1.0  0.06567  0.03671  0.68182  1.0000
  C   C387      1.0  0.04631  0.03987  0.64706  1.0000
  C   C388      1.0  0.09308  0.06582  0.69189  1.0000
  H   H320      1.0  0.48331  0.22376  0.61784  1.0000
  H   H321      1.0  0.05746  0.22791  0.70480  1.0000
  C   C389      1.0  0.08714  0.14992  0.72907  1.0000
  H   H322      1.0  0.09227  0.01646  0.62863  1.0000
  Fe  Fe34      1.0  0.02284  0.03841  0.73277  1.0000
  H   H323      1.0  0.06658  0.17549  0.68570  1.0000
  H   H324      1.0  0.10322  0.07748  0.69574  1.0000
  H   H325      1.0  0.26592  0.29632  0.62860  1.0000
  H   H326      1.0  0.11299  0.07861  0.66958  1.0000
  C   C390      1.0  0.06046  0.03614  0.69660  1.0000
  C   C391      1.0  0.49831  0.32954  0.52522  1.0000
  P   P18       1.0  0.04655  0.01933  0.67542  1.0000
  C   C392      1.0  0.07424  0.05043  0.70165  1.0000
  C   C393      1.0  0.18712  0.27057  0.64829  1.0000
  H   H327      1.0  0.21752  0.22687  0.64095  1.0000
  C   C394      1.0  0.48242  0.03552  0.59367  1.0000
  C   C395      1.0  0.44323  0.33308  0.60516  1.0000
  C   C396      1.0  0.49195  0.32514  0.50213  1.0000
  C   C397      1.0  0.48763  0.19546  0.61071  1.0000
  C   C398      1.0  0.06685  0.22145  0.69700  1.0000
  C   C399      1.0  0.17611  0.24834  0.65415  1.0000
  C   C400      1.0  0.12524  0.31444  0.70086  1.0000
  C   C401      1.0  0.02099  0.16223  0.70037  1.0000
  C   C402      1.0  0.07015  0.03666  0.62519  1.0000
  C   C403      1.0  0.25308  0.32989  0.64383  1.0000
  C   C404      1.0  0.20913  0.27732  0.63961  1.0000
  C   C405      1.0  0.05542  0.02599  0.65576  1.0000
  H   H328      1.0  0.49888  0.32562  0.61416  1.0000
  C   C406      1.0  0.23185  0.31605  0.64673  1.0000
  C   C407      1.0  0.09847  0.06651  0.67713  1.0000
  H   H329      1.0  0.04546  0.02487  0.70421  1.0000
  C   C408      1.0  0.26493  0.33013  0.59085  1.0000
  H   H330      1.0  0.06166  0.19738  0.72560  1.0000
  C   C409      1.0  0.45009  0.29631  0.63949  1.0000
  H   H331      1.0  0.47108  0.19113  0.60950  1.0000
  C   C410      1.0  0.02960  0.14404  0.70063  1.0000
  S   S67       1.0  0.35202  0.32020  0.65464  1.0000
  C   C411      1.0  0.01849  0.04573  0.68088  1.0000
  H   H332      1.0  0.15916  0.24347  0.66088  1.0000
  C   C412      1.0  0.20337  0.32042  0.62744  1.0000
  C   C413      1.0  0.47520  0.01309  0.59535  1.0000
  H   H333      1.0  0.44057  0.31574  0.60988  1.0000
  H   H334      1.0  0.07591  0.04086  0.61339  1.0000
  H   H335      1.0  0.45385  0.26657  0.61497  1.0000
  H   H336      1.0  0.11573  0.23710  0.67054  1.0000
  H   H337      1.0  0.23678  0.26588  0.63020  1.0000
  C   C414      1.0  0.02134  0.14961  0.73426  1.0000
  S   S68       1.0  0.40222  0.32675  0.62302  1.0000
  H   H338      1.0  0.17843  0.28254  0.65057  1.0000
  H   H339      1.0  0.42896  0.26693  0.63816  1.0000
  C   C415      1.0  0.28389  0.31099  0.60611  1.0000
  C   C416      1.0  0.14331  0.31103  0.66260  1.0000
  H   H340      1.0  0.17983  0.28421  0.72875  1.0000
  C   C417      1.0  0.18006  0.29798  0.73323  1.0000
  S   S69       1.0  0.02369  0.06043  0.71131  1.0000
  H   H341      1.0  0.07954  0.00714  0.65553  1.0000
  H   H342      1.0  0.08921  0.05312  0.66058  1.0000
  C   C418      1.0  0.46962  0.31330  0.63267  1.0000
  C   C419      1.0  0.47910  0.26646  0.51233  1.0000
  C   C420      1.0  0.16020  0.32572  0.66527  1.0000
  C   C421      1.0  0.18706  0.23256  0.65157  1.0000
  H   H343      1.0  0.17054  0.31957  0.67161  1.0000
  C   C422      1.0  0.05365  0.04514  0.63183  1.0000
  C   C423      1.0  0.44440  0.27956  0.63309  1.0000
  C   C424      1.0  0.17228  0.32204  0.61728  1.0000
  C   C425      1.0  0.00335  0.16365  0.69422  1.0000
  C   C426      1.0  0.48362  0.31289  0.61960  1.0000
  C   C427      1.0  0.09988  0.22675  0.67767  1.0000
  H   H344      1.0  0.13631  0.14511  0.73218  1.0000
  C   C428      1.0  0.07187  0.19202  0.68633  1.0000
  C   C429      1.0  0.26526  0.30534  0.61805  1.0000
  H   H345      1.0  0.48993  0.25404  0.49418  1.0000
  H   H346      1.0  0.15992  0.31465  0.61264  1.0000
  H   H347      1.0  0.48894  0.29583  0.60324  1.0000
  Fe  Fe35      1.0  0.32410  0.32470  0.64504  1.0000
  C   C430      1.0  0.13005  0.31929  0.65437  1.0000
  C   C431      1.0  0.47681  0.04382  0.60554  1.0000
  H   H348      1.0  0.04302  0.14249  0.70546  1.0000
  C   C432      1.0  0.24563  0.33103  0.66892  1.0000
  H   H349      1.0  0.10084  0.30457  0.69002  1.0000
  H   H350      1.0  0.10233  0.19902  0.66951  1.0000
  H   H351      1.0  0.02761  0.11362  0.69510  1.0000
  H   H352      1.0  0.45913  0.03617  0.62823  1.0000
  C   C433      1.0  0.19998  0.30956  0.73469  1.0000
  C   C434      1.0  0.07207  0.01762  0.64901  1.0000
  H   H353      1.0  0.20070  0.30007  0.66337  1.0000
  C   C435      1.0  0.49450  0.21385  0.61538  1.0000
  C   C436      1.0  0.28373  0.32336  0.59249  1.0000
  C   C437      1.0  0.49349  0.25790  0.50378  1.0000
  H   H354      1.0  0.21326  0.31300  0.68278  1.0000
  C   C438      1.0  0.49713  0.32784  0.65089  1.0000
  C   C439      1.0  0.01358  0.20008  0.71077  1.0000
  H   H355      1.0  0.49441  0.29551  0.64772  1.0000
  H   H356      1.0  0.49281  0.33287  0.53555  1.0000
  H   H357      1.0  0.48294  0.06114  0.60432  1.0000
  C   C440      1.0  0.11143  0.31823  0.69195  1.0000
  H   H358      1.0  0.49694  0.16917  0.60321  1.0000
  H   H359      1.0  0.06650  0.11793  0.73151  1.0000
  H   H360      1.0  0.23236  0.33086  0.60139  1.0000
  S   S70       1.0  0.01155  0.09500  0.72909  1.0000
  C   C441      1.0  0.45595  0.00731  0.62068  1.0000
  C   C442      1.0  0.13977  0.33193  0.70281  1.0000
  H   H361      1.0  0.00902  0.14083  0.73018  1.0000
  C   C443      1.0  0.24632  0.32463  0.60284  1.0000
  H   H362      1.0  0.46889  0.19237  0.48753  1.0000
  H   H363      1.0  0.15005  0.32838  0.70991  1.0000
  C   C444      1.0  0.01415  0.21741  0.69903  1.0000
  H   H364      1.0  0.26469  0.33487  0.63317  1.0000
  H   H365      1.0  0.48580  0.00279  0.68284  1.0000
  H   H366      1.0  0.04932  0.04279  0.78516  1.0000
  Fe  Fe36      1.0  0.20384  0.24377  0.89071  1.0000
  S   S71       1.0  0.22694  0.22756  0.87918  1.0000
  S   S72       1.0  0.20417  0.27819  0.87947  1.0000
  Fe  Fe37      1.0  0.18233  0.20269  0.91557  1.0000
  S   S73       1.0  0.20417  0.18376  0.90607  1.0000
  S   S74       1.0  0.15508  0.18745  0.93640  1.0000
  Fe  Fe38      1.0  0.23154  0.21453  0.90152  1.0000
  S   S75       1.0  0.26625  0.21494  0.90414  1.0000
  Fe  Fe39      1.0  0.19705  0.19860  0.88495  1.0000
  S   S76       1.0  0.18782  0.17814  0.86961  1.0000
  S   S77       1.0  0.20983  0.23236  0.91251  1.0000
  S   S78       1.0  0.17390  0.21601  0.89491  1.0000
  C   C445      1.0  0.15075  0.31769  0.95675  1.0000
  C   C446      1.0  0.05716  0.03914  0.77538  1.0000
  Fe  Fe40      1.0  0.34367  0.26671  0.95424  1.0000
  H   H367      1.0  0.20805  0.26415  0.97448  1.0000
  S   S79       1.0  0.33784  0.25519  0.93452  1.0000
  C   C447      1.0  0.15704  0.10851  0.76842  1.0000
  C   C448      1.0  0.15508  0.05445  0.81348  1.0000
  C   C449      1.0  0.32902  0.26936  0.86779  1.0000
  C   C450      1.0  0.02328  0.13994  0.74804  1.0000
  C   C451      1.0  0.14698  0.08665  0.77649  1.0000
  H   H368      1.0  0.13124  0.13338  0.79150  1.0000
  C   C452      1.0  0.08941  0.15780  0.95972  1.0000
  S   S80       1.0  0.36831  0.29964  0.94922  1.0000
  Fe  Fe41      1.0  0.07436  0.11633  0.85277  1.0000
  S   S81       1.0  0.08997  0.09894  0.83756  1.0000
  S   S82       1.0  0.09188  0.14414  0.86070  1.0000
  Fe  Fe42      1.0  0.02707  0.09149  0.85384  1.0000
  S   S83       1.0  0.03973  0.07315  0.83848  1.0000
  C   C453      1.0  0.14432  0.25403  0.85853  1.0000
  Fe  Fe43      1.0  0.06351  0.06854  0.85180  1.0000
  S   S84       1.0  0.06913  0.03504  0.85932  1.0000
  Fe  Fe44      1.0  0.06449  0.10498  0.82565  1.0000
  S   S85       1.0  0.07485  0.11611  0.80082  1.0000
  S   S86       1.0  0.04969  0.08527  0.86795  1.0000
  S   S87       1.0  0.05015  0.12412  0.83998  1.0000
  C   C454      1.0  0.07780  0.03058  0.74982  1.0000
  H   H369      1.0  0.04828  0.00297  0.83168  1.0000
  C   C455      1.0  0.05497  0.10722  0.79196  1.0000
  C   C456      1.0  0.06183  0.10399  0.77813  1.0000
  C   C457      1.0  0.04621  0.09562  0.77129  1.0000
  C   C458      1.0  0.01684  0.09468  0.79172  1.0000
  C   C459      1.0  0.03237  0.10269  0.79868  1.0000
  H   H370      1.0  0.07925  0.10737  0.77291  1.0000
  H   H371      1.0  0.10837  0.13467  0.75609  1.0000
  H   H372      1.0  0.02685  0.10527  0.80926  1.0000
  C   C460      1.0  0.08495  0.05105  0.75203  1.0000
  C   C461      1.0  0.05648  0.01889  0.82399  1.0000
  H   H373      1.0  0.02371  0.03390  0.86068  1.0000
  H   H374      1.0  0.06081  0.19853  0.90515  1.0000
  H   H375      1.0  0.27674  0.24104  0.87096  1.0000
  C   C462      1.0  0.02361  0.09062  0.77822  1.0000
  H   H376      1.0  0.06232  0.16221  0.91885  1.0000
  H   H377      1.0  0.13137  0.21734  0.88738  1.0000
  C   C463      1.0  0.11998  0.05165  0.83008  1.0000
  C   C464      1.0  0.16105  0.16875  0.86722  1.0000
  C   C465      1.0  0.14462  0.17959  0.86998  1.0000
  C   C466      1.0  0.12369  0.17183  0.86790  1.0000
  C   C467      1.0  0.11883  0.15318  0.86292  1.0000
  C   C468      1.0  0.13542  0.14256  0.85984  1.0000
  C   C469      1.0  0.15638  0.15037  0.86192  1.0000
  H   H378      1.0  0.14828  0.19421  0.87346  1.0000
  H   H379      1.0  0.11116  0.18040  0.87015  1.0000
  H   H380      1.0  0.13207  0.12825  0.85596  1.0000
  H   H381      1.0  0.16900  0.14196  0.85957  1.0000
  C   C470      1.0  0.28448  0.22657  0.91356  1.0000
  C   C471      1.0  0.30721  0.23172  0.90687  1.0000
  C   C472      1.0  0.32280  0.24052  0.91350  1.0000
  C   C473      1.0  0.31624  0.24431  0.92713  1.0000
  C   C474      1.0  0.29342  0.23921  0.93405  1.0000
  C   C475      1.0  0.27759  0.23020  0.92732  1.0000
  H   H382      1.0  0.31289  0.22876  0.89643  1.0000
  H   H383      1.0  0.34022  0.24421  0.90804  1.0000
  H   H384      1.0  0.28800  0.24180  0.94464  1.0000
  H   H385      1.0  0.26015  0.22564  0.93290  1.0000
  C   C476      1.0  0.19616  0.29506  0.89023  1.0000
  C   C477      1.0  0.19878  0.29250  0.90429  1.0000
  C   C478      1.0  0.19328  0.30719  0.91218  1.0000
  H   H386      1.0  0.47823  0.06687  0.97528  1.0000
  C   C479      1.0  0.16511  0.05450  0.82481  1.0000
  C   C480      1.0  0.18742  0.31186  0.88429  1.0000
  H   H387      1.0  0.20537  0.27944  0.90895  1.0000
  H   H388      1.0  0.19545  0.30525  0.92298  1.0000
  H   H389      1.0  0.05162  0.09293  0.76073  1.0000
  H   H390      1.0  0.18528  0.31388  0.87345  1.0000
  H   H391      1.0  0.11643  0.01917  0.76164  1.0000
  H   H392      1.0  0.16997  0.18683  0.79176  1.0000
  C   C481      1.0  0.18822  0.18057  0.94865  1.0000
  C   C482      1.0  0.16702  0.18369  0.95090  1.0000
  C   C483      1.0  0.42751  0.30219  0.98167  1.0000
  H   H393      1.0  0.12473  0.22255  0.78976  1.0000
  H   H394      1.0  0.23412  0.31894  0.92093  1.0000
  H   H395      1.0  0.19672  0.17909  0.93824  1.0000
  H   H396      1.0  0.04033  0.14337  0.76439  1.0000
  H   H397      1.0  0.06439  0.18045  0.75000  1.0000
  H   H398      1.0  0.08000  0.07123  0.76649  1.0000
  H   H399      1.0  0.14406  0.28903  0.92962  1.0000
  C   C484      1.0  0.17470  0.23893  0.76180  1.0000
  C   C485      1.0  0.20957  0.24335  0.96029  1.0000
  C   C486      1.0  0.10237  0.22172  0.96768  1.0000
  C   C487      1.0  0.04991  0.01853  0.77326  1.0000
  H   H400      1.0  0.19381  0.17896  0.83602  1.0000
  C   C488      1.0  0.07466  0.05530  0.76483  1.0000
  C   C489      1.0  0.24603  0.27003  0.92288  1.0000
  C   C490      1.0  0.44941  0.30327  0.98220  1.0000
  C   C491      1.0  0.16359  0.25532  0.86303  1.0000
  C   C492      1.0  0.18961  0.20741  0.76376  1.0000
  C   C493      1.0  0.28511  0.27033  0.87761  1.0000
  H   H401      1.0  0.16924  0.11244  0.75799  1.0000
  Fe  Fe45      1.0  0.01188  0.07086  0.74924  1.0000
  C   C494      1.0  0.31190  0.25321  0.86672  1.0000
  C   C495      1.0  0.04409  0.03327  0.82004  1.0000
  C   C496      1.0  0.05442  0.05345  0.80969  1.0000
  C   C497      1.0  0.11904  0.03471  0.77868  1.0000
  H   H402      1.0  0.16240  0.33329  0.95072  1.0000
  H   H403      1.0  0.04452  0.06424  0.80652  1.0000
  C   C498      1.0  0.10128  0.19468  0.82986  1.0000
  C   C499      1.0  0.08798  0.20740  0.82489  1.0000
  C   C500      1.0  0.09692  0.22986  0.81826  1.0000
  C   C501      1.0  0.11925  0.23952  0.81641  1.0000
  C   C502      1.0  0.13295  0.22666  0.82095  1.0000
  C   C503      1.0  0.12365  0.20421  0.82796  1.0000
  P   P19       1.0  0.16133  0.23941  0.81964  1.0000
  C   C504      1.0  0.16218  0.24563  0.83665  1.0000
  C   C505      1.0  0.17821  0.22087  0.81669  1.0000
  C   C506      1.0  0.17887  0.20453  0.82861  1.0000
  C   C507      1.0  0.19299  0.19108  0.82665  1.0000
  C   C508      1.0  0.20636  0.19361  0.81273  1.0000
  C   C509      1.0  0.20559  0.20960  0.80076  1.0000
  C   C510      1.0  0.19156  0.22317  0.80269  1.0000
  C   C511      1.0  0.14357  0.24917  0.84540  1.0000
  C   C512      1.0  0.18216  0.25183  0.85439  1.0000
  C   C513      1.0  0.18155  0.24716  0.84120  1.0000
  C   C514      1.0  0.17198  0.26431  0.80464  1.0000
  C   C515      1.0  0.18602  0.28292  0.80598  1.0000
  C   C516      1.0  0.19428  0.30207  0.79433  1.0000
  C   C517      1.0  0.18857  0.30282  0.78129  1.0000
  C   C518      1.0  0.17468  0.28440  0.77981  1.0000
  C   C519      1.0  0.16656  0.26514  0.79139  1.0000
  H   H404      1.0  0.09417  0.17737  0.83537  1.0000
  H   H405      1.0  0.07066  0.19985  0.82640  1.0000
  H   H406      1.0  0.08645  0.23982  0.81471  1.0000
  H   H407      1.0  0.12569  0.25706  0.81166  1.0000
  H   H408      1.0  0.13343  0.19401  0.83221  1.0000
  H   H409      1.0  0.16887  0.20245  0.83954  1.0000
  H   H410      1.0  0.21748  0.18333  0.81128  1.0000
  H   H411      1.0  0.21611  0.21171  0.78998  1.0000
  H   H412      1.0  0.19154  0.23559  0.79326  1.0000
  H   H413      1.0  0.19711  0.25289  0.85792  1.0000
  H   H414      1.0  0.19624  0.24475  0.83461  1.0000
  H   H415      1.0  0.19076  0.28275  0.81594  1.0000
  H   H416      1.0  0.19883  0.27036  0.75381  1.0000
  C   C520      1.0  0.01093  0.00732  0.79942  1.0000
  H   H417      1.0  0.17042  0.28513  0.76961  1.0000
  H   H418      1.0  0.15618  0.25089  0.78996  1.0000
  H   H419      1.0  0.13315  0.18128  0.90110  1.0000
  C   C521      1.0  0.13645  0.18114  0.78983  1.0000
  H   H420      1.0  0.16428  0.25917  0.87316  1.0000
  H   H421      1.0  0.10180  0.24852  0.78619  1.0000
  H   H422      1.0  0.09532  0.22616  0.88934  1.0000
  C   C522      1.0  0.06514  0.10935  0.89789  1.0000
  C   C523      1.0  0.06279  0.08749  0.90501  1.0000
  C   C524      1.0  0.07089  0.08235  0.91713  1.0000
  C   C525      1.0  0.08122  0.09909  0.92217  1.0000
  C   C526      1.0  0.08316  0.12109  0.91528  1.0000
  C   C527      1.0  0.07549  0.12611  0.90287  1.0000
  P   P20       1.0  0.09860  0.14251  0.92099  1.0000
  C   C528      1.0  0.08761  0.14137  0.93986  1.0000
  C   C529      1.0  0.12642  0.13954  0.91745  1.0000
  C   C530      1.0  0.13796  0.13907  0.92811  1.0000
  C   C531      1.0  0.15934  0.13637  0.92518  1.0000
  C   C532      1.0  0.16922  0.13376  0.91171  1.0000
  C   C533      1.0  0.15777  0.13397  0.90111  1.0000
  C   C534      1.0  0.13648  0.13689  0.90394  1.0000
  C   C535      1.0  0.06997  0.12400  0.94941  1.0000
  C   C536      1.0  0.25648  0.28282  0.95974  1.0000
  S   S88       1.0  0.21230  0.33355  0.94371  1.0000
  H   H423      1.0  0.04893  0.10989  0.97145  1.0000
  C   C537      1.0  0.09683  0.15853  0.94506  1.0000
  C   C538      1.0  0.09782  0.16898  0.91075  1.0000
  C   C539      1.0  0.11725  0.18478  0.90200  1.0000
  C   C540      1.0  0.11630  0.20531  0.89426  1.0000
  C   C541      1.0  0.09599  0.21027  0.89536  1.0000
  C   C542      1.0  0.07657  0.19470  0.90426  1.0000
  C   C543      1.0  0.07747  0.17415  0.91198  1.0000
  H   H424      1.0  0.05956  0.11343  0.88819  1.0000
  H   H425      1.0  0.05520  0.07459  0.90089  1.0000
  H   H426      1.0  0.06963  0.06543  0.92239  1.0000
  H   H427      1.0  0.08821  0.09494  0.93121  1.0000
  H   H428      1.0  0.07808  0.14288  0.89663  1.0000
  H   H429      1.0  0.13085  0.14110  0.93862  1.0000
  H   H430      1.0  0.20524  0.31638  0.79533  1.0000
  H   H431      1.0  0.22095  0.28035  0.93615  1.0000
  H   H432      1.0  0.16567  0.13242  0.89056  1.0000
  H   H433      1.0  0.12797  0.13728  0.89551  1.0000
  H   H434      1.0  0.06204  0.11092  0.94564  1.0000
  C   C544      1.0  0.32698  0.30452  0.90240  1.0000
  C   C545      1.0  0.29001  0.25383  0.87150  1.0000
  H   H435      1.0  0.17337  0.27192  0.97061  1.0000
  H   H436      1.0  0.11020  0.17226  0.93781  1.0000
  H   H437      1.0  0.12849  0.24829  0.84213  1.0000
  H   H438      1.0  0.32035  0.31157  0.94666  1.0000
  S   S89       1.0  0.31755  0.27324  0.97090  1.0000
  C   C546      1.0  0.12170  0.01875  0.77147  1.0000
  C   C547      1.0  0.12400  0.16168  0.76289  1.0000
  C   C548      1.0  0.08677  0.20448  0.97878  1.0000
  P   P21       1.0  0.11973  0.05364  0.80132  1.0000
  C   C549      1.0  0.13429  0.01714  0.79723  1.0000
  S   S90       1.0  0.00314  0.07912  0.77060  1.0000
  C   C550      1.0  0.13665  0.25312  0.90970  1.0000
  C   C551      1.0  0.16117  0.32175  0.74366  1.0000
  H   H439      1.0  0.11906  0.20843  0.74955  1.0000
  C   C552      1.0  0.15254  0.05300  0.83878  1.0000
  H   H440      1.0  0.15953  0.16404  0.81717  1.0000
  H   H441      1.0  0.17060  0.20141  0.74172  1.0000
  C   C553      1.0  0.18442  0.32393  0.90623  1.0000
  C   C554      1.0  0.10203  0.23122  0.75591  1.0000
  C   C555      1.0  0.18018  0.23904  0.94850  1.0000
  C   C556      1.0  0.13834  0.27847  0.96051  1.0000
  H   H442      1.0  0.32291  0.28722  0.90310  1.0000
  C   C557      1.0  0.14177  0.18047  0.75911  1.0000
  H   H443      1.0  0.13002  0.25691  0.86520  1.0000
  H   H444      1.0  0.08523  0.02738  0.73974  1.0000
  C   C558      1.0  0.07944  0.02528  0.81835  1.0000
  C   C559      1.0  0.31694  0.31867  0.89472  1.0000
  H   H445      1.0  0.09816  0.22827  0.95777  1.0000
  C   C560      1.0  0.32421  0.28597  0.87382  1.0000
  H   H446      1.0  0.13987  0.18838  0.96609  1.0000
  C   C561      1.0  0.12557  0.03420  0.79149  1.0000
  H   H447      1.0  0.16759  0.30010  0.94410  1.0000
  C   C562      1.0  0.05203  0.17199  0.74575  1.0000
  H   H448      1.0  0.16844  0.13685  0.93327  1.0000
  C   C563      1.0  0.10850  0.15745  0.81179  1.0000
  H   H449      1.0  0.08492  0.07545  0.79561  1.0000
  H   H450      1.0  0.17265  0.23147  0.94139  1.0000
  H   H451      1.0  0.13848  0.01573  0.80746  1.0000
  C   C564      1.0  0.19982  0.23478  0.95066  1.0000
  C   C565      1.0  0.15615  0.18569  0.96439  1.0000
  C   C566      1.0  0.13110  0.08154  0.78999  1.0000
  C   C567      1.0  0.23502  0.28523  0.92664  1.0000
  H   H452      1.0  0.16103  0.24630  0.76226  1.0000
  H   H453      1.0  0.13197  0.21824  0.91756  1.0000
  C   C568      1.0  0.18852  0.18325  0.97296  1.0000
  C   C569      1.0  0.13508  0.23406  0.93431  1.0000
  C   C570      1.0  0.14104  0.27338  0.92732  1.0000
  C   C571      1.0  0.07735  0.05975  0.80367  1.0000
  H   H454      1.0  0.45922  0.03560  0.96830  1.0000
  C   C572      1.0  0.13885  0.25391  0.93794  1.0000
  H   H455      1.0  0.26798  0.27035  0.88142  1.0000
  H   H456      1.0  0.27272  0.26475  0.90784  1.0000
  C   C573      1.0  0.13408  0.23365  0.92026  1.0000
  H   H457      1.0  0.34599  0.26881  0.86413  1.0000
  C   C574      1.0  0.00342  0.02538  0.79377  1.0000
  C   C575      1.0  0.11512  0.21671  0.75780  1.0000
  H   H458      1.0  0.07244  0.00676  0.79275  1.0000
  C   C576      1.0  0.09731  0.24274  0.76612  1.0000
  C   C577      1.0  0.11421  0.17058  0.79740  1.0000
  P   P22       1.0  0.14257  0.25405  0.95572  1.0000
  H   H459      1.0  0.13350  0.21888  0.94228  1.0000
  C   C578      1.0  0.04633  0.01374  0.86040  1.0000
  C   C579      1.0  0.12575  0.09859  0.79540  1.0000
  H   H460      1.0  0.15945  0.14229  0.76764  1.0000
  C   C580      1.0  0.15352  0.29881  0.95293  1.0000
  C   C581      1.0  0.10526  0.23935  0.77842  1.0000
  C   C582      1.0  0.13233  0.05258  0.81612  1.0000
  C   C583      1.0  0.13987  0.27292  0.91328  1.0000
  H   H461      1.0  0.13654  0.25294  0.89869  1.0000
  H   H462      1.0  0.18596  0.13213  0.90934  1.0000
  C   C584      1.0  0.34173  0.31235  0.90980  1.0000
  C   C585      1.0  0.13580  0.12040  0.78730  1.0000
  C   C586      1.0  0.09007  0.04592  0.80832  1.0000
  C   C587      1.0  0.48525  0.01945  0.96846  1.0000
  H   H463      1.0  0.15199  0.07389  0.77226  1.0000
  C   C588      1.0  0.06235  0.12344  0.96407  1.0000
  C   C589      1.0  0.26413  0.27654  0.91051  1.0000
  C   C590      1.0  0.15277  0.17873  0.79710  1.0000
  C   C591      1.0  0.17010  0.25202  0.95599  1.0000
  C   C592      1.0  0.20068  0.32746  0.74042  1.0000
  H   H464      1.0  0.22423  0.23913  0.96243  1.0000
  H   H465      1.0  0.14215  0.28810  0.90506  1.0000
  C   C593      1.0  0.15155  0.12537  0.77387  1.0000
  C   C594      1.0  0.20030  0.25724  0.96717  1.0000
  C   C595      1.0  0.12233  0.14879  0.75330  1.0000
  Fe  Fe46      1.0  0.38153  0.28472  0.96756  1.0000
  H   H466      1.0  0.20722  0.22428  0.94516  1.0000
  H   H467      1.0  0.08792  0.25465  0.76428  1.0000
  Fe  Fe47      1.0  0.34291  0.30494  0.96671  1.0000
  H   H468      1.0  0.10118  0.17230  0.79220  1.0000
  H   H469      1.0  0.18734  0.18989  0.76599  1.0000
  C   C596      1.0  0.26022  0.31344  0.90570  1.0000
  H   H470      1.0  0.25706  0.31091  0.87641  1.0000
  C   C597      1.0  0.24221  0.30693  0.91803  1.0000
  H   H471      1.0  0.11158  0.04732  0.77439  1.0000
  H   H472      1.0  0.09134  0.14909  0.81741  1.0000
  P   P23       1.0  0.29586  0.30767  0.88684  1.0000
  S   S91       1.0  0.41771  0.29172  0.96819  1.0000
  H   H473      1.0  0.02653  0.02899  0.82519  1.0000
  H   H474      1.0  0.11381  0.09507  0.80591  1.0000
  H   H475      1.0  0.07089  0.19763  0.97727  1.0000
  H   H476      1.0  0.16027  0.05312  0.84756  1.0000
  C   C598      1.0  0.06049  0.01431  0.76046  1.0000
  H   H477      1.0  0.24070  0.25321  0.92954  1.0000
  H   H478      1.0  0.11116  0.15700  0.77306  1.0000
  C   C599      1.0  0.27121  0.29828  0.90180  1.0000
  C   C600      1.0  0.12481  0.15510  0.81891  1.0000
  S   S92       1.0  0.35974  0.25104  0.97081  1.0000
  C   C601      1.0  0.13320  0.31643  0.96843  1.0000
  C   C602      1.0  0.19884  0.18008  0.95973  1.0000
  C   C603      1.0  0.12366  0.21364  0.76989  1.0000
  H   H479      1.0  0.24754  0.31109  0.94918  1.0000
  C   C604      1.0  0.18071  0.26164  0.96496  1.0000
  H   H480      1.0  0.12027  0.14521  0.83017  1.0000
  H   H481      1.0  0.29663  0.31702  0.93013  1.0000
  H   H482      1.0  0.33769  0.29840  0.87447  1.0000
  C   C605      1.0  0.03859  0.15110  0.75381  1.0000
  C   C606      1.0  0.14693  0.16578  0.81157  1.0000
  H   H483      1.0  0.21546  0.17817  0.95783  1.0000
  H   H484      1.0  0.25959  0.27715  0.95008  1.0000
  H   H485      1.0  0.31551  0.24001  0.86239  1.0000
  C   C607      1.0  0.17121  0.21607  0.76547  1.0000
  H   H486      1.0  0.13159  0.33107  0.97161  1.0000
  C   C608      1.0  0.15742  0.18639  0.74540  1.0000
  H   H487      1.0  0.09625  0.23411  0.74622  1.0000
  C   C609      1.0  0.31412  0.32591  0.94525  1.0000
  H   H488      1.0  0.16505  0.05603  0.80265  1.0000
  C   C610      1.0  0.48620  0.05400  0.97412  1.0000
  C   C611      1.0  0.24971  0.30198  0.95925  1.0000
  C   C612      1.0  0.30217  0.28626  0.87910  1.0000
  C   C613      1.0  0.11830  0.22475  0.78035  1.0000
  H   H489      1.0  0.12017  0.05073  0.85214  1.0000
  P   P24       1.0  0.14355  0.19787  0.77113  1.0000
  C   C614      1.0  0.24626  0.30965  0.97160  1.0000
  C   C615      1.0  0.12065  0.27729  0.97228  1.0000
  H   H490      1.0  0.09805  0.06381  0.74366  1.0000
  C   C616      1.0  0.16705  0.18581  0.97534  1.0000
  H   H491      1.0  0.10488  0.29513  0.98554  1.0000
  H   H492      1.0  0.34906  0.30116  0.91591  1.0000
  H   H493      1.0  0.01304  0.12365  0.75421  1.0000
  C   C617      1.0  0.02601  0.01808  0.86024  1.0000
  H   H494      1.0  0.08888  0.01425  0.82204  1.0000
  H   H495      1.0  0.22520  0.21463  0.75696  1.0000
  C   C618      1.0  0.27078  0.32482  0.86971  1.0000
  H   H496      1.0  0.10265  0.05123  0.83228  1.0000
  H   H497      1.0  0.19507  0.31768  0.77227  1.0000
  C   C619      1.0  0.07221  0.14023  0.96925  1.0000
  C   C620      1.0  0.12303  0.23070  0.96953  1.0000
  C   C621      1.0  0.13000  0.05164  0.84138  1.0000
  H   H498      1.0  0.24072  0.32438  0.97102  1.0000
  H   H499      1.0  0.18265  0.05590  0.82275  1.0000
  H   H500      1.0  0.06660  0.13960  0.98065  1.0000
  C   C622      1.0  0.18106  0.32586  0.89240  1.0000
  C   C623      1.0  0.48722  0.13343  0.97285  1.0000
  C   C624      1.0  0.29170  0.32754  0.87229  1.0000
  C   C625      1.0  0.30075  0.32902  0.93588  1.0000
  H   H501      1.0  0.47684  0.00571  0.96538  1.0000
  H   H502      1.0  0.08287  0.14807  0.74067  1.0000
  H   H503      1.0  0.09736  0.17075  0.96367  1.0000
  C   C626      1.0  0.25903  0.27085  0.97274  1.0000
  C   C627      1.0  0.21107  0.22134  0.75865  1.0000
  H   H504      1.0  0.23093  0.25489  0.75086  1.0000
  C   C628      1.0  0.19618  0.25276  0.75684  1.0000
  C   C629      1.0  0.21434  0.24401  0.75520  1.0000
  H   H505      1.0  0.45993  0.29757  0.97450  1.0000
  C   C630      1.0  0.13818  0.15460  0.73984  1.0000
  C   C631      1.0  0.47534  0.03629  0.97012  1.0000
  H   H506      1.0  0.26594  0.33050  0.89950  1.0000
  H   H507      1.0  0.47883  0.14619  0.97086  1.0000
  H   H508      1.0  0.00885  0.03384  0.78220  1.0000
  H   H509      1.0  0.26383  0.25572  0.97324  1.0000
  C   C632      1.0  0.12756  0.22259  0.98281  1.0000
  C   C633      1.0  0.34614  0.33424  0.90993  1.0000
  H   H510      1.0  0.41782  0.33531  0.94910  1.0000
  C   C634      1.0  0.11817  0.29621  0.97623  1.0000
  H   H511      1.0  0.20090  0.30297  0.98119  1.0000
  H   H512      1.0  0.10898  0.26183  0.97868  1.0000
  C   C635      1.0  0.16057  0.30390  0.73783  1.0000
  S   S93       1.0  0.04395  0.06505  0.73893  1.0000
  H   H513      1.0  0.14613  0.32637  0.74721  1.0000
  C   C636      1.0  0.13083  0.00210  0.77706  1.0000
  S   S94       1.0  0.35773  0.29268  0.98441  1.0000
  S   S95       1.0  0.13557  0.28896  0.73627  1.0000
  C   C637      1.0  0.15569  0.17342  0.73588  1.0000
  C   C638      1.0  0.18128  0.33373  0.74478  1.0000
  C   C639      1.0  0.25580  0.27858  0.98506  1.0000
  H   H514      1.0  0.15911  0.18855  0.98539  1.0000
  C   C640      1.0  0.25029  0.29853  0.98443  1.0000
  H   H515      1.0  0.14303  0.22968  0.98477  1.0000
  S   S96       1.0  0.03246  0.64137  0.99067  1.0000
  C   C641      1.0  0.46447  0.33631  0.22162  1.0000
  C   C642      1.0  0.40297  0.36981  0.00493  1.0000
  C   C643      1.0  0.01857  0.63623  0.04039  1.0000
  C   C644      1.0  0.28314  0.60485  0.99992  1.0000
  S   S97       1.0  0.49443  0.36294  0.14597  1.0000
  H   H516      1.0  0.39770  0.35518  0.00168  1.0000
  C   C645      1.0  0.41225  0.36838  0.01665  1.0000
  H   H517      1.0  0.41456  0.35290  0.02215  1.0000
  S   S98       1.0  0.48710  0.40255  0.17184  1.0000
  C   C646      1.0  0.30406  0.60942  0.99018  1.0000
  C   C647      1.0  0.03720  0.63166  0.03261  1.0000
  H   H518      1.0  0.42608  0.37408  0.21693  1.0000
  C   C648      1.0  0.41900  0.38698  0.02112  1.0000
  C   C649      1.0  0.49908  0.35425  0.10614  1.0000
  C   C650      1.0  0.48637  0.34121  0.09966  1.0000
  H   H519      1.0  0.34652  0.34972  0.01966  1.0000
  H   H520      1.0  0.24540  0.38048  0.00958  1.0000
  C   C651      1.0  0.45233  0.38730  0.19680  1.0000
  H   H521      1.0  0.45841  0.40256  0.19909  1.0000
  H   H522      1.0  0.32597  0.34634  0.22471  1.0000
  C   C652      1.0  0.45508  0.36359  0.18106  1.0000
  C   C653      1.0  0.43411  0.37113  0.20694  1.0000
  H   H523      1.0  0.29625  0.36918  0.00513  1.0000
  C   C654      1.0  0.43672  0.34766  0.19103  1.0000
  C   C655      1.0  0.46302  0.38340  0.18392  1.0000
  H   H524      1.0  0.31483  0.59911  0.99254  1.0000
  H   H525      1.0  0.02530  0.66621  0.22689  1.0000
  H   H526      1.0  0.04928  0.61035  0.02078  1.0000
  H   H527      1.0  0.46308  0.36041  0.17119  1.0000
  C   C656      1.0  0.42639  0.35123  0.20407  1.0000
  H   H528      1.0  0.23910  0.34032  0.01672  1.0000
  C   C657      1.0  0.03486  0.61347  0.02718  1.0000
  C   C658      1.0  0.35015  0.39860  0.99554  1.0000
  C   C659      1.0  0.25194  0.37253  0.00165  1.0000
  H   H529      1.0  0.42645  0.38585  0.03010  1.0000
  C   C660      1.0  0.26886  0.61773  0.99694  1.0000
  C   C661      1.0  0.31407  0.37339  0.00088  1.0000
  C   C662      1.0  0.32716  0.39319  0.00120  1.0000
  H   H530      1.0  0.31946  0.40438  0.00578  1.0000
  C   C663      1.0  0.24823  0.34974  0.00563  1.0000
  H   H531      1.0  0.37188  0.64976  0.00284  1.0000
  C   C664      1.0  0.40722  0.40855  0.00212  1.0000
  C   C665      1.0  0.01385  0.59979  0.02956  1.0000
  H   H532      1.0  0.05340  0.64279  0.03029  1.0000
  S   S99       1.0  0.49953  0.35210  0.03479  1.0000
  H   H533      1.0  0.36009  0.41404  0.99581  1.0000
  H   H534      1.0  0.34168  0.63205  0.99420  1.0000
  H   H535      1.0  0.27788  0.59116  0.00970  1.0000
  C   C666      1.0  0.36022  0.38428  0.98942  1.0000
  H   H536      1.0  0.01196  0.58602  0.02501  1.0000
  C   C667      1.0  0.32401  0.35887  0.99513  1.0000
  H   H537      1.0  0.25255  0.61405  0.00440  1.0000
  C   C668      1.0  0.40101  0.39004  0.99729  1.0000
  H   H538      1.0  0.42140  0.42138  0.01752  1.0000
  C   C669      1.0  0.41627  0.40701  0.01396  1.0000
  C   C670      1.0  0.48269  0.35006  0.21037  1.0000
  H   H539      1.0  0.40520  0.42418  0.99674  1.0000
  C   C671      1.0  0.49428  0.34189  0.08498  1.0000
  H   H540      1.0  0.31394  0.34354  0.99479  1.0000
  H   H541      1.0  0.48207  0.35272  0.19917  1.0000
  C   C672      1.0  0.26339  0.38494  0.98733  1.0000
  C   C673      1.0  0.34700  0.36413  0.98963  1.0000
  H   H542      1.0  0.49288  0.35339  0.11750  1.0000
  H   H543      1.0  0.02095  0.65090  0.04390  1.0000
  C   C674      1.0  0.25547  0.33916  0.99520  1.0000
  C   C675      1.0  0.01198  0.65254  0.23423  1.0000
  C   C676      1.0  0.37389  0.65251  0.99124  1.0000
  C   C677      1.0  0.35677  0.64242  0.98628  1.0000
  H   H544      1.0  0.35765  0.34524  0.04261  1.0000
  C   C678      1.0  0.35216  0.33559  0.02377  1.0000
  C   C679      1.0  0.31561  0.34388  0.23560  1.0000
  Fe  Fe48      1.0  0.26483  0.35545  0.36597  1.0000
  S   S100      1.0  0.23298  0.36421  0.36565  1.0000
  C   C680      1.0  0.45607  0.46805  0.43467  1.0000
  Fe  Fe49      1.0  0.29026  0.38759  0.33683  1.0000
  S   S101      1.0  0.26044  0.39906  0.33398  1.0000
  S   S102      1.0  0.32445  0.40496  0.32174  1.0000
  Fe  Fe50      1.0  0.25407  0.39910  0.35747  1.0000
  S   S103      1.0  0.24453  0.42794  0.36420  1.0000
  Fe  Fe51      1.0  0.24218  0.36315  0.34227  1.0000
  C   C681      1.0  0.12525  0.62774  0.31655  1.0000
  S   S104      1.0  0.28509  0.39024  0.35971  1.0000
  S   S105      1.0  0.27262  0.35184  0.34326  1.0000
  H   H545      1.0  0.20363  0.52832  0.43737  1.0000
  H   H546      1.0  0.33592  0.35449  0.29152  1.0000
  C   C682      1.0  0.38168  0.64711  0.37904  1.0000
  C   C683      1.0  0.39490  0.34687  0.45280  1.0000
  C   C684      1.0  0.34486  0.64535  0.39266  1.0000
  Fe  Fe52      1.0  0.02078  0.60137  0.32460  1.0000
  S   S106      1.0  0.05273  0.59750  0.33066  1.0000
  C   C685      1.0  0.49720  0.37016  0.27391  1.0000
  H   H547      1.0  0.33319  0.36624  0.38308  1.0000
  H   H548      1.0  0.23033  0.59151  0.44195  1.0000
  H   H549      1.0  0.41192  0.36453  0.40486  1.0000
  H   H550      1.0  0.33946  0.36722  0.24082  1.0000
  H   H551      1.0  0.27232  0.45948  0.32922  1.0000
  C   C686      1.0  0.39453  0.33773  0.39836  1.0000
  H   H552      1.0  0.33297  0.65338  0.39712  1.0000
  C   C687      1.0  0.29141  0.53373  0.48420  1.0000
  Fe  Fe53      1.0  0.14437  0.65237  0.40675  1.0000
  S   S107      1.0  0.12390  0.62358  0.40226  1.0000
  Fe  Fe54      1.0  0.15630  0.61553  0.39575  1.0000
  S   S108      1.0  0.15970  0.58204  0.40540  1.0000
  Fe  Fe55      1.0  0.27344  0.53738  0.42484  1.0000
  S   S109      1.0  0.30555  0.52949  0.41722  1.0000
  S   S110      1.0  0.25646  0.53599  0.44800  1.0000
  Fe  Fe56      1.0  0.26787  0.54944  0.39426  1.0000
  S   S111      1.0  0.29961  0.54256  0.38427  1.0000
  S   S112      1.0  0.24911  0.56187  0.37880  1.0000
  Fe  Fe57      1.0  0.28859  0.51252  0.40331  1.0000
  S   S113      1.0  0.29409  0.47989  0.40101  1.0000
  Fe  Fe58      1.0  0.31343  0.56032  0.39886  1.0000
  S   S114      1.0  0.34761  0.58369  0.38993  1.0000
  S   S115      1.0  0.25564  0.51811  0.41237  1.0000
  S   S116      1.0  0.28255  0.56942  0.40741  1.0000
  C   C688      1.0  0.18577  0.57856  0.39814  1.0000
  C   C689      1.0  0.19556  0.56644  0.40732  1.0000
  C   C690      1.0  0.21577  0.56229  0.40157  1.0000
  C   C691      1.0  0.22570  0.56955  0.38652  1.0000
  C   C692      1.0  0.21602  0.58187  0.37734  1.0000
  C   C693      1.0  0.19623  0.58665  0.38317  1.0000
  H   H553      1.0  0.18731  0.56011  0.41886  1.0000
  H   H554      1.0  0.22307  0.55252  0.40863  1.0000
  H   H555      1.0  0.22372  0.58750  0.36570  1.0000
  H   H556      1.0  0.18873  0.59597  0.37603  1.0000
  C   C694      1.0  0.37554  0.62446  0.38117  1.0000
  C   C695      1.0  0.35393  0.61200  0.38870  1.0000
  H   H557      1.0  0.38757  0.61660  0.37666  1.0000
  H   H558      1.0  0.32168  0.61303  0.40028  1.0000
  C   C696      1.0  0.49656  0.40281  0.43724  1.0000
  C   C697      1.0  0.30153  0.52992  0.47110  1.0000
  C   C698      1.0  0.29126  0.53099  0.45973  1.0000
  C   C699      1.0  0.27042  0.53502  0.46167  1.0000
  C   C700      1.0  0.26005  0.53810  0.47494  1.0000
  H   H559      1.0  0.23373  0.34917  0.28981  1.0000
  H   H560      1.0  0.31747  0.52643  0.46967  1.0000
  H   H561      1.0  0.29930  0.52840  0.44959  1.0000
  H   H562      1.0  0.24382  0.54091  0.47655  1.0000
  C   C701      1.0  0.47533  0.39202  0.43709  1.0000
  C   C702      1.0  0.06650  0.61153  0.34137  1.0000
  C   C703      1.0  0.06427  0.63201  0.34273  1.0000
  H   H563      1.0  0.44577  0.47856  0.43165  1.0000
  C   C704      1.0  0.09162  0.63424  0.35685  1.0000
  C   C705      1.0  0.09354  0.61357  0.35574  1.0000
  C   C706      1.0  0.08120  0.60244  0.34798  1.0000
  C   C707      1.0  0.46258  0.34782  0.32389  1.0000
  C   C708      1.0  0.07682  0.64328  0.35032  1.0000
  H   H564      1.0  0.10462  0.60622  0.36079  1.0000
  H   H565      1.0  0.08292  0.58660  0.34709  1.0000
  C   C709      1.0  0.39494  0.59438  0.41126  1.0000
  H   H566      1.0  0.39469  0.61960  0.42207  1.0000
  H   H567      1.0  0.33442  0.58275  0.35434  1.0000
  C   C710      1.0  0.23831  0.65755  0.44726  1.0000
  H   H568      1.0  0.20188  0.61803  0.43210  1.0000
  C   C711      1.0  0.22498  0.63733  0.45656  1.0000
  H   H569      1.0  0.49000  0.37713  0.25324  1.0000
  S   S117      1.0  0.17605  0.64285  0.40177  1.0000
  C   C712      1.0  0.25883  0.44234  0.37425  1.0000
  C   C713      1.0  0.25478  0.46225  0.37579  1.0000
  C   C714      1.0  0.26583  0.47413  0.38370  1.0000
  C   C715      1.0  0.28052  0.46585  0.39052  1.0000
  C   C716      1.0  0.28449  0.44589  0.38907  1.0000
  C   C717      1.0  0.27380  0.43425  0.38090  1.0000
  H   H570      1.0  0.24320  0.46862  0.37071  1.0000
  H   H571      1.0  0.26296  0.48966  0.38454  1.0000
  H   H572      1.0  0.29583  0.43938  0.39432  1.0000
  H   H573      1.0  0.27683  0.41883  0.37995  1.0000
  C   C718      1.0  0.35364  0.38804  0.27995  1.0000
  C   C719      1.0  0.35834  0.40959  0.28084  1.0000
  C   C720      1.0  0.34952  0.41434  0.29379  1.0000
  C   C721      1.0  0.33502  0.39775  0.30581  1.0000
  C   C722      1.0  0.33009  0.37611  0.30500  1.0000
  C   C723      1.0  0.33972  0.37117  0.29214  1.0000
  H   H574      1.0  0.36895  0.42268  0.27145  1.0000
  H   H575      1.0  0.35353  0.43105  0.29436  1.0000
  H   H576      1.0  0.31892  0.36323  0.31427  1.0000
  C   C724      1.0  0.27707  0.35838  0.28654  1.0000
  H   H577      1.0  0.44604  0.46625  0.45749  1.0000
  C   C725      1.0  0.49782  0.42225  0.47619  1.0000
  H   H578      1.0  0.34413  0.35521  0.35162  1.0000
  H   H579      1.0  0.30611  0.35742  0.36014  1.0000
  C   C726      1.0  0.33849  0.62246  0.39452  1.0000
  C   C727      1.0  0.27845  0.35988  0.30037  1.0000
  C   C728      1.0  0.28216  0.38026  0.30314  1.0000
  C   C729      1.0  0.28432  0.39921  0.29225  1.0000
  C   C730      1.0  0.28243  0.39777  0.27854  1.0000
  C   C731      1.0  0.27868  0.37740  0.27569  1.0000
  H   H580      1.0  0.16960  0.62548  0.44872  1.0000
  H   H581      1.0  0.28758  0.41496  0.29448  1.0000
  H   H582      1.0  0.32116  0.59659  0.42685  1.0000
  H   H583      1.0  0.40015  0.35070  0.46194  1.0000
  H   H584      1.0  0.47690  0.34184  0.32474  1.0000
  H   H585      1.0  0.48920  0.36171  0.41409  1.0000
  C   C732      1.0  0.30917  0.59749  0.46239  1.0000
  C   C733      1.0  0.15659  0.64539  0.33804  1.0000
  C   C734      1.0  0.32201  0.59832  0.44860  1.0000
  C   C735      1.0  0.39000  0.60068  0.47257  1.0000
  H   H586      1.0  0.31684  0.60056  0.47078  1.0000
  C   C736      1.0  0.27396  0.62147  0.39531  1.0000
  C   C737      1.0  0.11468  0.59598  0.30229  1.0000
  C   C738      1.0  0.10292  0.61175  0.30268  1.0000
  C   C739      1.0  0.42884  0.35460  0.37222  1.0000
  C   C740      1.0  0.49106  0.41020  0.46692  1.0000
  C   C741      1.0  0.13710  0.61185  0.31633  1.0000
  C   C742      1.0  0.13164  0.59596  0.30911  1.0000
  P   P25       1.0  0.15700  0.60967  0.32676  1.0000
  H   H587      1.0  0.27637  0.59249  0.47607  1.0000
  C   C743      1.0  0.14321  0.59067  0.34460  1.0000
  C   C744      1.0  0.15251  0.59147  0.35623  1.0000
  C   C745      1.0  0.14172  0.57715  0.37015  1.0000
  C   C746      1.0  0.12164  0.56186  0.37255  1.0000
  C   C747      1.0  0.11246  0.56065  0.36098  1.0000
  C   C748      1.0  0.12326  0.57489  0.34702  1.0000
  H   H588      1.0  0.24705  0.63603  0.33310  1.0000
  C   C749      1.0  0.46911  0.46132  0.42403  1.0000
  C   C750      1.0  0.18695  0.60782  0.30207  1.0000
  C   C751      1.0  0.37972  0.34734  0.31932  1.0000
  C   C752      1.0  0.43340  0.66193  0.43723  1.0000
  C   C753      1.0  0.17847  0.59970  0.31731  1.0000
  C   C754      1.0  0.18723  0.58426  0.32503  1.0000
  C   C755      1.0  0.20408  0.57694  0.31758  1.0000
  C   C756      1.0  0.42976  0.65919  0.45224  1.0000
  H   H589      1.0  0.08919  0.66647  0.39142  1.0000
  C   C757      1.0  0.33254  0.34238  0.36070  1.0000
  H   H590      1.0  0.11008  0.58333  0.29711  1.0000
  H   H591      1.0  0.08908  0.61120  0.29800  1.0000
  C   C758      1.0  0.33190  0.35675  0.39400  1.0000
  H   H592      1.0  0.12833  0.63982  0.32233  1.0000
  H   H593      1.0  0.13994  0.58306  0.30919  1.0000
  H   H594      1.0  0.16810  0.60317  0.35456  1.0000
  H   H595      1.0  0.14878  0.57802  0.37915  1.0000
  H   H596      1.0  0.11316  0.55104  0.38342  1.0000
  H   H597      1.0  0.09677  0.54893  0.36285  1.0000
  H   H598      1.0  0.11566  0.57377  0.33830  1.0000
  S   S118      1.0  0.21669  0.34983  0.33142  1.0000
  H   H599      1.0  0.46892  0.46663  0.41275  1.0000
  C   C759      1.0  0.21198  0.62892  0.43648  1.0000
  C   C760      1.0  0.20166  0.66571  0.32558  1.0000
  H   H600      1.0  0.48155  0.37194  0.27971  1.0000
  H   H601      1.0  0.18116  0.57780  0.33678  1.0000
  H   H602      1.0  0.21073  0.56498  0.32361  1.0000
  H   H603      1.0  0.10428  0.60114  0.47777  1.0000
  H   H604      1.0  0.28207  0.64270  0.34002  1.0000
  C   C761      1.0  0.16941  0.63581  0.32914  1.0000
  C   C762      1.0  0.35298  0.57304  0.43048  1.0000
  C   C763      1.0  0.36265  0.56329  0.42033  1.0000
  C   C764      1.0  0.38348  0.57408  0.41060  1.0000
  C   C765      1.0  0.28619  0.59318  0.46538  1.0000
  C   C766      1.0  0.27592  0.58977  0.45460  1.0000
  C   C767      1.0  0.28860  0.59076  0.44082  1.0000
  H   H605      1.0  0.33680  0.56440  0.43794  1.0000
  H   H606      1.0  0.35366  0.54768  0.41969  1.0000
  H   H607      1.0  0.39049  0.56686  0.40236  1.0000
  H   H608      1.0  0.46078  0.39492  0.44348  1.0000
  H   H609      1.0  0.25813  0.58600  0.45699  1.0000
  C   C768      1.0  0.32901  0.63123  0.36023  1.0000
  C   C769      1.0  0.28549  0.64274  0.38650  1.0000
  H   H610      1.0  0.29405  0.57677  0.35774  1.0000
  C   C770      1.0  0.38542  0.60407  0.42153  1.0000
  H   H611      1.0  0.41104  0.60276  0.40367  1.0000
  H   H612      1.0  0.23445  0.56158  0.43090  1.0000
  H   H613      1.0  0.30048  0.43973  0.32275  1.0000
  H   H614      1.0  0.24619  0.64498  0.38222  1.0000
  H   H615      1.0  0.28406  0.41244  0.27008  1.0000
  C   C771      1.0  0.35948  0.63543  0.43879  1.0000
  C   C772      1.0  0.34482  0.51643  0.37265  1.0000
  C   C773      1.0  0.35985  0.53523  0.36266  1.0000
  C   C774      1.0  0.37156  0.53412  0.34912  1.0000
  C   C775      1.0  0.36827  0.51419  0.34560  1.0000
  C   C776      1.0  0.35333  0.49520  0.35568  1.0000
  C   C777      1.0  0.34145  0.49657  0.36914  1.0000
  P   P26       1.0  0.34781  0.46960  0.35107  1.0000
  C   C778      1.0  0.34214  0.44705  0.36724  1.0000
  C   C779      1.0  0.32416  0.46704  0.34382  1.0000
  C   C780      1.0  0.30826  0.47833  0.34731  1.0000
  C   C781      1.0  0.28988  0.47594  0.34178  1.0000
  C   C782      1.0  0.28705  0.46203  0.33296  1.0000
  C   C783      1.0  0.30279  0.45075  0.32944  1.0000
  C   C784      1.0  0.32123  0.45318  0.33486  1.0000
  C   C785      1.0  0.35299  0.44918  0.37804  1.0000
  C   C786      1.0  0.34824  0.43180  0.39065  1.0000
  C   C787      1.0  0.33275  0.41214  0.39251  1.0000
  C   C788      1.0  0.32214  0.40980  0.38172  1.0000
  C   C789      1.0  0.32690  0.42714  0.36911  1.0000
  C   C790      1.0  0.37143  0.46847  0.33757  1.0000
  C   C791      1.0  0.37407  0.47763  0.32265  1.0000
  C   C792      1.0  0.39149  0.47557  0.31212  1.0000
  C   C793      1.0  0.40655  0.46458  0.31638  1.0000
  C   C794      1.0  0.40431  0.45579  0.33120  1.0000
  C   C795      1.0  0.38688  0.45779  0.34177  1.0000
  H   H616      1.0  0.33548  0.51724  0.38310  1.0000
  H   H617      1.0  0.36218  0.55066  0.36540  1.0000
  H   H618      1.0  0.38303  0.54877  0.34132  1.0000
  H   H619      1.0  0.37724  0.51373  0.33500  1.0000
  H   H620      1.0  0.32932  0.48231  0.37688  1.0000
  H   H621      1.0  0.30959  0.48859  0.35454  1.0000
  H   H622      1.0  0.27734  0.48420  0.34481  1.0000
  H   H623      1.0  0.33293  0.44385  0.33227  1.0000
  H   H624      1.0  0.36491  0.46435  0.37682  1.0000
  H   H625      1.0  0.35629  0.43370  0.39909  1.0000
  H   H626      1.0  0.32879  0.39879  0.40238  1.0000
  H   H627      1.0  0.30992  0.39469  0.38318  1.0000
  H   H628      1.0  0.31836  0.42509  0.36097  1.0000
  H   H629      1.0  0.36240  0.48600  0.31914  1.0000
  H   H630      1.0  0.39310  0.48225  0.30063  1.0000
  H   H631      1.0  0.41990  0.46281  0.30820  1.0000
  H   H632      1.0  0.41587  0.44709  0.33451  1.0000
  H   H633      1.0  0.38534  0.45063  0.35316  1.0000
  H   H634      1.0  0.12100  0.41985  0.44570  1.0000
  H   H635      1.0  0.33613  0.56588  0.46864  1.0000
  H   H636      1.0  0.28058  0.58767  0.43261  1.0000
  H   H637      1.0  0.08715  0.66431  0.44234  1.0000
  C   C796      1.0  0.21883  0.56040  0.43839  1.0000
  C   C797      1.0  0.36404  0.59381  0.43086  1.0000
  C   C798      1.0  0.41174  0.35632  0.39642  1.0000
  C   C799      1.0  0.41154  0.33649  0.37394  1.0000
  Fe  Fe59      1.0  0.37643  0.35370  0.26201  1.0000
  H   H638      1.0  0.05318  0.63937  0.33769  1.0000
  C   C800      1.0  0.20142  0.54156  0.44209  1.0000
  H   H639      1.0  0.44207  0.36095  0.36213  1.0000
  H   H640      1.0  0.21174  0.63343  0.35080  1.0000
  C   C801      1.0  0.42894  0.36454  0.38346  1.0000
  C   C802      1.0  0.35576  0.64647  0.44949  1.0000
  C   C803      1.0  0.30612  0.62796  0.36228  1.0000
  C   C804      1.0  0.23834  0.66351  0.43266  1.0000
  S   S119      1.0  0.41126  0.35907  0.24854  1.0000
  C   C805      1.0  0.08997  0.64683  0.46300  1.0000
  C   C806      1.0  0.40778  0.33803  0.44348  1.0000
  H   H641      1.0  0.16764  0.52545  0.45444  1.0000
  C   C807      1.0  0.38152  0.60866  0.46106  1.0000
  H   H642      1.0  0.26982  0.60834  0.39043  1.0000
  C   C808      1.0  0.24700  0.63793  0.34381  1.0000
  H   H643      1.0  0.45638  0.36863  0.42886  1.0000
  H   H644      1.0  0.18057  0.61991  0.29594  1.0000
  Fe  Fe60      1.0  0.13280  0.64432  0.37893  1.0000
  H   H645      1.0  0.27725  0.37651  0.26501  1.0000
  C   C809      1.0  0.17857  0.55707  0.45784  1.0000
  C   C810      1.0  0.47274  0.37733  0.42873  1.0000
  C   C811      1.0  0.48407  0.34275  0.23933  1.0000
  H   H646      1.0  0.26664  0.63043  0.42878  1.0000
  C   C812      1.0  0.24678  0.64278  0.37152  1.0000
  C   C813      1.0  0.20218  0.59059  0.47991  1.0000
  C   C814      1.0  0.33917  0.61509  0.35719  1.0000
  C   C815      1.0  0.27186  0.63382  0.41701  1.0000
  H   H647      1.0  0.13112  0.62674  0.45508  1.0000
  H   H648      1.0  0.16289  0.55542  0.46537  1.0000
  C   C816      1.0  0.45625  0.46113  0.44923  1.0000
  C   C817      1.0  0.42297  0.34245  0.33118  1.0000
  H   H649      1.0  0.22531  0.63308  0.46780  1.0000
  C   C818      1.0  0.46946  0.44749  0.45318  1.0000
  C   C819      1.0  0.22704  0.63857  0.36763  1.0000
  C   C820      1.0  0.36181  0.59637  0.45968  1.0000
  C   C821      1.0  0.31139  0.34894  0.40448  1.0000
  H   H650      1.0  0.28402  0.38144  0.31363  1.0000
  C   C822      1.0  0.18122  0.53996  0.45172  1.0000
  P   P27       1.0  0.29230  0.64815  0.36690  1.0000
  P   P28       1.0  0.35173  0.60595  0.44430  1.0000
  C   C823      1.0  0.32664  0.59551  0.35623  1.0000
  C   C824      1.0  0.29371  0.60815  0.36132  1.0000
  H   H651      1.0  0.22090  0.56845  0.47350  1.0000
  H   H652      1.0  0.15658  0.40581  0.47752  1.0000
  H   H653      1.0  0.09471  0.66496  0.41586  1.0000
  S   S120      1.0  0.01643  0.61750  0.30269  1.0000
  C   C825      1.0  0.30394  0.59212  0.35820  1.0000
  H   H654      1.0  0.39036  0.62434  0.45321  1.0000
  H   H655      1.0  0.09029  0.63199  0.45977  1.0000
  H   H656      1.0  0.45669  0.65978  0.47637  1.0000
  H   H657      1.0  0.16531  0.64694  0.48485  1.0000
  H   H658      1.0  0.22550  0.65379  0.41582  1.0000
  C   C826      1.0  0.48232  0.44767  0.42794  1.0000
  C   C827      1.0  0.15844  0.61417  0.45874  1.0000
  H   H659      1.0  0.36859  0.63940  0.41547  1.0000
  C   C828      1.0  0.21565  0.57630  0.48178  1.0000
  H   H660      1.0  0.25782  0.60073  0.41712  1.0000
  C   C829      1.0  0.38086  0.33598  0.42945  1.0000
  C   C830      1.0  0.31159  0.59533  0.43773  1.0000
  C   C831      1.0  0.13645  0.61504  0.46236  1.0000
  C   C832      1.0  0.28289  0.65511  0.40831  1.0000
  C   C833      1.0  0.35114  0.57575  0.46966  1.0000
  H   H661      1.0  0.39837  0.65648  0.37288  1.0000
  C   C834      1.0  0.48264  0.44069  0.44255  1.0000
  C   C835      1.0  0.15026  0.58441  0.48075  1.0000
  C   C836      1.0  0.26078  0.47250  0.43750  1.0000
  C   C837      1.0  0.25496  0.48107  0.44921  1.0000
  C   C838      1.0  0.23300  0.48105  0.45469  1.0000
  C   C839      1.0  0.21682  0.47233  0.44853  1.0000
  C   C840      1.0  0.22244  0.46317  0.43699  1.0000
  C   C841      1.0  0.24466  0.46387  0.43126  1.0000
  P   P29       1.0  0.20163  0.45327  0.42856  1.0000
  C   C842      1.0  0.17615  0.43748  0.44214  1.0000
  C   C843      1.0  0.19800  0.47727  0.41691  1.0000
  C   C844      1.0  0.21204  0.48660  0.40268  1.0000
  C   C845      1.0  0.20944  0.50526  0.39360  1.0000
  C   C846      1.0  0.19286  0.51480  0.39870  1.0000
  C   C847      1.0  0.17933  0.50612  0.41303  1.0000
  C   C848      1.0  0.18197  0.48750  0.42217  1.0000
  C   C849      1.0  0.15615  0.43465  0.43833  1.0000
  C   C850      1.0  0.13639  0.42192  0.44869  1.0000
  C   C851      1.0  0.13651  0.41167  0.46285  1.0000
  C   C852      1.0  0.15644  0.41400  0.46661  1.0000
  C   C853      1.0  0.17623  0.42671  0.45627  1.0000
  C   C854      1.0  0.20911  0.43455  0.41847  1.0000
  C   C855      1.0  0.22070  0.41975  0.42359  1.0000
  C   C856      1.0  0.22630  0.40515  0.41581  1.0000
  C   C857      1.0  0.21982  0.40480  0.40312  1.0000
  C   C858      1.0  0.20754  0.41886  0.39829  1.0000
  C   C859      1.0  0.20210  0.43361  0.40595  1.0000
  H   H662      1.0  0.27793  0.47322  0.43291  1.0000
  H   H663      1.0  0.26755  0.48844  0.45374  1.0000
  H   H664      1.0  0.22876  0.48854  0.46338  1.0000
  H   H665      1.0  0.20003  0.47307  0.45261  1.0000
  H   H666      1.0  0.24976  0.45839  0.42171  1.0000
  H   H667      1.0  0.22511  0.47954  0.39865  1.0000
  H   H668      1.0  0.22055  0.51263  0.38269  1.0000
  H   H669      1.0  0.19092  0.52931  0.39164  1.0000
  H   H670      1.0  0.16701  0.51409  0.41705  1.0000
  H   H671      1.0  0.17162  0.48122  0.43332  1.0000
  H   H672      1.0  0.15587  0.44217  0.42733  1.0000
  H   H673      1.0  0.44235  0.37861  0.38214  1.0000
  C   C860      1.0  0.26681  0.64420  0.36166  1.0000
  P   P30       1.0  0.49957  0.42278  0.44740  1.0000
  H   H674      1.0  0.19156  0.42792  0.45929  1.0000
  H   H675      1.0  0.22559  0.41959  0.43350  1.0000
  H   H676      1.0  0.23585  0.39425  0.41950  1.0000
  H   H677      1.0  0.22459  0.39390  0.39684  1.0000
  H   H678      1.0  0.20278  0.41868  0.38834  1.0000
  H   H679      1.0  0.19255  0.44432  0.40199  1.0000
  C   C861      1.0  0.12137  0.60065  0.47514  1.0000
  H   H680      1.0  0.35668  0.61746  0.35611  1.0000
  C   C862      1.0  0.38702  0.38688  0.35719  1.0000
  C   C863      1.0  0.37227  0.39964  0.35530  1.0000
  C   C864      1.0  0.36670  0.40421  0.34213  1.0000
  C   C865      1.0  0.37591  0.39609  0.33084  1.0000
  C   C866      1.0  0.39058  0.38306  0.33269  1.0000
  C   C867      1.0  0.39593  0.37842  0.34601  1.0000
  P   P31       1.0  0.40086  0.37096  0.31855  1.0000
  C   C868      1.0  0.42518  0.36247  0.32107  1.0000
  H   H681      1.0  0.23381  0.66532  0.47860  1.0000
  C   C869      1.0  0.21635  0.57741  0.44459  1.0000
  C   C870      1.0  0.16553  0.59875  0.46788  1.0000
  H   H682      1.0  0.44020  0.65056  0.43229  1.0000
  H   H683      1.0  0.21168  0.63741  0.37536  1.0000
  H   H684      1.0  0.46915  0.44224  0.46454  1.0000
  C   C871      1.0  0.44639  0.37532  0.31262  1.0000
  C   C872      1.0  0.46501  0.36805  0.31410  1.0000
  C   C873      1.0  0.22712  0.63634  0.35376  1.0000
  C   C874      1.0  0.36718  0.64750  0.42402  1.0000
  C   C875      1.0  0.10831  0.62768  0.30971  1.0000
  C   C876      1.0  0.40771  0.39047  0.30083  1.0000
  C   C877      1.0  0.41401  0.41309  0.29918  1.0000
  C   C878      1.0  0.41872  0.42808  0.28545  1.0000
  C   C879      1.0  0.41750  0.42057  0.27327  1.0000
  C   C880      1.0  0.41186  0.39811  0.27479  1.0000
  C   C881      1.0  0.40701  0.38310  0.28849  1.0000
  H   H685      1.0  0.39113  0.38298  0.36743  1.0000
  H   H686      1.0  0.36487  0.40566  0.36410  1.0000
  H   H687      1.0  0.35485  0.41363  0.34070  1.0000
  H   H688      1.0  0.37100  0.39943  0.32082  1.0000
  H   H689      1.0  0.40646  0.36776  0.34796  1.0000
  H   H690      1.0  0.43374  0.64553  0.45868  1.0000
  H   H691      1.0  0.27597  0.60476  0.36330  1.0000
  S   S121      1.0  0.10761  0.64983  0.36583  1.0000
  C   C882      1.0  0.26706  0.61709  0.41048  1.0000
  H   H692      1.0  0.35237  0.36098  0.32579  1.0000
  H   H693      1.0  0.44856  0.39075  0.30472  1.0000
  H   H694      1.0  0.48128  0.37796  0.30746  1.0000
  C   C883      1.0  0.25896  0.64937  0.48247  1.0000
  C   C884      1.0  0.22528  0.64919  0.42722  1.0000
  C   C885      1.0  0.20377  0.60043  0.29465  1.0000
  H   H695      1.0  0.41507  0.41915  0.30850  1.0000
  H   H696      1.0  0.42304  0.44549  0.28424  1.0000
  H   H697      1.0  0.42066  0.43205  0.26266  1.0000
  H   H698      1.0  0.41063  0.39229  0.26538  1.0000
  H   H699      1.0  0.40250  0.36578  0.28942  1.0000
  S   S122      1.0  0.36408  0.38348  0.26301  1.0000
  S   S123      1.0  0.16406  0.63405  0.37213  1.0000
  C   C886      1.0  0.19614  0.57596  0.45429  1.0000
  P   P32       1.0  0.19382  0.59705  0.46334  1.0000
  C   C887      1.0  0.21154  0.62295  0.45128  1.0000
  C   C888      1.0  0.36649  0.65777  0.38467  1.0000
  H   H700      1.0  0.27689  0.34544  0.30899  1.0000
  C   C889      1.0  0.31024  0.35204  0.25884  1.0000
  C   C890      1.0  0.16605  0.66523  0.34033  1.0000
  H   H701      1.0  0.36581  0.35664  0.38872  1.0000
  H   H702      1.0  0.34841  0.63734  0.46083  1.0000
  H   H703      1.0  0.26845  0.65462  0.47111  1.0000
  C   C891      1.0  0.21232  0.58498  0.30240  1.0000
  C   C892      1.0  0.49127  0.37346  0.42033  1.0000
  H   H704      1.0  0.31675  0.36098  0.26578  1.0000
  C   C893      1.0  0.01537  0.63952  0.24658  1.0000
  H   H705      1.0  0.03128  0.64302  0.24883  1.0000
  C   C894      1.0  0.09208  0.64797  0.47675  1.0000
  C   C895      1.0  0.32322  0.35564  0.24464  1.0000
  C   C896      1.0  0.35736  0.34701  0.32345  1.0000
  C   C897      1.0  0.35047  0.35126  0.39729  1.0000
  C   C898      1.0  0.35972  0.56777  0.48111  1.0000
  H   H706      1.0  0.47221  0.37875  0.46631  1.0000
  C   C899      1.0  0.28948  0.65967  0.39311  1.0000
  C   C900      1.0  0.19211  0.64616  0.32291  1.0000
  H   H707      1.0  0.24862  0.66868  0.45136  1.0000
  C   C901      1.0  0.26679  0.64177  0.34774  1.0000
  S   S124      1.0  0.13353  0.65922  0.42851  1.0000
  H   H708      1.0  0.40511  0.61021  0.47365  1.0000
  H   H709      1.0  0.37441  0.63821  0.47956  1.0000
  H   H710      1.0  0.29683  0.35249  0.40169  1.0000
  C   C902      1.0  0.34874  0.33788  0.41116  1.0000
  C   C903      1.0  0.36971  0.65161  0.48309  1.0000
  C   C904      1.0  0.12830  0.58541  0.48437  1.0000
  H   H711      1.0  0.13931  0.63733  0.34350  1.0000
  C   C905      1.0  0.37899  0.58032  0.48267  1.0000
  H   H712      1.0  0.12121  0.40173  0.47085  1.0000
  H   H713      1.0  0.09856  0.63935  0.31050  1.0000
  C   C906      1.0  0.31092  0.34368  0.36563  1.0000
  H   H714      1.0  0.21017  0.60668  0.28289  1.0000
  C   C907      1.0  0.28928  0.33690  0.26408  1.0000
  H   H715      1.0  0.20263  0.63909  0.31622  1.0000
  C   C908      1.0  0.47737  0.38873  0.47306  1.0000
  C   C909      1.0  0.44401  0.64590  0.48413  1.0000
  H   H716      1.0  0.22533  0.57921  0.29666  1.0000
  H   H717      1.0  0.49231  0.44256  0.41957  1.0000
  H   H718      1.0  0.33916  0.64580  0.36132  1.0000
  Fe  Fe61      1.0  0.18117  0.66252  0.37876  1.0000
  H   H719      1.0  0.07508  0.65921  0.35106  1.0000
  H   H720      1.0  0.48423  0.33909  0.25062  1.0000
  H   H721      1.0  0.28596  0.66824  0.41335  1.0000
  H   H722      1.0  0.09369  0.63376  0.48425  1.0000
  C   C910      1.0  0.08819  0.66512  0.45312  1.0000
  C   C911      1.0  0.36813  0.34511  0.43877  1.0000
  H   H723      1.0  0.13695  0.66535  0.47974  1.0000
  H   H724      1.0  0.36516  0.35736  0.45764  1.0000
  C   C912      1.0  0.37516  0.35053  0.45039  1.0000
  H   H725      1.0  0.35281  0.34808  0.43718  1.0000
  C   C913      1.0  0.09251  0.66751  0.48067  1.0000
  H   H726      1.0  0.13695  0.66809  0.45550  1.0000
  C   C914      1.0  0.30948  0.33570  0.41833  1.0000
  H   H727      1.0  0.33523  0.63804  0.48572  1.0000
  C   C915      1.0  0.31433  0.45611  0.66861  1.0000
  S   S125      1.0  0.25938  0.43987  0.72416  1.0000
  Fe  Fe62      1.0  0.18554  0.40727  0.63096  1.0000
  S   S126      1.0  0.21777  0.40461  0.63532  1.0000
  S   S127      1.0  0.15245  0.38504  0.64539  1.0000
  Fe  Fe63      1.0  0.20746  0.44417  0.60261  1.0000
  S   S128      1.0  0.24146  0.44410  0.60447  1.0000
  S   S129      1.0  0.20263  0.46417  0.58206  1.0000
  Fe  Fe64      1.0  0.22911  0.40761  0.61144  1.0000
  S   S130      1.0  0.24855  0.38534  0.60384  1.0000
  Fe  Fe65      1.0  0.22737  0.44137  0.62809  1.0000
  S   S131      1.0  0.24901  0.46076  0.63860  1.0000
  S   S132      1.0  0.19616  0.40767  0.60746  1.0000
  S   S133      1.0  0.19394  0.44416  0.62584  1.0000
  H   H728      1.0  0.31616  0.37031  0.67874  1.0000
  H   H729      1.0  0.25958  0.61954  0.51564  1.0000
  C   C916      1.0  0.37913  0.45572  0.68906  1.0000
  S   S134      1.0  0.20989  0.43488  0.70704  1.0000
  C   C917      1.0  0.20257  0.59602  0.50363  1.0000
  C   C918      1.0  0.21623  0.58204  0.50533  1.0000
  H   H730      1.0  0.27664  0.34702  0.65252  1.0000
  S   S135      1.0  0.34212  0.40347  0.61608  1.0000
  H   H731      1.0  0.37748  0.44853  0.62077  1.0000
  C   C919      1.0  0.04923  0.56767  0.61043  1.0000
  H   H732      1.0  0.45254  0.39500  0.58767  1.0000
  S   S136      1.0  0.29950  0.60747  0.52662  1.0000
  Fe  Fe66      1.0  0.34669  0.37258  0.62941  1.0000
  C   C920      1.0  0.13744  0.63000  0.70709  1.0000
  H   H733      1.0  0.48917  0.37178  0.53132  1.0000
  C   C921      1.0  0.43002  0.36551  0.60324  1.0000
  H   H734      1.0  0.41725  0.37337  0.60653  1.0000
  Fe  Fe67      1.0  0.27767  0.57304  0.53544  1.0000
  S   S137      1.0  0.25288  0.56496  0.55735  1.0000
  H   H735      1.0  0.06807  0.54879  0.64714  1.0000
  C   C922      1.0  0.43403  0.61001  0.50143  1.0000
  H   H736      1.0  0.21622  0.34897  0.63409  1.0000
  C   C923      1.0  0.14846  0.44107  0.67487  1.0000
  H   H737      1.0  0.26907  0.65205  0.53264  1.0000
  H   H738      1.0  0.34797  0.61115  0.61588  1.0000
  S   S138      1.0  0.35877  0.60144  0.52841  1.0000
  C   C924      1.0  0.11552  0.59694  0.70434  1.0000
  H   H739      1.0  0.04657  0.52156  0.63632  1.0000
  H   H740      1.0  0.18875  0.36753  0.62787  1.0000
  S   S139      1.0  0.34624  0.34205  0.62239  1.0000
  C   C925      1.0  0.16371  0.34856  0.65967  1.0000
  C   C926      1.0  0.34611  0.50015  0.59845  1.0000
  S   S140      1.0  0.06520  0.63097  0.69595  1.0000
  H   H741      1.0  0.15928  0.43113  0.65549  1.0000
  S   S141      1.0  0.09193  0.62358  0.65928  1.0000
  C   C927      1.0  0.39498  0.43103  0.63305  1.0000
  H   H742      1.0  0.39946  0.59675  0.51287  1.0000
  H   H743      1.0  0.04477  0.64968  0.63419  1.0000
  C   C928      1.0  0.13481  0.65587  0.49076  1.0000
  C   C929      1.0  0.09735  0.64908  0.64647  1.0000
  C   C930      1.0  0.14750  0.41607  0.69763  1.0000
  C   C931      1.0  0.24242  0.65768  0.54795  1.0000
  Fe  Fe68      1.0  0.23096  0.41937  0.71936  1.0000
  H   H744      1.0  0.23043  0.62453  0.59360  1.0000
  C   C932      1.0  0.20395  0.34110  0.62954  1.0000
  C   C933      1.0  0.49084  0.41302  0.49134  1.0000
  H   H745      1.0  0.36757  0.38349  0.69955  1.0000
  C   C934      1.0  0.33383  0.46331  0.65705  1.0000
  C   C935      1.0  0.05501  0.54436  0.65719  1.0000
  H   H746      1.0  0.34820  0.44818  0.61234  1.0000
  Fe  Fe69      1.0  0.06125  0.61631  0.67782  1.0000
  H   H747      1.0  0.13048  0.59788  0.72190  1.0000
  H   H748      1.0  0.04662  0.52608  0.69394  1.0000
  H   H749      1.0  0.38744  0.61558  0.54471  1.0000
  H   H750      1.0  0.40890  0.41221  0.64793  1.0000
  C   C936      1.0  0.17275  0.34250  0.61965  1.0000
  H   H751      1.0  0.38858  0.62852  0.50069  1.0000
  C   C937      1.0  0.05908  0.62397  0.62958  1.0000
  S   S142      1.0  0.37672  0.37221  0.63752  1.0000
  C   C938      1.0  0.13426  0.64245  0.69437  1.0000
  Fe  Fe70      1.0  0.37419  0.34002  0.63238  1.0000
  S   S143      1.0  0.20479  0.65922  0.50676  1.0000
  H   H752      1.0  0.14429  0.41225  0.70936  1.0000
  S   S144      1.0  0.27076  0.57111  0.51415  1.0000
  S   S145      1.0  0.32232  0.35553  0.65126  1.0000
  H   H753      1.0  0.22564  0.63145  0.52325  1.0000
  C   C939      1.0  0.33789  0.49086  0.62482  1.0000
  C   C940      1.0  0.14420  0.43557  0.69006  1.0000
  C   C941      1.0  0.11009  0.58333  0.62713  1.0000
  C   C942      1.0  0.12189  0.63179  0.68658  1.0000
  C   C943      1.0  0.46670  0.36760  0.58835  1.0000
  C   C944      1.0  0.34336  0.37558  0.68814  1.0000
  C   C945      1.0  0.35236  0.38600  0.69739  1.0000
  C   C946      1.0  0.34229  0.40030  0.70341  1.0000
  C   C947      1.0  0.32272  0.40390  0.70067  1.0000
  C   C948      1.0  0.31305  0.39280  0.69191  1.0000
  C   C949      1.0  0.32347  0.37872  0.68558  1.0000
  C   C950      1.0  0.02151  0.61804  0.64392  1.0000
  H   H754      1.0  0.02961  0.66446  0.65525  1.0000
  H   H755      1.0  0.29794  0.39553  0.68969  1.0000
  C   C951      1.0  0.35448  0.64513  0.57643  1.0000
  C   C952      1.0  0.12603  0.35729  0.68735  1.0000
  H   H756      1.0  0.29689  0.46074  0.68861  1.0000
  C   C953      1.0  0.04306  0.53165  0.68362  1.0000
  H   H757      1.0  0.04348  0.58233  0.60908  1.0000
  C   C954      1.0  0.21728  0.49202  0.57550  1.0000
  C   C955      1.0  0.22651  0.50150  0.56044  1.0000
  C   C956      1.0  0.23803  0.52373  0.55487  1.0000
  C   C957      1.0  0.23929  0.53690  0.56428  1.0000
  C   C958      1.0  0.22938  0.52768  0.57932  1.0000
  C   C959      1.0  0.21881  0.50513  0.58497  1.0000
  H   H758      1.0  0.22472  0.49164  0.55304  1.0000
  H   H759      1.0  0.24540  0.53076  0.54324  1.0000
  H   H760      1.0  0.23012  0.53787  0.58662  1.0000
  H   H761      1.0  0.21138  0.49796  0.59659  1.0000
  C   C960      1.0  0.27422  0.39029  0.60767  1.0000
  C   C961      1.0  0.28448  0.41103  0.60833  1.0000
  C   C962      1.0  0.30546  0.41511  0.61069  1.0000
  C   C963      1.0  0.31586  0.39824  0.61305  1.0000
  C   C964      1.0  0.30541  0.37738  0.61264  1.0000
  C   C965      1.0  0.28487  0.37359  0.60960  1.0000
  H   H762      1.0  0.27650  0.42406  0.60671  1.0000
  H   H763      1.0  0.31330  0.43122  0.61097  1.0000
  H   H764      1.0  0.31331  0.36426  0.61435  1.0000
  H   H765      1.0  0.27715  0.35766  0.60888  1.0000
  C   C966      1.0  0.23817  0.45326  0.65761  1.0000
  C   C967      1.0  0.21588  0.45132  0.66378  1.0000
  C   C968      1.0  0.20754  0.44625  0.67897  1.0000
  C   C969      1.0  0.22111  0.44204  0.68805  1.0000
  C   C970      1.0  0.24339  0.44372  0.68190  1.0000
  C   C971      1.0  0.25200  0.44978  0.66665  1.0000
  H   H766      1.0  0.20520  0.45418  0.65684  1.0000
  H   H767      1.0  0.19047  0.44527  0.68372  1.0000
  H   H768      1.0  0.25398  0.44054  0.68886  1.0000
  H   H769      1.0  0.26925  0.45137  0.66187  1.0000
  C   C972      1.0  0.15003  0.35669  0.65166  1.0000
  C   C973      1.0  0.20242  0.38968  0.68267  1.0000
  C   C974      1.0  0.47713  0.39169  0.49734  1.0000
  S   S146      1.0  0.24912  0.39556  0.71288  1.0000
  H   H770      1.0  0.33387  0.61059  0.55732  1.0000
  C   C975      1.0  0.05095  0.53353  0.62576  1.0000
  H   H771      1.0  0.40725  0.65833  0.69089  1.0000
  C   C976      1.0  0.38276  0.62976  0.53949  1.0000
  C   C977      1.0  0.49046  0.39318  0.60994  1.0000
  H   H772      1.0  0.18094  0.39116  0.71981  1.0000
  H   H773      1.0  0.23163  0.48328  0.71664  1.0000
  H   H774      1.0  0.13860  0.44652  0.69596  1.0000
  C   C978      1.0  0.01759  0.59566  0.64532  1.0000
  C   C979      1.0  0.37280  0.64641  0.58198  1.0000
  C   C980      1.0  0.37969  0.41915  0.65923  1.0000
  C   C981      1.0  0.24362  0.45694  0.55245  1.0000
  C   C982      1.0  0.24838  0.46713  0.53752  1.0000
  C   C983      1.0  0.26971  0.48001  0.52970  1.0000
  C   C984      1.0  0.28640  0.48243  0.53674  1.0000
  C   C985      1.0  0.28178  0.47213  0.55175  1.0000
  C   C986      1.0  0.26014  0.45966  0.55958  1.0000
  P   P33       1.0  0.30314  0.47485  0.56106  1.0000
  C   C987      1.0  0.31114  0.44960  0.56570  1.0000
  C   C988      1.0  0.32702  0.49657  0.54943  1.0000
  C   C989      1.0  0.34180  0.49248  0.53815  1.0000
  C   C990      1.0  0.35976  0.50938  0.52864  1.0000
  C   C991      1.0  0.36309  0.53048  0.53032  1.0000
  C   C992      1.0  0.34854  0.53468  0.54156  1.0000
  C   C993      1.0  0.33053  0.51782  0.55107  1.0000
  C   C994      1.0  0.33205  0.45013  0.56800  1.0000
  C   C995      1.0  0.33773  0.43064  0.57278  1.0000
  C   C996      1.0  0.32272  0.41049  0.57516  1.0000
  C   C997      1.0  0.30201  0.40980  0.57276  1.0000
  C   C998      1.0  0.29615  0.42922  0.56815  1.0000
  C   C999      1.0  0.29272  0.48188  0.57758  1.0000
  C   C1000     1.0  0.27865  0.49578  0.57780  1.0000
  C   C1001     1.0  0.27107  0.50169  0.59048  1.0000
  C   C1002     1.0  0.27733  0.49378  0.60300  1.0000
  C   C1003     1.0  0.29104  0.47972  0.60292  1.0000
  C   C1004     1.0  0.29872  0.47375  0.59028  1.0000
  H   H775      1.0  0.22693  0.44744  0.55865  1.0000
  H   H776      1.0  0.23541  0.46541  0.53209  1.0000
  H   H777      1.0  0.27333  0.48835  0.51818  1.0000
  H   H778      1.0  0.30268  0.49264  0.53039  1.0000
  H   H779      1.0  0.25594  0.45207  0.57124  1.0000
  H   H780      1.0  0.33914  0.47630  0.53653  1.0000
  P   P34       1.0  0.30990  0.62945  0.57793  1.0000
  H   H781      1.0  0.37678  0.54368  0.52284  1.0000
  H   H782      1.0  0.35096  0.55116  0.54267  1.0000
  H   H783      1.0  0.31923  0.52160  0.55947  1.0000
  H   H784      1.0  0.34369  0.46556  0.56654  1.0000
  H   H785      1.0  0.35350  0.43101  0.57512  1.0000
  H   H786      1.0  0.32680  0.39538  0.57939  1.0000
  H   H787      1.0  0.29002  0.39415  0.57519  1.0000
  H   H788      1.0  0.27969  0.42803  0.56698  1.0000
  H   H789      1.0  0.27337  0.50193  0.56824  1.0000
  H   H790      1.0  0.25992  0.51201  0.59074  1.0000
  H   H791      1.0  0.27092  0.49789  0.61294  1.0000
  H   H792      1.0  0.29513  0.47293  0.61281  1.0000
  H   H793      1.0  0.30889  0.46244  0.59065  1.0000
  C   C1005     1.0  0.37130  0.45874  0.71389  1.0000
  C   C1006     1.0  0.31420  0.51201  0.71108  1.0000
  S   S147      1.0  0.32508  0.59135  0.49978  1.0000
  C   C1007     1.0  0.15605  0.42709  0.66725  1.0000
  Fe  Fe71      1.0  0.27638  0.41413  0.71975  1.0000
  C   C1008     1.0  0.15086  0.64525  0.49360  1.0000
  C   C1009     1.0  0.36274  0.64618  0.52386  1.0000
  C   C1010     1.0  0.33603  0.52157  0.71046  1.0000
  C   C1011     1.0  0.31901  0.47602  0.72057  1.0000
  C   C1012     1.0  0.23472  0.63617  0.51186  1.0000
  H   H794      1.0  0.26496  0.34023  0.58041  1.0000
  Fe  Fe72      1.0  0.03187  0.63601  0.69640  1.0000
  C   C1013     1.0  0.22957  0.49990  0.73353  1.0000
  H   H795      1.0  0.12833  0.62142  0.53001  1.0000
  H   H796      1.0  0.48106  0.40340  0.60517  1.0000
  H   H797      1.0  0.00841  0.62449  0.64876  1.0000
  C   C1014     1.0  0.12830  0.60732  0.71194  1.0000
  H   H798      1.0  0.28891  0.48191  0.71640  1.0000
  H   H799      1.0  0.30379  0.52216  0.70771  1.0000
  C   C1015     1.0  0.03394  0.54692  0.65696  1.0000
  H   H800      1.0  0.49622  0.42223  0.49848  1.0000
  H   H801      1.0  0.17667  0.35983  0.66180  1.0000
  H   H802      1.0  0.38535  0.57424  0.49170  1.0000
  H   H803      1.0  0.43874  0.59608  0.50704  1.0000
  C   C1016     1.0  0.36086  0.43903  0.64399  1.0000
  C   C1017     1.0  0.34174  0.47021  0.62530  1.0000
  C   C1018     1.0  0.37043  0.63434  0.59625  1.0000
  C   C1019     1.0  0.38505  0.66861  0.53516  1.0000
  C   C1020     1.0  0.23953  0.65558  0.48671  1.0000
  C   C1021     1.0  0.28328  0.56425  0.58326  1.0000
  C   C1022     1.0  0.29773  0.56011  0.57195  1.0000
  C   C1023     1.0  0.31607  0.57678  0.56279  1.0000
  C   C1024     1.0  0.31962  0.59781  0.56459  1.0000
  C   C1025     1.0  0.30471  0.60234  0.57555  1.0000
  C   C1026     1.0  0.28686  0.58521  0.58519  1.0000
  H   H804      1.0  0.00967  0.53170  0.69364  1.0000
  C   C1027     1.0  0.28567  0.63235  0.58985  1.0000
  C   C1028     1.0  0.26524  0.62704  0.58677  1.0000
  C   C1029     1.0  0.24619  0.62898  0.59593  1.0000
  C   C1030     1.0  0.24748  0.63654  0.60808  1.0000
  C   C1031     1.0  0.26785  0.64230  0.61103  1.0000
  C   C1032     1.0  0.28695  0.64034  0.60190  1.0000
  H   H805      1.0  0.26901  0.55131  0.59032  1.0000
  H   H806      1.0  0.29453  0.54409  0.57014  1.0000
  H   H807      1.0  0.32737  0.57348  0.55415  1.0000
  H   H808      1.0  0.23349  0.56147  0.49571  1.0000
  H   H809      1.0  0.27556  0.58785  0.59414  1.0000
  H   H810      1.0  0.31549  0.60874  0.60612  1.0000
  S   S148      1.0  0.01323  0.60368  0.71279  1.0000
  S   S149      1.0  0.29101  0.62975  0.48749  1.0000
  C   C1033     1.0  0.21498  0.35669  0.69998  1.0000
  H   H811      1.0  0.45999  0.36296  0.49291  1.0000
  C   C1034     1.0  0.10822  0.57495  0.61538  1.0000
  H   H812      1.0  0.19839  0.40293  0.67592  1.0000
  S   S150      1.0  0.02931  0.62449  0.67670  1.0000
  H   H813      1.0  0.12242  0.34805  0.64311  1.0000
  C   C1035     1.0  0.14049  0.35358  0.69598  1.0000
  H   H814      1.0  0.07235  0.63193  0.72554  1.0000
  C   C1036     1.0  0.42171  0.64620  0.48716  1.0000
  C   C1037     1.0  0.05168  0.64514  0.50936  1.0000
  C   C1038     1.0  0.42659  0.34307  0.60949  1.0000
  C   C1039     1.0  0.40573  0.62844  0.49768  1.0000
  C   C1040     1.0  0.45219  0.33872  0.66728  1.0000
  H   H815      1.0  0.16063  0.65277  0.58857  1.0000
  H   H816      1.0  0.13077  0.64951  0.63631  1.0000
  H   H817      1.0  0.24771  0.37150  0.68538  1.0000
  Fe  Fe73      1.0  0.35212  0.35273  0.65901  1.0000
  H   H818      1.0  0.46735  0.62775  0.48881  1.0000
  C   C1041     1.0  0.44999  0.37771  0.59259  1.0000
  C   C1042     1.0  0.34054  0.48560  0.72077  1.0000
  C   C1043     1.0  0.13010  0.63104  0.51905  1.0000
  C   C1044     1.0  0.11177  0.33968  0.68523  1.0000
  C   C1045     1.0  0.11417  0.64193  0.51626  1.0000
  H   H819      1.0  0.23268  0.63796  0.61519  1.0000
  S   S151      1.0  0.35825  0.35972  0.67962  1.0000
  C   C1046     1.0  0.31183  0.46667  0.67958  1.0000
  C   C1047     1.0  0.27066  0.53786  0.48606  1.0000
  C   C1048     1.0  0.04467  0.55316  0.62437  1.0000
  H   H820      1.0  0.00160  0.58483  0.65163  1.0000
  C   C1049     1.0  0.39079  0.65002  0.54183  1.0000
  H   H821      1.0  0.07580  0.53478  0.67064  1.0000
  H   H822      1.0  0.40218  0.42257  0.70960  1.0000
  C   C1050     1.0  0.39134  0.44086  0.69258  1.0000
  H   H823      1.0  0.30261  0.64524  0.60423  1.0000
  C   C1051     1.0  0.01772  0.54242  0.67022  1.0000
  C   C1052     1.0  0.13310  0.34193  0.64919  1.0000
  C   C1053     1.0  0.14949  0.37229  0.71913  1.0000
  C   C1054     1.0  0.46323  0.34528  0.59477  1.0000
  H   H824      1.0  0.38473  0.63512  0.60045  1.0000
  C   C1055     1.0  0.30944  0.64486  0.54896  1.0000
  C   C1056     1.0  0.47947  0.37379  0.62106  1.0000
  S   S152      1.0  0.01159  0.64222  0.61368  1.0000
  H   H825      1.0  0.14062  0.65418  0.55077  1.0000
  C   C1057     1.0  0.25453  0.64468  0.54187  1.0000
  C   C1058     1.0  0.24780  0.62189  0.54764  1.0000
  C   C1059     1.0  0.22902  0.61191  0.55945  1.0000
  C   C1060     1.0  0.21687  0.62473  0.56557  1.0000
  C   C1061     1.0  0.22354  0.64754  0.55986  1.0000
  H   H826      1.0  0.23650  0.40104  0.67017  1.0000
  H   H827      1.0  0.26402  0.62120  0.57735  1.0000
  H   H828      1.0  0.25705  0.61183  0.54290  1.0000
  H   H829      1.0  0.22395  0.59420  0.56380  1.0000
  H   H830      1.0  0.20227  0.61697  0.57471  1.0000
  H   H831      1.0  0.16828  0.64976  0.53073  1.0000
  H   H832      1.0  0.07611  0.54005  0.59004  1.0000
  H   H833      1.0  0.22203  0.57907  0.51501  1.0000
  S   S153      1.0  0.04500  0.58235  0.69269  1.0000
  C   C1062     1.0  0.37766  0.44052  0.63161  1.0000
  C   C1063     1.0  0.37796  0.65932  0.70609  1.0000
  P   P35       1.0  0.02847  0.55855  0.64002  1.0000
  C   C1064     1.0  0.18860  0.35195  0.62574  1.0000
  C   C1065     1.0  0.08094  0.66016  0.64610  1.0000
  C   C1066     1.0  0.23062  0.37207  0.68786  1.0000
  C   C1067     1.0  0.22556  0.48167  0.72818  1.0000
  C   C1068     1.0  0.15948  0.40770  0.67479  1.0000
  H   H834      1.0  0.00173  0.54541  0.67036  1.0000
  H   H835      1.0  0.10708  0.57240  0.63792  1.0000
  H   H836      1.0  0.46165  0.36959  0.62475  1.0000
  H   H837      1.0  0.11594  0.35355  0.72226  1.0000
  C   C1069     1.0  0.05515  0.60155  0.63093  1.0000
  C   C1070     1.0  0.25398  0.62959  0.50759  1.0000
  H   H838      1.0  0.14663  0.63762  0.71349  1.0000
  C   C1071     1.0  0.32881  0.48425  0.67918  1.0000
  C   C1072     1.0  0.34842  0.49123  0.66787  1.0000
  C   C1073     1.0  0.35098  0.48071  0.65688  1.0000
  H   H839      1.0  0.40151  0.65126  0.54889  1.0000
  H   H840      1.0  0.16123  0.62500  0.50997  1.0000
  C   C1074     1.0  0.31274  0.42889  0.64564  1.0000
  C   C1075     1.0  0.31030  0.40736  0.65369  1.0000
  C   C1076     1.0  0.29056  0.39124  0.65660  1.0000
  C   C1077     1.0  0.27356  0.39619  0.65086  1.0000
  C   C1078     1.0  0.27581  0.41759  0.64293  1.0000
  C   C1079     1.0  0.29512  0.43398  0.64056  1.0000
  C   C1080     1.0  0.15511  0.40191  0.69004  1.0000
  H   H841      1.0  0.36168  0.50464  0.66770  1.0000
  H   H842      1.0  0.36629  0.48612  0.64819  1.0000
  C   C1081     1.0  0.36920  0.46470  0.69964  1.0000
  H   H843      1.0  0.34951  0.42690  0.66763  1.0000
  H   H844      1.0  0.32353  0.40288  0.65773  1.0000
  H   H845      1.0  0.28856  0.37484  0.66319  1.0000
  H   H846      1.0  0.25860  0.38351  0.65260  1.0000
  H   H847      1.0  0.26259  0.42150  0.63856  1.0000
  H   H848      1.0  0.29617  0.45055  0.63478  1.0000
  C   C1082     1.0  0.05590  0.62328  0.58702  1.0000
  C   C1083     1.0  0.05271  0.62039  0.57386  1.0000
  C   C1084     1.0  0.07055  0.61998  0.56290  1.0000
  C   C1085     1.0  0.09164  0.62265  0.56506  1.0000
  C   C1086     1.0  0.09500  0.62574  0.57825  1.0000
  C   C1087     1.0  0.07693  0.62587  0.58922  1.0000
  P   P36       1.0  0.12207  0.63016  0.58136  1.0000
  C   C1088     1.0  0.11826  0.61197  0.59920  1.0000
  C   C1089     1.0  0.14203  0.62588  0.56688  1.0000
  C   C1090     1.0  0.15256  0.60903  0.56935  1.0000
  C   C1091     1.0  0.16825  0.60660  0.55784  1.0000
  C   C1092     1.0  0.17388  0.62124  0.54392  1.0000
  C   C1093     1.0  0.16384  0.63829  0.54149  1.0000
  C   C1094     1.0  0.14809  0.64069  0.55289  1.0000
  C   C1095     1.0  0.11927  0.62023  0.61120  1.0000
  C   C1096     1.0  0.11537  0.60593  0.62507  1.0000
  C   C1097     1.0  0.11201  0.58919  0.60150  1.0000
  H   H849      1.0  0.10141  0.34272  0.67806  1.0000
  H   H850      1.0  0.06842  0.59536  0.62610  1.0000
  H   H851      1.0  0.38018  0.41031  0.66988  1.0000
  C   C1098     1.0  0.05948  0.53657  0.67048  1.0000
  P   P37       1.0  0.33754  0.45025  0.64261  1.0000
  C   C1099     1.0  0.19307  0.35788  0.70350  1.0000
  H   H852      1.0  0.04216  0.62402  0.59544  1.0000
  H   H853      1.0  0.03644  0.61878  0.57212  1.0000
  H   H854      1.0  0.06807  0.61801  0.55263  1.0000
  H   H855      1.0  0.10512  0.62247  0.55636  1.0000
  H   H856      1.0  0.07919  0.62858  0.59936  1.0000
  H   H857      1.0  0.14906  0.59791  0.58009  1.0000
  H   H858      1.0  0.17628  0.59352  0.55971  1.0000
  H   H859      1.0  0.18617  0.61955  0.53501  1.0000
  H   H860      1.0  0.14604  0.45620  0.66897  1.0000
  C   C1100     1.0  0.22767  0.64940  0.50140  1.0000
  H   H861      1.0  0.12248  0.63763  0.61006  1.0000
  H   H862      1.0  0.11597  0.61233  0.63433  1.0000
  H   H863      1.0  0.10995  0.58245  0.59258  1.0000
  C   C1101     1.0  0.15239  0.66482  0.58457  1.0000
  C   C1102     1.0  0.17880  0.66199  0.66790  1.0000
  C   C1103     1.0  0.30577  0.48927  0.71603  1.0000
  H   H864      1.0  0.31136  0.65656  0.52614  1.0000
  C   C1104     1.0  0.11634  0.65443  0.50204  1.0000
  H   H865      1.0  0.06409  0.57437  0.58739  1.0000
  H   H866      1.0  0.40732  0.43145  0.62340  1.0000
  H   H867      1.0  0.10755  0.57952  0.70851  1.0000
  H   H868      1.0  0.37674  0.45974  0.67825  1.0000
  C   C1105     1.0  0.33133  0.61966  0.59941  1.0000
  H   H869      1.0  0.01408  0.63321  0.54249  1.0000
  C   C1106     1.0  0.31494  0.66092  0.53561  1.0000
  H   H870      1.0  0.06722  0.51373  0.61454  1.0000
  H   H871      1.0  0.39953  0.34329  0.67790  1.0000
  C   C1107     1.0  0.11242  0.60916  0.69163  1.0000
  C   C1108     1.0  0.41189  0.61035  0.50469  1.0000
  H   H872      1.0  0.35188  0.64473  0.51692  1.0000
  C   C1109     1.0  0.34971  0.62089  0.60494  1.0000
  H   H873      1.0  0.38890  0.65650  0.57505  1.0000
  H   H874      1.0  0.30111  0.62822  0.54979  1.0000
  S   S154      1.0  0.30452  0.53266  0.49834  1.0000
  C   C1110     1.0  0.36226  0.42850  0.65786  1.0000
  H   H875      1.0  0.06529  0.65376  0.65433  1.0000
  H   H876      1.0  0.35321  0.47470  0.58889  1.0000
  H   H877      1.0  0.16692  0.64651  0.66975  1.0000
  H   H878      1.0  0.21994  0.34414  0.70686  1.0000
  C   C1111     1.0  0.02973  0.63977  0.53408  1.0000
  C   C1112     1.0  0.03411  0.58738  0.63843  1.0000
  Fe  Fe74      1.0  0.29538  0.60396  0.50509  1.0000
  H   H879      1.0  0.10229  0.60116  0.68581  1.0000
  C   C1113     1.0  0.06743  0.54376  0.59960  1.0000
  H   H880      1.0  0.35700  0.65396  0.56516  1.0000
  C   C1114     1.0  0.06248  0.52895  0.61342  1.0000
  S   S155      1.0  0.30555  0.55721  0.53239  1.0000
  H   H881      1.0  0.16071  0.35100  0.61697  1.0000
  S   S156      1.0  0.31233  0.42412  0.70706  1.0000
  C   C1115     1.0  0.36841  0.62760  0.53072  1.0000
  S   S157      1.0  0.49185  0.38308  0.57518  1.0000
  H   H882      1.0  0.11926  0.64092  0.67668  1.0000
  H   H883      1.0  0.01729  0.62715  0.51805  1.0000
  H   H884      1.0  0.35930  0.47564  0.69677  1.0000
  H   H885      1.0  0.34975  0.40863  0.71022  1.0000
  C   C1116     1.0  0.34021  0.50578  0.61145  1.0000
  C   C1117     1.0  0.39594  0.42025  0.64685  1.0000
  H   H886      1.0  0.33703  0.52156  0.61119  1.0000
  C   C1118     1.0  0.04807  0.65179  0.53696  1.0000
  Fe  Fe75      1.0  0.04702  0.59786  0.71098  1.0000
  H   H887      1.0  0.07522  0.63505  0.62371  1.0000
  H   H888      1.0  0.49432  0.40160  0.54315  1.0000
  Fe  Fe76      1.0  0.32705  0.59175  0.52225  1.0000
  C   C1119     1.0  0.12765  0.36101  0.72733  1.0000
  C   C1120     1.0  0.26626  0.63654  0.49292  1.0000
  C   C1121     1.0  0.13291  0.65842  0.58056  1.0000
  Fe  Fe77      1.0  0.30078  0.55840  0.51016  1.0000
  H   H889      1.0  0.00585  0.65206  0.58437  1.0000
  H   H890      1.0  0.21406  0.65729  0.56477  1.0000
  C   C1122     1.0  0.34670  0.46446  0.61222  1.0000
  C   C1123     1.0  0.34926  0.47944  0.59886  1.0000
  C   C1124     1.0  0.39336  0.43468  0.70676  1.0000
  H   H891      1.0  0.47186  0.38436  0.50906  1.0000
  H   H892      1.0  0.16527  0.39696  0.66874  1.0000
  H   H893      1.0  0.32690  0.49218  0.68776  1.0000
  C   C1125     1.0  0.11785  0.65777  0.63592  1.0000
  C   C1126     1.0  0.18647  0.37426  0.69479  1.0000
  H   H894      1.0  0.37089  0.50616  0.51983  1.0000
  P   P38       1.0  0.15811  0.37596  0.69971  1.0000
  C   C1127     1.0  0.14853  0.63286  0.50775  1.0000
  C   C1128     1.0  0.16411  0.38215  0.72598  1.0000
  H   H895      1.0  0.05258  0.64250  0.49875  1.0000
  C   C1129     1.0  0.33348  0.63215  0.58521  1.0000
  H   H896      1.0  0.10364  0.55739  0.61705  1.0000
  H   H897      1.0  0.12565  0.37360  0.68207  1.0000
  H   H898      1.0  0.30116  0.44216  0.66939  1.0000
  C   C1130     1.0  0.04212  0.63223  0.63582  1.0000
  H   H899      1.0  0.33255  0.49536  0.63474  1.0000
  C   C1131     1.0  0.34923  0.50842  0.71517  1.0000
  H   H900      1.0  0.10036  0.64051  0.52527  1.0000
  H   H901      1.0  0.39860  0.43355  0.68446  1.0000
  C   C1132     1.0  0.06072  0.56307  0.59811  1.0000
  H   H902      1.0  0.26885  0.64828  0.62041  1.0000
  H   H903      1.0  0.34764  0.51159  0.58811  1.0000
  H   H904      1.0  0.18151  0.34628  0.71323  1.0000
  C   C1133     1.0  0.03156  0.63639  0.52030  1.0000
  C   C1134     1.0  0.31517  0.65028  0.56098  1.0000
  C   C1135     1.0  0.22434  0.38863  0.67929  1.0000
  C   C1136     1.0  0.47041  0.37961  0.48821  1.0000
  C   C1137     1.0  0.49142  0.35986  0.62679  1.0000
  C   C1138     1.0  0.18914  0.55297  0.73328  1.0000
  H   H905      1.0  0.20368  0.65471  0.65251  1.0000
  H   H906      1.0  0.19774  0.60389  0.51199  1.0000
  H   H907      1.0  0.34261  0.53920  0.70657  1.0000
  C   C1139     1.0  0.07020  0.65728  0.51219  1.0000
  H   H908      1.0  0.31220  0.45839  0.72429  1.0000
  C   C1140     1.0  0.37577  0.48505  0.73536  1.0000
  H   H909      1.0  0.36605  0.51614  0.71473  1.0000
  Fe  Fe78      1.0  0.01281  0.59152  0.69282  1.0000
  H   H910      1.0  0.36762  0.64483  0.70485  1.0000
  C   C1141     1.0  0.19964  0.66663  0.65805  1.0000
  C   C1142     1.0  0.38316  0.44337  0.71742  1.0000
  H   H911      1.0  0.25906  0.66585  0.56933  1.0000
  H   H912      1.0  0.23893  0.51571  0.72602  1.0000
  C   C1143     1.0  0.02221  0.53466  0.68347  1.0000
  H   H913      1.0  0.38407  0.43774  0.72852  1.0000
  C   C1144     1.0  0.22275  0.57218  0.49442  1.0000
  H   H914      1.0  0.04674  0.65476  0.54756  1.0000
  H   H915      1.0  0.11659  0.57417  0.49424  1.0000
  H   H916      1.0  0.35175  0.66355  0.72203  1.0000
  H   H917      1.0  0.15530  0.57229  0.48792  1.0000
  C   C1145     1.0  0.08182  0.62495  0.73229  1.0000
  C   C1146     1.0  0.37144  0.66677  0.52586  1.0000
  H   H918      1.0  0.26253  0.54029  0.49622  1.0000
  C   C1147     1.0  0.45011  0.62782  0.49117  1.0000
  C   C1148     1.0  0.06820  0.66033  0.52611  1.0000
  H   H919      1.0  0.09917  0.66815  0.69581  1.0000
  P   P39       1.0  0.35702  0.46881  0.72799  1.0000
  H   H920      1.0  0.21087  0.44695  0.73364  1.0000
  H   H921      1.0  0.18591  0.61206  0.48953  1.0000
  H   H922      1.0  0.20259  0.52573  0.73240  1.0000
  C   C1149     1.0  0.19576  0.60050  0.49092  1.0000
  S   S158      1.0  0.06144  0.58463  0.72947  1.0000
  H   H923      1.0  0.18154  0.55144  0.72458  1.0000
  S   S159      1.0  0.02636  0.66827  0.69842  1.0000
  H   H924      1.0  0.33519  0.42429  0.72858  1.0000
  C   C1150     1.0  0.41449  0.34169  0.67102  1.0000
  H   H925      1.0  0.43233  0.34183  0.68719  1.0000
  C   C1151     1.0  0.43299  0.34090  0.67620  1.0000
  H   H926      1.0  0.40073  0.34047  0.65294  1.0000
  C   C1152     1.0  0.41513  0.34018  0.65695  1.0000
  H   H927      1.0  0.40484  0.47541  0.72613  1.0000
  H   H928      1.0  0.35118  0.55193  0.48890  1.0000
  C   C1153     1.0  0.07997  0.60246  0.73556  1.0000
  C   C1154     1.0  0.34745  0.65149  0.48651  1.0000
  C   C1155     1.0  0.40028  0.66693  0.69823  1.0000
  H   H929      1.0  0.47591  0.33733  0.59170  1.0000
  H   H930      1.0  0.46609  0.33781  0.67164  1.0000
  H   H931      1.0  0.43434  0.33659  0.63725  1.0000
  C   C1156     1.0  0.39811  0.48498  0.73275  1.0000
  H   H932      1.0  0.25125  0.33607  0.67761  1.0000
  C   C1157     1.0  0.45303  0.33746  0.65302  1.0000
  C   C1158     1.0  0.25995  0.33715  0.65489  1.0000
  C   C1159     1.0  0.43426  0.33804  0.64804  1.0000
  H   H933      1.0  0.26569  0.50571  0.74599  1.0000
  Fe  Fe79      1.0  0.22569  0.39755  0.93260  1.0000
  S   S160      1.0  0.23224  0.37873  0.91633  1.0000
  S   S161      1.0  0.23437  0.43422  0.92251  1.0000
  H   H934      1.0  0.30926  0.39297  0.74787  1.0000
  H   H935      1.0  0.29255  0.58222  0.74721  1.0000
  C   C1160     1.0  0.09842  0.62871  0.92065  1.0000
  H   H936      1.0  0.44490  0.46223  0.95399  1.0000
  S   S162      1.0  0.19112  0.37598  0.94311  1.0000
  S   S163      1.0  0.24057  0.37907  0.94845  1.0000
  Fe  Fe80      1.0  0.17085  0.61091  0.78376  1.0000
  S   S164      1.0  0.17668  0.57747  0.78936  1.0000
  S   S165      1.0  0.12318  0.64736  0.75497  1.0000
  S   S166      1.0  0.13766  0.61683  0.79108  1.0000
  Fe  Fe81      1.0  0.30154  0.53798  0.81134  1.0000
  S   S167      1.0  0.33200  0.53244  0.79822  1.0000
  S   S168      1.0  0.28859  0.52176  0.83554  1.0000
  Fe  Fe82      1.0  0.29568  0.56903  0.78535  1.0000
  S   S169      1.0  0.32566  0.56604  0.77015  1.0000
  S   S170      1.0  0.28028  0.59428  0.77519  1.0000
  Fe  Fe83      1.0  0.31312  0.53012  0.78163  1.0000
  S   S171      1.0  0.31752  0.50716  0.76769  1.0000
  Fe  Fe84      1.0  0.34153  0.56878  0.78800  1.0000
  S   S172      1.0  0.37669  0.58855  0.78279  1.0000
  S   S173      1.0  0.28156  0.53276  0.79553  1.0000
  S   S174      1.0  0.31259  0.57458  0.80248  1.0000
  C   C1161     1.0  0.13547  0.36889  0.74899  1.0000
  C   C1162     1.0  0.32818  0.46375  0.87703  1.0000
  S   S175      1.0  0.20655  0.61767  0.90159  1.0000
  H   H937      1.0  0.34533  0.45693  0.85780  1.0000
  H   H938      1.0  0.30658  0.46888  0.89546  1.0000
  C   C1163     1.0  0.31923  0.34126  0.95277  1.0000
  H   H939      1.0  0.34312  0.46976  0.87986  1.0000
  H   H940      1.0  0.26437  0.64505  0.98182  1.0000
  H   H941      1.0  0.21999  0.40971  0.87385  1.0000
  Fe  Fe85      1.0  0.35802  0.57865  0.91412  1.0000
  S   S176      1.0  0.34781  0.59460  0.89500  1.0000
  S   S177      1.0  0.38888  0.59440  0.91942  1.0000
  Fe  Fe86      1.0  0.31968  0.53685  0.92187  1.0000
  S   S178      1.0  0.30607  0.55080  0.90360  1.0000
  S   S179      1.0  0.30644  0.50225  0.93705  1.0000
  Fe  Fe87      1.0  0.34168  0.56198  0.89050  1.0000
  S   S180      1.0  0.35591  0.55890  0.86818  1.0000
  Fe  Fe88      1.0  0.31361  0.58189  0.91019  1.0000
  S   S181      1.0  0.29837  0.60950  0.91166  1.0000
  S   S182      1.0  0.35501  0.54683  0.90839  1.0000
  S   S183      1.0  0.32409  0.56709  0.92966  1.0000
  C   C1164     1.0  0.29302  0.64796  0.86426  1.0000
  C   C1165     1.0  0.28884  0.57834  0.86807  1.0000
  Fe  Fe89      1.0  0.19403  0.65901  0.77037  1.0000
  S   S184      1.0  0.23969  0.43030  0.76705  1.0000
  H   H942      1.0  0.27704  0.54618  0.88342  1.0000
  H   H943      1.0  0.29081  0.66721  0.74681  1.0000
  H   H944      1.0  0.23719  0.49695  0.80430  1.0000
  C   C1166     1.0  0.09541  0.63838  0.73814  1.0000
  C   C1167     1.0  0.20620  0.45868  0.75266  1.0000
  C   C1168     1.0  0.07413  0.55462  0.78008  1.0000
  C   C1169     1.0  0.39611  0.62158  0.92068  1.0000
  C   C1170     1.0  0.38537  0.63755  0.91607  1.0000
  C   C1171     1.0  0.07880  0.56633  0.78997  1.0000
  C   C1172     1.0  0.29346  0.62134  0.83134  1.0000
  C   C1173     1.0  0.30768  0.46332  0.88576  1.0000
  C   C1174     1.0  0.41377  0.62721  0.92649  1.0000
  H   H945      1.0  0.37159  0.63339  0.91164  1.0000
  C   C1175     1.0  0.33055  0.42579  0.73952  1.0000
  H   H946      1.0  0.33146  0.48100  0.95855  1.0000
  H   H947      1.0  0.42217  0.61508  0.93007  1.0000
  C   C1176     1.0  0.23209  0.61451  0.90403  1.0000
  C   C1177     1.0  0.24872  0.63309  0.90255  1.0000
  C   C1178     1.0  0.26898  0.63112  0.90477  1.0000
  C   C1179     1.0  0.27308  0.61059  0.90814  1.0000
  C   C1180     1.0  0.25674  0.59183  0.90934  1.0000
  C   C1181     1.0  0.23605  0.59379  0.90748  1.0000
  H   H948      1.0  0.24598  0.64911  0.89993  1.0000
  H   H949      1.0  0.28150  0.64564  0.90395  1.0000
  H   H950      1.0  0.25985  0.57589  0.91209  1.0000
  H   H951      1.0  0.22317  0.57934  0.90876  1.0000
  C   C1182     1.0  0.29481  0.48699  0.76742  1.0000
  C   C1183     1.0  0.27468  0.48023  0.77827  1.0000
  C   C1184     1.0  0.25757  0.46301  0.77801  1.0000
  C   C1185     1.0  0.26057  0.45266  0.76686  1.0000
  C   C1186     1.0  0.28047  0.45988  0.75585  1.0000
  C   C1187     1.0  0.29745  0.47700  0.75615  1.0000
  H   H952      1.0  0.27253  0.48785  0.78703  1.0000
  H   H953      1.0  0.24213  0.45750  0.78655  1.0000
  C   C1188     1.0  0.30725  0.53164  0.84477  1.0000
  C   C1189     1.0  0.30112  0.52604  0.86006  1.0000
  C   C1190     1.0  0.31593  0.53433  0.86741  1.0000
  C   C1191     1.0  0.33696  0.54800  0.85946  1.0000
  C   C1192     1.0  0.34323  0.55299  0.84422  1.0000
  C   C1193     1.0  0.32833  0.54512  0.83688  1.0000
  H   H954      1.0  0.28491  0.51541  0.86622  1.0000
  H   H955      1.0  0.31118  0.52996  0.87920  1.0000
  H   H956      1.0  0.35958  0.56321  0.83803  1.0000
  H   H957      1.0  0.33328  0.54943  0.82509  1.0000
  H   H958      1.0  0.34772  0.61737  0.78750  1.0000
  C   C1194     1.0  0.10753  0.62965  0.74722  1.0000
  H   H959      1.0  0.29127  0.37707  0.94011  1.0000
  C   C1195     1.0  0.38776  0.36819  0.96138  1.0000
  C   C1196     1.0  0.31089  0.62695  0.97737  1.0000
  C   C1197     1.0  0.09235  0.59374  0.74446  1.0000
  C   C1198     1.0  0.10617  0.60724  0.75022  1.0000
  H   H960      1.0  0.38438  0.34776  0.94704  1.0000
  H   H961      1.0  0.31534  0.37155  0.95669  1.0000
  C   C1199     1.0  0.30161  0.55403  0.74232  1.0000
  H   H962      1.0  0.11534  0.60024  0.75721  1.0000
  C   C1200     1.0  0.29457  0.64121  0.80687  1.0000
  S   S185      1.0  0.18846  0.63612  0.79251  1.0000
  C   C1201     1.0  0.09002  0.54574  0.77310  1.0000
  H   H963      1.0  0.28209  0.36963  0.84074  1.0000
  C   C1202     1.0  0.32941  0.45645  0.86459  1.0000
  C   C1203     1.0  0.20540  0.58168  0.78592  1.0000
  C   C1204     1.0  0.21447  0.56454  0.79089  1.0000
  C   C1205     1.0  0.23756  0.56814  0.78774  1.0000
  C   C1206     1.0  0.25145  0.58889  0.77968  1.0000
  C   C1207     1.0  0.24232  0.60586  0.77468  1.0000
  C   C1208     1.0  0.21941  0.60226  0.77777  1.0000
  H   H964      1.0  0.20365  0.54851  0.79696  1.0000
  H   H965      1.0  0.24464  0.55492  0.79135  1.0000
  H   H966      1.0  0.25298  0.62189  0.76834  1.0000
  H   H967      1.0  0.21268  0.61548  0.77359  1.0000
  C   C1209     1.0  0.25497  0.45245  0.92655  1.0000
  C   C1210     1.0  0.26179  0.44654  0.93917  1.0000
  C   C1211     1.0  0.27771  0.46188  0.94226  1.0000
  C   C1212     1.0  0.28689  0.48316  0.93274  1.0000
  C   C1213     1.0  0.28041  0.48880  0.91997  1.0000
  C   C1214     1.0  0.26439  0.47359  0.91696  1.0000
  H   H968      1.0  0.25451  0.43032  0.94667  1.0000
  H   H969      1.0  0.28269  0.45734  0.95213  1.0000
  H   H970      1.0  0.28750  0.50496  0.91247  1.0000
  H   H971      1.0  0.25919  0.47828  0.90718  1.0000
  H   H972      1.0  0.37560  0.52054  0.75632  1.0000
  C   C1215     1.0  0.42572  0.35463  0.96340  1.0000
  C   C1216     1.0  0.31015  0.44890  0.86077  1.0000
  C   C1217     1.0  0.31138  0.35989  0.95074  1.0000
  H   H973      1.0  0.27275  0.45546  0.88903  1.0000
  C   C1218     1.0  0.02122  0.55141  0.84180  1.0000
  H   H974      1.0  0.12443  0.66566  0.98173  1.0000
  C   C1219     1.0  0.26091  0.37469  0.88013  1.0000
  C   C1220     1.0  0.41994  0.63718  0.85167  1.0000
  H   H975      1.0  0.07517  0.62326  0.77978  1.0000
  S   S186      1.0  0.18794  0.34318  0.98180  1.0000
  C   C1221     1.0  0.04456  0.53673  0.81998  1.0000
  S   S187      1.0  0.03265  0.65916  0.95646  1.0000
  C   C1222     1.0  0.20128  0.53843  0.73772  1.0000
  C   C1223     1.0  0.30847  0.40963  0.76461  1.0000
  C   C1224     1.0  0.31664  0.42903  0.76785  1.0000
  C   C1225     1.0  0.33190  0.44679  0.75696  1.0000
  C   C1226     1.0  0.38202  0.51070  0.74968  1.0000
  H   H976      1.0  0.27759  0.62248  0.79508  1.0000
  C   C1227     1.0  0.27543  0.60269  0.81638  1.0000
  C   C1228     1.0  0.05758  0.65003  0.90856  1.0000
  C   C1229     1.0  0.32072  0.34041  0.89543  1.0000
  H   H977      1.0  0.29630  0.39602  0.77297  1.0000
  H   H978      1.0  0.31074  0.43053  0.77874  1.0000
  H   H979      1.0  0.33754  0.46164  0.75980  1.0000
  C   C1230     1.0  0.24258  0.54516  0.84247  1.0000
  C   C1231     1.0  0.23953  0.53561  0.83138  1.0000
  C   C1232     1.0  0.22301  0.53903  0.82469  1.0000
  C   C1233     1.0  0.20935  0.55183  0.82913  1.0000
  C   C1234     1.0  0.21167  0.56070  0.84070  1.0000
  C   C1235     1.0  0.22884  0.55784  0.84702  1.0000
  P   P40       1.0  0.19519  0.57847  0.84590  1.0000
  C   C1236     1.0  0.17076  0.57465  0.83957  1.0000
  C   C1237     1.0  0.18569  0.57330  0.86543  1.0000
  C   C1238     1.0  0.18688  0.55422  0.87504  1.0000
  C   C1239     1.0  0.18119  0.55152  0.89010  1.0000
  C   C1240     1.0  0.17402  0.56765  0.89564  1.0000
  C   C1241     1.0  0.17188  0.58618  0.88617  1.0000
  C   C1242     1.0  0.17743  0.58889  0.87114  1.0000
  C   C1243     1.0  0.15769  0.55336  0.84192  1.0000
  C   C1244     1.0  0.13919  0.55006  0.83657  1.0000
  C   C1245     1.0  0.13339  0.56801  0.82909  1.0000
  C   C1246     1.0  0.14585  0.58924  0.82721  1.0000
  C   C1247     1.0  0.16441  0.59263  0.83248  1.0000
  C   C1248     1.0  0.21349  0.60554  0.83752  1.0000
  C   C1249     1.0  0.21953  0.61426  0.82229  1.0000
  C   C1250     1.0  0.23514  0.63448  0.81561  1.0000
  C   C1251     1.0  0.24510  0.64584  0.82407  1.0000
  C   C1252     1.0  0.23930  0.63721  0.83918  1.0000
  C   C1253     1.0  0.22362  0.61709  0.84591  1.0000
  H   H980      1.0  0.25589  0.54305  0.84736  1.0000
  H   H981      1.0  0.25026  0.52595  0.82772  1.0000
  H   H982      1.0  0.22122  0.53223  0.81577  1.0000
  H   H983      1.0  0.19740  0.55516  0.82326  1.0000
  H   H984      1.0  0.23185  0.56570  0.85529  1.0000
  H   H985      1.0  0.19246  0.54158  0.87097  1.0000
  H   H986      1.0  0.18270  0.53710  0.89750  1.0000
  H   H987      1.0  0.17038  0.56601  0.90725  1.0000
  H   H988      1.0  0.16667  0.59883  0.89046  1.0000
  H   H989      1.0  0.17614  0.60362  0.86392  1.0000
  H   H990      1.0  0.16209  0.53931  0.84764  1.0000
  H   H991      1.0  0.12952  0.53359  0.83806  1.0000
  H   H992      1.0  0.11935  0.56555  0.82468  1.0000
  H   H993      1.0  0.14132  0.60315  0.82149  1.0000
  H   H994      1.0  0.17376  0.60930  0.83087  1.0000
  H   H995      1.0  0.21247  0.60534  0.81553  1.0000
  C   C1254     1.0  0.11112  0.63830  0.90606  1.0000
  H   H996      1.0  0.38515  0.58446  0.95230  1.0000
  H   H997      1.0  0.24717  0.64601  0.84567  1.0000
  H   H998      1.0  0.21989  0.61053  0.85760  1.0000
  P   P41       1.0  0.26468  0.43967  0.86414  1.0000
  C   C1255     1.0  0.22551  0.50041  0.79822  1.0000
  H   H999      1.0  0.17719  0.58060  0.73674  1.0000
  C   C1256     1.0  0.40411  0.51028  0.74720  1.0000
  H   H1000     1.0  0.39422  0.62956  0.88751  1.0000
  Fe  Fe90      1.0  0.24483  0.35889  0.93272  1.0000
  Fe  Fe91      1.0  0.00798  0.64922  0.97847  1.0000
  C   C1257     1.0  0.33077  0.65427  0.92364  1.0000
  C   C1258     1.0  0.38388  0.42849  0.96333  1.0000
  H   H1001     1.0  0.35373  0.55237  0.95653  1.0000
  H   H1002     1.0  0.23990  0.64113  0.80384  1.0000
  H   H1003     1.0  0.23193  0.34713  0.88876  1.0000
  C   C1259     1.0  0.40186  0.62597  0.87763  1.0000
  C   C1260     1.0  0.28332  0.59745  0.86189  1.0000
  H   H1004     1.0  0.28650  0.45930  0.80212  1.0000
  C   C1261     1.0  0.40310  0.60456  0.87833  1.0000
  H   H1005     1.0  0.31918  0.56123  0.74005  1.0000
  C   C1262     1.0  0.32047  0.44589  0.96772  1.0000
  H   H1006     1.0  0.30553  0.52312  0.73942  1.0000
  C   C1263     1.0  0.07972  0.62123  0.86023  1.0000
  C   C1264     1.0  0.21113  0.54023  0.74904  1.0000
  H   H1007     1.0  0.44032  0.34914  0.96429  1.0000
  C   C1265     1.0  0.28211  0.62217  0.80513  1.0000
  C   C1266     1.0  0.36799  0.49829  0.74372  1.0000
  H   H1008     1.0  0.32675  0.64336  0.77614  1.0000
  C   C1267     1.0  0.28661  0.56584  0.74634  1.0000
  H   H1009     1.0  0.37354  0.37542  0.92977  1.0000
  C   C1268     1.0  0.12855  0.65210  0.94420  1.0000
  H   H1010     1.0  0.32769  0.62310  0.93816  1.0000
  H   H1011     1.0  0.03151  0.58287  0.82584  1.0000
  H   H1012     1.0  0.36698  0.41911  0.96535  1.0000
  H   H1013     1.0  0.05834  0.55240  0.77763  1.0000
  H   H1014     1.0  0.07637  0.58866  0.82273  1.0000
  C   C1269     1.0  0.03351  0.52221  0.83381  1.0000
  H   H1015     1.0  0.41135  0.39521  0.92908  1.0000
  H   H1016     1.0  0.30106  0.65329  0.96463  1.0000
  C   C1270     1.0  0.37318  0.60938  0.83701  1.0000
  C   C1271     1.0  0.28630  0.46580  0.83567  1.0000
  H   H1017     1.0  0.00950  0.56764  0.80726  1.0000
  P   P42       1.0  0.38989  0.39186  0.98176  1.0000
  H   H1018     1.0  0.08646  0.53705  0.76529  1.0000
  C   C1272     1.0  0.06974  0.63703  0.86411  1.0000
  C   C1273     1.0  0.40774  0.64787  0.78452  1.0000
  C   C1274     1.0  0.41042  0.66448  0.92307  1.0000
  C   C1275     1.0  0.26735  0.34001  0.85842  1.0000
  C   C1276     1.0  0.10171  0.62508  0.87713  1.0000
  H   H1019     1.0  0.16842  0.38815  0.74605  1.0000
  C   C1277     1.0  0.28204  0.45566  0.81391  1.0000
  C   C1278     1.0  0.32898  0.56897  0.96266  1.0000
  H   H1020     1.0  0.38955  0.60688  0.83467  1.0000
  C   C1279     1.0  0.30757  0.64518  0.85222  1.0000
  C   C1280     1.0  0.36449  0.60517  0.95795  1.0000
  C   C1281     1.0  0.26135  0.59845  0.86615  1.0000
  C   C1282     1.0  0.36836  0.58544  0.95615  1.0000
  C   C1283     1.0  0.41014  0.64246  0.86428  1.0000
  H   H1021     1.0  0.41809  0.47879  0.94378  1.0000
  S   S188      1.0  0.27563  0.35081  0.92250  1.0000
  C   C1284     1.0  0.33879  0.44544  0.74260  1.0000
  C   C1285     1.0  0.33634  0.44414  0.93901  1.0000
  C   C1286     1.0  0.33867  0.46440  0.94213  1.0000
  P   P43       1.0  0.34740  0.44219  0.92088  1.0000
  C   C1287     1.0  0.35727  0.46853  0.90732  1.0000
  C   C1288     1.0  0.36813  0.42756  0.92255  1.0000
  C   C1289     1.0  0.38926  0.43856  0.92263  1.0000
  C   C1290     1.0  0.40484  0.42693  0.92488  1.0000
  C   C1291     1.0  0.39932  0.40423  0.92725  1.0000
  C   C1292     1.0  0.39270  0.65912  0.91712  1.0000
  C   C1293     1.0  0.36252  0.40466  0.92534  1.0000
  C   C1294     1.0  0.34334  0.48255  0.90647  1.0000
  C   C1295     1.0  0.34981  0.50215  0.89527  1.0000
  C   C1296     1.0  0.37029  0.50803  0.88489  1.0000
  C   C1297     1.0  0.38413  0.49406  0.88549  1.0000
  C   C1298     1.0  0.37753  0.47422  0.89653  1.0000
  C   C1299     1.0  0.32609  0.42721  0.91486  1.0000
  C   C1300     1.0  0.30383  0.42575  0.92096  1.0000
  C   C1301     1.0  0.28746  0.41479  0.91585  1.0000
  C   C1302     1.0  0.29318  0.40520  0.90467  1.0000
  C   C1303     1.0  0.31535  0.40681  0.89840  1.0000
  C   C1304     1.0  0.33181  0.41801  0.90336  1.0000
  H   H1022     1.0  0.32571  0.34707  0.86454  1.0000
  H   H1023     1.0  0.41262  0.58257  0.86624  1.0000
  H   H1024     1.0  0.10386  0.60344  0.86346  1.0000
  H   H1025     1.0  0.32462  0.40907  0.94826  1.0000
  H   H1026     1.0  0.34650  0.47968  0.93365  1.0000
  H   H1027     1.0  0.39358  0.45606  0.92119  1.0000
  H   H1028     1.0  0.42113  0.43547  0.92497  1.0000
  C   C1305     1.0  0.23162  0.40016  0.87555  1.0000
  H   H1029     1.0  0.03399  0.50524  0.83607  1.0000
  H   H1030     1.0  0.34598  0.39555  0.92611  1.0000
  H   H1031     1.0  0.32723  0.47817  0.91431  1.0000
  H   H1032     1.0  0.33883  0.51274  0.89454  1.0000
  H   H1033     1.0  0.37523  0.52329  0.87624  1.0000
  H   H1034     1.0  0.39981  0.49852  0.87723  1.0000
  H   H1035     1.0  0.38806  0.46324  0.89637  1.0000
  H   H1036     1.0  0.29907  0.43320  0.92955  1.0000
  H   H1037     1.0  0.27028  0.41369  0.92057  1.0000
  H   H1038     1.0  0.28036  0.39628  0.90102  1.0000
  H   H1039     1.0  0.31966  0.39928  0.88977  1.0000
  H   H1040     1.0  0.34896  0.41943  0.89826  1.0000
  Fe  Fe92      1.0  0.21025  0.65398  0.89539  1.0000
  H   H1041     1.0  0.33141  0.61231  0.82136  1.0000
  H   H1042     1.0  0.23874  0.54900  0.89165  1.0000
  H   H1043     1.0  0.01339  0.51826  0.85544  1.0000
  C   C1306     1.0  0.23159  0.44556  0.88546  1.0000
  C   C1307     1.0  0.21734  0.45708  0.89109  1.0000
  C   C1308     1.0  0.21613  0.47668  0.88227  1.0000
  H   H1044     1.0  0.23279  0.43077  0.89266  1.0000
  H   H1045     1.0  0.20767  0.45099  0.90245  1.0000
  H   H1046     1.0  0.20533  0.48574  0.88674  1.0000
  C   C1309     1.0  0.20327  0.49671  0.80556  1.0000
  C   C1310     1.0  0.18824  0.50116  0.79769  1.0000
  H   H1047     1.0  0.26608  0.58788  0.81488  1.0000
  H   H1048     1.0  0.19773  0.49047  0.81736  1.0000
  H   H1049     1.0  0.17104  0.49847  0.80338  1.0000
  H   H1050     1.0  0.27499  0.34418  0.97319  1.0000
  H   H1051     1.0  0.32760  0.64055  0.88459  1.0000
  C   C1311     1.0  0.11060  0.54842  0.77597  1.0000
  C   C1312     1.0  0.11517  0.55962  0.78604  1.0000
  C   C1313     1.0  0.09926  0.56833  0.79313  1.0000
  S   S189      1.0  0.26479  0.39376  0.74315  1.0000
  H   H1052     1.0  0.12306  0.54187  0.77041  1.0000
  H   H1053     1.0  0.13114  0.56171  0.78829  1.0000
  H   H1054     1.0  0.10300  0.57667  0.80103  1.0000
  H   H1055     1.0  0.19789  0.44252  0.76011  1.0000
  C   C1314     1.0  0.28950  0.44877  0.86934  1.0000
  C   C1315     1.0  0.38142  0.61544  0.78432  1.0000
  C   C1316     1.0  0.34005  0.61215  0.82969  1.0000
  C   C1317     1.0  0.07906  0.62290  0.79000  1.0000
  Fe  Fe93      1.0  0.14681  0.64101  0.76890  1.0000
  C   C1318     1.0  0.24350  0.47329  0.86213  1.0000
  C   C1319     1.0  0.36445  0.62590  0.78662  1.0000
  S   S190      1.0  0.17889  0.63298  0.76098  1.0000
  Fe  Fe94      1.0  0.15607  0.64409  0.79814  1.0000
  H   H1056     1.0  0.18171  0.34739  0.74938  1.0000
  H   H1057     1.0  0.19426  0.58380  0.75682  1.0000
  C   C1320     1.0  0.09571  0.61529  0.86673  1.0000
  H   H1058     1.0  0.25109  0.33781  0.85661  1.0000
  H   H1059     1.0  0.20603  0.36984  0.88478  1.0000
  C   C1321     1.0  0.30007  0.64091  0.81997  1.0000
  H   H1060     1.0  0.28294  0.45184  0.74733  1.0000
  C   C1322     1.0  0.04634  0.59201  0.77372  1.0000
  H   H1061     1.0  0.29148  0.64242  0.76973  1.0000
  H   H1062     1.0  0.33780  0.36477  0.90376  1.0000
  H   H1063     1.0  0.10758  0.65738  0.80517  1.0000
  H   H1064     1.0  0.35692  0.34000  0.91615  1.0000
  H   H1065     1.0  0.30546  0.57674  0.86469  1.0000
  C   C1323     1.0  0.09178  0.64099  0.88111  1.0000
  C   C1324     1.0  0.01596  0.57539  0.79566  1.0000
  H   H1066     1.0  0.22859  0.50013  0.86099  1.0000
  Fe  Fe95      1.0  0.24530  0.41784  0.74705  1.0000
  C   C1325     1.0  0.22919  0.48476  0.86779  1.0000
  C   C1326     1.0  0.22149  0.49770  0.74850  1.0000
  C   C1327     1.0  0.19537  0.50900  0.78245  1.0000
  C   C1328     1.0  0.24479  0.45355  0.87092  1.0000
  C   C1329     1.0  0.28839  0.45575  0.88200  1.0000
  C   C1330     1.0  0.41312  0.34692  0.95476  1.0000
  S   S191      1.0  0.08554  0.64008  0.96108  1.0000
  C   C1331     1.0  0.30669  0.65382  0.76249  1.0000
  H   H1067     1.0  0.41613  0.61853  0.78151  1.0000
  C   C1332     1.0  0.28141  0.60215  0.82932  1.0000
  H   H1068     1.0  0.42655  0.64947  0.84121  1.0000
  H   H1069     1.0  0.13369  0.60245  0.93375  1.0000
  H   H1070     1.0  0.27708  0.58661  0.83757  1.0000
  H   H1071     1.0  0.18347  0.51205  0.77649  1.0000
  H   H1072     1.0  0.17385  0.33847  0.88783  1.0000
  H   H1073     1.0  0.41494  0.51988  0.75189  1.0000
  H   H1074     1.0  0.09656  0.65714  0.78241  1.0000
  H   H1075     1.0  0.02392  0.64513  0.92101  1.0000
  C   C1333     1.0  0.40302  0.62656  0.78322  1.0000
  H   H1076     1.0  0.21548  0.55823  0.76471  1.0000
  H   H1077     1.0  0.43418  0.65219  0.93255  1.0000
  H   H1078     1.0  0.12909  0.63590  0.94972  1.0000
  C   C1334     1.0  0.42093  0.61568  0.85240  1.0000
  P   P44       1.0  0.05849  0.57779  0.79921  1.0000
  C   C1335     1.0  0.27269  0.56085  0.87865  1.0000
  S   S192      1.0  0.14285  0.64667  0.82097  1.0000
  H   H1079     1.0  0.08263  0.63174  0.92467  1.0000
  C   C1336     1.0  0.19629  0.57121  0.75140  1.0000
  C   C1337     1.0  0.23272  0.50846  0.78300  1.0000
  C   C1338     1.0  0.12076  0.35916  0.74223  1.0000
  C   C1339     1.0  0.34181  0.65443  0.88213  1.0000
  C   C1340     1.0  0.27119  0.52278  0.74561  1.0000
  C   C1341     1.0  0.21768  0.51266  0.77500  1.0000
  H   H1080     1.0  0.24906  0.41601  0.84429  1.0000
  H   H1081     1.0  0.09737  0.62317  0.82518  1.0000
  C   C1342     1.0  0.39870  0.41939  0.96973  1.0000
  H   H1082     1.0  0.25383  0.48018  0.85101  1.0000
  C   C1343     1.0  0.02189  0.52954  0.84472  1.0000
  H   H1083     1.0  0.10404  0.35006  0.74853  1.0000
  H   H1084     1.0  0.36897  0.60772  0.81603  1.0000
  C   C1344     1.0  0.25433  0.41034  0.87195  1.0000
  H   H1085     1.0  0.05339  0.53066  0.81169  1.0000
  H   H1086     1.0  0.14211  0.64200  0.89043  1.0000
  H   H1087     1.0  0.16246  0.66137  0.93098  1.0000
  C   C1345     1.0  0.20841  0.55671  0.75584  1.0000
  C   C1346     1.0  0.26389  0.55623  0.74989  1.0000
  H   H1088     1.0  0.24999  0.51123  0.77750  1.0000
  C   C1347     1.0  0.22364  0.37747  0.88158  1.0000
  H   H1089     1.0  0.31142  0.44333  0.85108  1.0000
  C   C1348     1.0  0.41218  0.49751  0.73868  1.0000
  H   H1090     1.0  0.31288  0.48236  0.74774  1.0000
  H   H1091     1.0  0.31940  0.37407  0.84470  1.0000
  C   C1349     1.0  0.26896  0.39738  0.87411  1.0000
  H   H1092     1.0  0.42808  0.61160  0.84260  1.0000
  H   H1093     1.0  0.36479  0.63827  0.87302  1.0000
  H   H1094     1.0  0.28655  0.40471  0.87132  1.0000
  P   P45       1.0  0.10129  0.65573  0.89318  1.0000
  C   C1350     1.0  0.23825  0.36470  0.88387  1.0000
  C   C1351     1.0  0.26110  0.43124  0.83780  1.0000
  C   C1352     1.0  0.26659  0.43608  0.82256  1.0000
  C   C1353     1.0  0.12722  0.61206  0.92597  1.0000
  H   H1095     1.0  0.38195  0.66156  0.94971  1.0000
  C   C1354     1.0  0.25103  0.56232  0.88317  1.0000
  C   C1355     1.0  0.04024  0.65641  0.91634  1.0000
  H   H1096     1.0  0.07534  0.61385  0.85202  1.0000
  H   H1097     1.0  0.27222  0.36486  0.88206  1.0000
  C   C1356     1.0  0.21003  0.47684  0.75806  1.0000
  C   C1357     1.0  0.27122  0.44592  0.84447  1.0000
  H   H1098     1.0  0.39655  0.59192  0.88868  1.0000
  C   C1358     1.0  0.37811  0.39310  0.92756  1.0000
  C   C1359     1.0  0.36298  0.65311  0.87573  1.0000
  H   H1099     1.0  0.25885  0.42469  0.81742  1.0000
  C   C1360     1.0  0.03883  0.58211  0.78884  1.0000
  P   P46       1.0  0.22660  0.52142  0.75529  1.0000
  H   H1100     1.0  0.30970  0.65587  0.82105  1.0000
  H   H1101     1.0  0.30336  0.48598  0.81376  1.0000
  C   C1361     1.0  0.04414  0.55878  0.81700  1.0000
  H   H1102     1.0  0.25276  0.56555  0.75342  1.0000
  C   C1362     1.0  0.14005  0.62169  0.91153  1.0000
  C   C1363     1.0  0.27179  0.37463  0.97714  1.0000
  Fe  Fe96      1.0  0.19938  0.35516  0.92834  1.0000
  H   H1103     1.0  0.37212  0.61039  0.85897  1.0000
  C   C1364     1.0  0.39428  0.35388  0.95364  1.0000
  H   H1104     1.0  0.37851  0.61913  0.95558  1.0000
  H   H1105     1.0  0.33458  0.61551  0.86453  1.0000
  P   P47       1.0  0.30336  0.61959  0.84737  1.0000
  C   C1365     1.0  0.29170  0.47060  0.82046  1.0000
  C   C1366     1.0  0.33018  0.61439  0.84340  1.0000
  C   C1367     1.0  0.34202  0.61403  0.85386  1.0000
  C   C1368     1.0  0.39081  0.44995  0.95419  1.0000
  C   C1369     1.0  0.36342  0.61150  0.85066  1.0000
  C   C1370     1.0  0.39365  0.66597  0.98125  1.0000
  C   C1371     1.0  0.42062  0.64830  0.92788  1.0000
  C   C1372     1.0  0.25595  0.53465  0.74943  1.0000
  C   C1373     1.0  0.36151  0.60970  0.82654  1.0000
  H   H1106     1.0  0.14426  0.64327  0.85059  1.0000
  H   H1107     1.0  0.28057  0.38416  0.96602  1.0000
  H   H1108     1.0  0.29393  0.47764  0.84056  1.0000
  H   H1109     1.0  0.37916  0.45705  0.94957  1.0000
  C   C1374     1.0  0.29692  0.66781  0.86779  1.0000
  H   H1110     1.0  0.43275  0.42443  0.97036  1.0000
  C   C1375     1.0  0.14747  0.66652  0.93361  1.0000
  C   C1376     1.0  0.33832  0.64972  0.94724  1.0000
  H   H1111     1.0  0.13020  0.36740  0.76055  1.0000
  S   S193      1.0  0.17655  0.34221  0.91588  1.0000
  C   C1377     1.0  0.41906  0.36866  0.97134  1.0000
  C   C1378     1.0  0.03223  0.56597  0.82798  1.0000
  C   C1379     1.0  0.00098  0.57831  0.78742  1.0000
  H   H1112     1.0  0.35621  0.65556  0.78969  1.0000
  C   C1380     1.0  0.29766  0.36284  0.94155  1.0000
  H   H1113     1.0  0.09112  0.57642  0.74696  1.0000
  C   C1381     1.0  0.33047  0.46523  0.95640  1.0000
  C   C1382     1.0  0.35939  0.64563  0.97126  1.0000
  H   H1114     1.0  0.32575  0.64718  0.91549  1.0000
  C   C1383     1.0  0.41236  0.59934  0.86570  1.0000
  H   H1115     1.0  0.31526  0.55514  0.96401  1.0000
  P   P48       1.0  0.33770  0.63234  0.96460  1.0000
  C   C1384     1.0  0.36926  0.64749  0.78782  1.0000
  C   C1385     1.0  0.15858  0.65601  0.84345  1.0000
  C   C1386     1.0  0.32504  0.58875  0.96431  1.0000
  H   H1116     1.0  0.37317  0.37351  0.96028  1.0000
  H   H1117     1.0  0.25669  0.61282  0.86129  1.0000
  C   C1387     1.0  0.31864  0.42566  0.96477  1.0000
  C   C1388     1.0  0.24535  0.58114  0.87690  1.0000
  C   C1389     1.0  0.34278  0.60690  0.96223  1.0000
  H   H1118     1.0  0.31396  0.44666  0.97872  1.0000
  H   H1119     1.0  0.11448  0.62053  0.88172  1.0000
  C   C1390     1.0  0.33194  0.64064  0.93657  1.0000
  C   C1391     1.0  0.09170  0.62311  0.81554  1.0000
  H   H1120     1.0  0.27883  0.63497  0.87119  1.0000
  C   C1392     1.0  0.39098  0.65844  0.78675  1.0000
  H   H1121     1.0  0.09673  0.60867  0.94183  1.0000
  C   C1393     1.0  0.32665  0.66229  0.84433  1.0000
  C   C1394     1.0  0.33552  0.34823  0.90283  1.0000
  C   C1395     1.0  0.10637  0.61547  0.93049  1.0000
  Fe  Fe97      1.0  0.20635  0.35568  0.95782  1.0000
  C   C1396     1.0  0.29389  0.53257  0.74191  1.0000
  H   H1122     1.0  0.35096  0.49900  0.74575  1.0000
  S   S194      1.0  0.21539  0.39900  0.74258  1.0000
  H   H1123     1.0  0.42450  0.65620  0.78378  1.0000
  C   C1397     1.0  0.35064  0.56736  0.95849  1.0000
  C   C1398     1.0  0.32637  0.42480  0.95046  1.0000
  H   H1124     1.0  0.22865  0.58251  0.88053  1.0000
  H   H1125     1.0  0.15651  0.61955  0.90816  1.0000
  H   H1126     1.0  0.26558  0.40249  0.98409  1.0000
  C   C1399     1.0  0.00870  0.58797  0.77234  1.0000
  C   C1400     1.0  0.30930  0.34519  0.86307  1.0000
  C   C1401     1.0  0.32660  0.65443  0.76608  1.0000
  C   C1402     1.0  0.39948  0.37485  0.97084  1.0000
  C   C1403     1.0  0.41274  0.46216  0.95090  1.0000
  C   C1404     1.0  0.31566  0.40794  0.75049  1.0000
  H   H1127     1.0  0.31153  0.35103  0.89087  1.0000
  H   H1128     1.0  0.06850  0.65975  0.87692  1.0000
  H   H1129     1.0  0.06380  0.59725  0.76822  1.0000
  C   C1405     1.0  0.42782  0.45286  0.95669  1.0000
  C   C1406     1.0  0.10900  0.65855  0.94772  1.0000
  C   C1407     1.0  0.29235  0.34733  0.93416  1.0000
  C   C1408     1.0  0.15707  0.38050  0.74085  1.0000
  C   C1409     1.0  0.07298  0.60335  0.80136  1.0000
  C   C1410     1.0  0.30580  0.36042  0.85178  1.0000
  C   C1411     1.0  0.37939  0.65904  0.96134  1.0000
  C   C1412     1.0  0.13197  0.63462  0.90159  1.0000
  Fe  Fe98      1.0  0.05770  0.65474  0.96868  1.0000
  C   C1413     1.0  0.42087  0.43149  0.96600  1.0000
  H   H1130     1.0  0.31110  0.41063  0.97354  1.0000
  H   H1131     1.0  0.25766  0.66116  0.81891  1.0000
  C   C1414     1.0  0.29644  0.63984  0.97448  1.0000
  H   H1132     1.0  0.20433  0.47431  0.76970  1.0000
  S   S195      1.0  0.33510  0.33722  0.96495  1.0000
  H   H1133     1.0  0.29989  0.65624  0.79805  1.0000
  H   H1134     1.0  0.05764  0.64194  0.85887  1.0000
  H   H1135     1.0  0.42797  0.65321  0.88708  1.0000
  C   C1415     1.0  0.28481  0.35789  0.84950  1.0000
  C   C1416     1.0  0.09125  0.64233  0.79145  1.0000
  C   C1417     1.0  0.07581  0.64697  0.87444  1.0000
  C   C1418     1.0  0.07972  0.60359  0.81409  1.0000
  H   H1136     1.0  0.05449  0.63369  0.90724  1.0000
  H   H1137     1.0  0.33850  0.66043  0.83526  1.0000
  H   H1138     1.0  0.03739  0.60212  0.75378  1.0000
  C   C1419     1.0  0.03137  0.59484  0.76551  1.0000
  H   H1139     1.0  0.16995  0.66463  0.86117  1.0000
  C   C1420     1.0  0.09750  0.64247  0.80423  1.0000
  C   C1421     1.0  0.21380  0.46111  0.73775  1.0000
  C   C1422     1.0  0.26822  0.35188  0.98115  1.0000
  Fe  Fe99      1.0  0.23603  0.37685  0.73662  1.0000
  H   H1140     1.0  0.01216  0.55707  0.85025  1.0000
  H   H1141     1.0  0.42912  0.37429  0.97799  1.0000
  S   S196      1.0  0.22542  0.34003  0.74352  1.0000
  C   C1423     1.0  0.07891  0.66448  0.90285  1.0000
  C   C1424     1.0  0.18665  0.56937  0.74011  1.0000
  C   C1425     1.0  0.16233  0.66065  0.82825  1.0000
  H   H1142     1.0  0.30816  0.58993  0.96688  1.0000
  C   C1426     1.0  0.27552  0.63521  0.98423  1.0000
  H   H1143     1.0  0.35429  0.35236  0.98557  1.0000
  C   C1427     1.0  0.30636  0.66785  0.74950  1.0000
  H   H1144     1.0  0.42935  0.49727  0.73671  1.0000
  C   C1428     1.0  0.17316  0.66802  0.84946  1.0000
  H   H1145     1.0  0.09630  0.65565  0.73577  1.0000
  H   H1146     1.0  0.06870  0.97279  0.15788  1.0000
  C   C1429     1.0  0.02062  0.96463  0.11928  1.0000
  C   C1430     1.0  0.10734  0.68834  0.98874  1.0000
  H   H1147     1.0  0.06122  0.91006  0.14276  1.0000
  C   C1431     1.0  0.01374  0.81628  0.03480  1.0000
  C   C1432     1.0  0.38754  0.74488  0.00244  1.0000
  H   H1148     1.0  0.00968  0.98574  0.19441  1.0000
  H   H1149     1.0  0.02344  0.72331  0.17906  1.0000
  H   H1150     1.0  0.02545  0.94948  0.12087  1.0000
  C   C1433     1.0  0.03924  0.80411  0.18727  1.0000
  C   C1434     1.0  0.01339  0.70191  0.02280  1.0000
  H   H1151     1.0  0.06555  0.88410  0.22193  1.0000
  C   C1435     1.0  0.06641  0.93771  0.21251  1.0000
  C   C1436     1.0  0.11891  0.86795  0.17000  1.0000
  C   C1437     1.0  0.36560  0.70215  0.00409  1.0000
  H   H1152     1.0  0.04587  0.72286  0.04824  1.0000
  S   S197      1.0  0.01189  0.90802  0.19369  1.0000
  H   H1153     1.0  0.01452  0.75936  0.01760  1.0000
  C   C1438     1.0  0.03667  0.71701  0.04122  1.0000
  H   H1154     1.0  0.01837  0.74340  0.23225  1.0000
  H   H1155     1.0  0.02232  0.87575  0.99024  1.0000
  C   C1439     1.0  0.06577  0.89974  0.21504  1.0000
  C   C1440     1.0  0.39148  0.73732  0.99002  1.0000
  C   C1441     1.0  0.02563  0.85575  0.21650  1.0000
  C   C1442     1.0  0.10596  0.88055  0.19535  1.0000
  S   S198      1.0  0.01049  0.94468  0.21980  1.0000
  P   P49       1.0  0.00558  0.77200  0.20954  1.0000
  H   H1156     1.0  0.00993  0.91556  0.16415  1.0000
  H   H1157     1.0  0.06417  0.95578  0.19190  1.0000
  C   C1443     1.0  0.05292  0.89745  0.15297  1.0000
  C   C1444     1.0  0.06120  0.81584  0.18011  1.0000
  C   C1445     1.0  0.06164  0.89657  0.16493  1.0000
  C   C1446     1.0  0.04589  0.70626  0.03157  1.0000
  C   C1447     1.0  0.03028  0.98137  0.12473  1.0000
  C   C1448     1.0  0.05596  0.97566  0.16592  1.0000
  C   C1449     1.0  0.13398  0.87249  0.17796  1.0000
  C   C1450     1.0  0.02280  0.98322  0.18646  1.0000
  H   H1158     1.0  0.04848  0.74670  0.00775  1.0000
  C   C1451     1.0  0.03547  0.74111  0.99003  1.0000
  C   C1452     1.0  0.00481  0.77999  0.00088  1.0000
  H   H1159     1.0  0.36978  0.73707  0.02514  1.0000
  C   C1453     1.0  0.06684  0.91749  0.22089  1.0000
  C   C1454     1.0  0.03103  0.86528  0.17940  1.0000
  C   C1455     1.0  0.03387  0.78830  0.20085  1.0000
  H   H1160     1.0  0.02660  0.80715  0.18198  1.0000
  H   H1161     1.0  0.08470  0.98773  0.22021  1.0000
  C   C1456     1.0  0.05243  0.74603  0.99654  1.0000
  H   H1162     1.0  0.35692  0.68571  0.00466  1.0000
  C   C1457     1.0  0.05528  0.83796  0.21375  1.0000
  C   C1458     1.0  0.00363  0.76955  0.01530  1.0000
  C   C1459     1.0  0.05097  0.78429  0.20696  1.0000
  C   C1460     1.0  0.37277  0.73112  0.01559  1.0000
  H   H1163     1.0  0.06256  0.92490  0.18131  1.0000
  C   C1461     1.0  0.01384  0.83928  0.22937  1.0000
  H   H1164     1.0  0.02210  0.85284  0.18951  1.0000
  C   C1462     1.0  0.00384  0.71238  0.03278  1.0000
  C   C1463     1.0  0.06017  0.99455  0.17050  1.0000
  C   C1464     1.0  0.09072  0.87618  0.18736  1.0000
  H   H1165     1.0  0.01837  0.73793  0.99614  1.0000
  H   H1166     1.0  0.00987  0.98599  0.15708  1.0000
  H   H1167     1.0  0.10136  0.88540  0.20521  1.0000
  H   H1168     1.0  0.15072  0.87126  0.17428  1.0000
  C   C1465     1.0  0.06456  0.90210  0.20060  1.0000
  C   C1466     1.0  0.04343  0.99877  0.18052  1.0000
  C   C1467     1.0  0.07437  0.74874  0.98894  1.0000
  H   H1169     1.0  0.13916  0.88227  0.19684  1.0000
  H   H1170     1.0  0.00458  0.69627  0.01555  1.0000
  H   H1171     1.0  0.35022  0.69922  0.02658  1.0000
  H   H1172     1.0  0.07142  0.83733  0.20802  1.0000
  C   C1468     1.0  0.03444  0.69872  0.02228  1.0000
  C   C1469     1.0  0.07294  0.79602  0.19975  1.0000
  H   H1173     1.0  0.09173  0.71332  0.99254  1.0000
  H   H1174     1.0  0.01870  0.86917  0.21284  1.0000
  C   C1470     1.0  0.03335  0.88219  0.15420  1.0000
  C   C1471     1.0  0.02246  0.86608  0.16739  1.0000
  H   H1175     1.0  0.06216  0.70394  0.03122  1.0000
  C   C1472     1.0  0.38047  0.71581  0.99095  1.0000
  H   H1176     1.0  0.04220  0.97885  0.13076  1.0000
  C   C1473     1.0  0.05066  0.88060  0.17831  1.0000
  H   H1177     1.0  0.01994  0.97557  0.07217  1.0000
  H   H1178     1.0  0.12398  0.86319  0.16012  1.0000
  C   C1474     1.0  0.36177  0.70979  0.01641  1.0000
  C   C1475     1.0  0.02439  0.00125  0.12255  1.0000
  C   C1476     1.0  0.07806  0.81178  0.18633  1.0000
  S   S199      1.0  0.04771  0.68571  0.01037  1.0000
  C   C1477     1.0  0.04659  0.85539  0.20870  1.0000
  H   H1179     1.0  0.06511  0.82785  0.16961  1.0000
  C   C1478     1.0  0.06439  0.92262  0.19220  1.0000
  H   H1180     1.0  0.00292  0.95202  0.18675  1.0000
  H   H1181     1.0  0.02632  0.88312  0.14503  1.0000
  H   H1182     1.0  0.06640  0.95119  0.21731  1.0000
  C   C1479     1.0  0.09734  0.86965  0.17471  1.0000
  H   H1183     1.0  0.02718  0.75906  0.18431  1.0000
  H   H1184     1.0  0.02775  0.79318  0.04675  1.0000
  H   H1185     1.0  0.07703  0.90827  0.16370  1.0000
  H   H1186     1.0  0.09510  0.82068  0.18071  1.0000
  C   C1480     1.0  0.12748  0.87871  0.19066  1.0000
  H   H1187     1.0  0.04757  0.77198  0.21719  1.0000
  H   H1188     1.0  0.00696  0.85465  0.16841  1.0000
  H   H1189     1.0  0.00120  0.83713  0.99690  1.0000
  C   C1481     1.0  0.06520  0.94028  0.19819  1.0000
  H   H1190     1.0  0.08594  0.86589  0.16842  1.0000
  P   P50       1.0  0.06288  0.87862  0.19343  1.0000
  C   C1482     1.0  0.01567  0.74461  0.19227  1.0000
  H   H1191     1.0  0.02822  0.97937  0.04560  1.0000
  C   C1483     1.0  0.03532  0.96042  0.17174  1.0000
  H   H1192     1.0  0.08602  0.79273  0.20454  1.0000
  C   C1484     1.0  0.01355  0.72438  0.18923  1.0000
  C   C1485     1.0  0.01554  0.71986  0.04205  1.0000
  H   H1193     1.0  0.06589  0.98952  0.20066  1.0000
  C   C1486     1.0  0.04339  0.82146  0.22663  1.0000
  H   H1194     1.0  0.02700  0.82071  0.02482  1.0000
  C   C1487     1.0  0.01426  0.80086  0.04714  1.0000
  H   H1195     1.0  0.39579  0.76137  0.00204  1.0000
  H   H1196     1.0  0.01684  0.77779  0.99212  1.0000
  H   H1197     1.0  0.05025  0.80823  0.23069  1.0000
  C   C1488     1.0  0.02766  0.99155  0.06432  1.0000
  C   C1489     1.0  0.00540  0.96787  0.11131  1.0000
  Fe  Fe100     1.0  0.03831  0.67655  0.99112  1.0000
  C   C1490     1.0  0.01885  0.96406  0.18212  1.0000
  H   H1198     1.0  0.03213  0.94568  0.16830  1.0000
  C   C1491     1.0  0.03231  0.99372  0.04937  1.0000
  H   H1199     1.0  0.08713  0.75147  0.99444  1.0000
  H   H1200     1.0  0.06735  0.91542  0.23211  1.0000
  H   H1201     1.0  0.09832  0.67710  0.99938  1.0000
  S   S200      1.0  0.00512  0.73359  0.05453  1.0000
  H   H1202     1.0  0.00358  0.68884  0.07137  1.0000
  C   C1492     1.0  0.00303  0.74602  0.20551  1.0000
  C   C1493     1.0  0.02285  0.82232  0.23453  1.0000
  S   S201      1.0  0.04373  0.93850  0.24926  1.0000
  C   C1494     1.0  0.03342  0.98499  0.30375  1.0000
  C   C1495     1.0  0.04000  0.98074  0.24876  1.0000
  C   C1496     1.0  0.04907  0.96358  0.25375  1.0000
  C   C1497     1.0  0.06331  0.96632  0.26253  1.0000
  H   H1203     1.0  0.07037  0.95319  0.26645  1.0000
  C   C1498     1.0  0.06837  0.98580  0.26642  1.0000
  H   H1204     1.0  0.04012  0.97514  0.32450  1.0000
  C   C1499     1.0  0.02787  0.97343  0.31850  1.0000
  Fe  Fe101     1.0  0.01472  0.92679  0.24084  1.0000
  H   H1205     1.0  0.02918  0.97887  0.24182  1.0000
  H   H1206     1.0  0.01402  0.81001  0.24477  1.0000
  H   H1207     1.0  0.01484  0.91022  0.27784  1.0000
  C   C1500     1.0  0.01777  0.98269  0.29592  1.0000
  H   H1208     1.0  0.01286  0.94688  0.27989  1.0000
  H   H1209     1.0  0.07923  0.98749  0.27336  1.0000
  H   H1210     1.0  0.02266  0.99137  0.28443  1.0000
  H   H1211     1.0  0.04995  0.99563  0.29824  1.0000
  C   C1501     1.0  0.00668  0.95942  0.32538  1.0000
  H   H1212     1.0  0.00251  0.95012  0.33674  1.0000
  C   C1502     1.0  0.00833  0.75252  0.23739  1.0000
  H   H1213     1.0  0.01068  0.73742  0.25877  1.0000
  C   C1503     1.0  0.09025  0.68569  0.47077  1.0000
  C   C1504     1.0  0.08823  0.68451  0.45701  1.0000
  H   H1214     1.0  0.08701  0.69870  0.44926  1.0000
  H   H1215     1.0  0.09026  0.70085  0.47359  1.0000
  C   C1505     1.0  0.00380  0.74887  0.25249  1.0000
  H   H1216     1.0  0.43214  0.00066  0.33943  1.0000
  S   S202      1.0  0.00796  0.89422  0.23592  1.0000
  H   H1217     1.0  0.21923  0.67338  0.32106  1.0000
  C   C1506     1.0  0.37268  0.67036  0.42015  1.0000
  H   H1218     1.0  0.41270  0.91796  0.40913  1.0000
  S   S203      1.0  0.21998  0.75434  0.47229  1.0000
  H   H1219     1.0  0.49081  0.91232  0.44345  1.0000
  C   C1507     1.0  0.36080  0.66930  0.44556  1.0000
  C   C1508     1.0  0.49832  0.90527  0.43525  1.0000
  H   H1220     1.0  0.49231  0.79828  0.33631  1.0000
  C   C1509     1.0  0.38571  0.66906  0.48404  1.0000
  C   C1510     1.0  0.13087  0.74170  0.42032  1.0000
  H   H1221     1.0  0.15485  0.73918  0.48099  1.0000
  C   C1511     1.0  0.43511  0.99885  0.35007  1.0000
  H   H1222     1.0  0.09907  0.76281  0.44329  1.0000
  H   H1223     1.0  0.41880  0.96433  0.35794  1.0000
  H   H1224     1.0  0.39524  0.83935  0.47981  1.0000
  H   H1225     1.0  0.44828  0.79249  0.44513  1.0000
  C   C1512     1.0  0.43087  0.69236  0.48267  1.0000
  C   C1513     1.0  0.31791  0.76195  0.48373  1.0000
  H   H1226     1.0  0.40517  0.89841  0.47391  1.0000
  H   H1227     1.0  0.24866  0.67920  0.42556  1.0000
  C   C1514     1.0  0.42071  0.67377  0.45871  1.0000
  C   C1515     1.0  0.49824  0.87552  0.42413  1.0000
  H   H1228     1.0  0.48727  0.99680  0.37344  1.0000
  C   C1516     1.0  0.45777  0.72769  0.47578  1.0000
  H   H1229     1.0  0.49075  0.85937  0.42354  1.0000
  C   C1517     1.0  0.42484  0.83047  0.42948  1.0000
  C   C1518     1.0  0.48639  0.85989  0.48398  1.0000
  C   C1519     1.0  0.32256  0.83539  0.44490  1.0000
  H   H1230     1.0  0.38667  0.91635  0.43242  1.0000
  H   H1231     1.0  0.13906  0.70077  0.48226  1.0000
  H   H1232     1.0  0.47421  0.99812  0.40733  1.0000
  C   C1520     1.0  0.49579  0.84547  0.35575  1.0000
  C   C1521     1.0  0.41661  0.89990  0.46358  1.0000
  C   C1522     1.0  0.46263  0.87215  0.34405  1.0000
  S   S204      1.0  0.37571  0.68665  0.38069  1.0000
  C   C1523     1.0  0.49317  0.84741  0.38059  1.0000
  C   C1524     1.0  0.19782  0.73128  0.38215  1.0000
  C   C1525     1.0  0.18864  0.67522  0.33430  1.0000
  C   C1526     1.0  0.44460  0.80812  0.44190  1.0000
  C   C1527     1.0  0.12242  0.71844  0.39842  1.0000
  H   H1233     1.0  0.16424  0.81843  0.36929  1.0000
  C   C1528     1.0  0.42440  0.77617  0.36325  1.0000
  H   H1234     1.0  0.21665  0.76022  0.40394  1.0000
  H   H1235     1.0  0.46830  0.74231  0.46745  1.0000
  H   H1236     1.0  0.16557  0.69415  0.46147  1.0000
  C   C1529     1.0  0.35712  0.79498  0.41941  1.0000
  C   C1530     1.0  0.09807  0.68106  0.39345  1.0000
  H   H1237     1.0  0.09550  0.78599  0.37792  1.0000
  H   H1238     1.0  0.10562  0.70061  0.37127  1.0000
  C   C1531     1.0  0.10738  0.70039  0.38207  1.0000
  C   C1532     1.0  0.37083  0.88189  0.43739  1.0000
  H   H1239     1.0  0.17592  0.68813  0.41092  1.0000
  C   C1533     1.0  0.44442  0.99399  0.37700  1.0000
  H   H1240     1.0  0.49344  0.97910  0.30310  1.0000
  C   C1534     1.0  0.43463  0.84826  0.43383  1.0000
  C   C1535     1.0  0.45450  0.82586  0.44622  1.0000
  H   H1241     1.0  0.15591  0.67237  0.34729  1.0000
  C   C1536     1.0  0.43365  0.91887  0.43799  1.0000
  H   H1242     1.0  0.10055  0.75281  0.39341  1.0000
  C   C1537     1.0  0.20532  0.75277  0.39860  1.0000
  C   C1538     1.0  0.10109  0.68027  0.40725  1.0000
  H   H1243     1.0  0.33335  0.67355  0.37039  1.0000
  H   H1244     1.0  0.44936  0.89972  0.34540  1.0000
  H   H1245     1.0  0.40757  0.70185  0.45486  1.0000
  C   C1539     1.0  0.13552  0.76659  0.39014  1.0000
  H   H1246     1.0  0.44831  0.99176  0.38736  1.0000
  C   C1540     1.0  0.35453  0.83315  0.46261  1.0000
  H   H1247     1.0  0.28723  0.86709  0.43962  1.0000
  C   C1541     1.0  0.48804  0.97682  0.32599  1.0000
  C   C1542     1.0  0.16796  0.69252  0.45055  1.0000
  C   C1543     1.0  0.45979  0.81407  0.35052  1.0000
  H   H1248     1.0  0.25869  0.74280  0.41861  1.0000
  C   C1544     1.0  0.15037  0.80408  0.37460  1.0000
  H   H1249     1.0  0.43077  0.68131  0.41697  1.0000
  C   C1545     1.0  0.48853  0.99176  0.40685  1.0000
  H   H1250     1.0  0.22950  0.74049  0.38620  1.0000
  H   H1251     1.0  0.14166  0.72183  0.45263  1.0000
  C   C1546     1.0  0.49292  0.98809  0.31116  1.0000
  C   C1547     1.0  0.27770  0.83183  0.44673  1.0000
  C   C1548     1.0  0.17564  0.73151  0.38591  1.0000
  H   H1252     1.0  0.41374  0.83233  0.42270  1.0000
  H   H1253     1.0  0.16452  0.72304  0.38091  1.0000
  H   H1254     1.0  0.37198  0.76806  0.42218  1.0000
  H   H1255     1.0  0.37414  0.80381  0.45374  1.0000
  C   C1549     1.0  0.44063  0.81194  0.34572  1.0000
  S   S205      1.0  0.15075  0.67425  0.38407  1.0000
  C   C1550     1.0  0.15181  0.67788  0.44715  1.0000
  H   H1256     1.0  0.49692  0.88184  0.46241  1.0000
  H   H1257     1.0  0.25268  0.80076  0.38814  1.0000
  H   H1258     1.0  0.28826  0.71027  0.37200  1.0000
  C   C1551     1.0  0.41921  0.69383  0.43494  1.0000
  C   C1552     1.0  0.15464  0.67626  0.43285  1.0000
  P   P51       1.0  0.41462  0.67016  0.47815  1.0000
  H   H1259     1.0  0.20343  0.72253  0.37449  1.0000
  H   H1260     1.0  0.47841  0.85761  0.31281  1.0000
  H   H1261     1.0  0.17779  0.76148  0.41029  1.0000
  C   C1553     1.0  0.42814  0.67925  0.42858  1.0000
  H   H1262     1.0  0.30401  0.70949  0.48213  1.0000
  C   C1554     1.0  0.38446  0.86408  0.41939  1.0000
  C   C1555     1.0  0.44343  0.77808  0.36805  1.0000
  H   H1263     1.0  0.34266  0.72872  0.47002  1.0000
  H   H1264     1.0  0.44433  0.76504  0.37681  1.0000
  C   C1556     1.0  0.31523  0.85429  0.44136  1.0000
  C   C1557     1.0  0.34371  0.70385  0.35351  1.0000
  C   C1558     1.0  0.45566  0.89041  0.33834  1.0000
  C   C1559     1.0  0.26005  0.78369  0.37219  1.0000
  H   H1265     1.0  0.19611  0.69009  0.33665  1.0000
  C   C1560     1.0  0.37571  0.83975  0.46447  1.0000
  C   C1561     1.0  0.42980  0.81043  0.43352  1.0000
  C   C1562     1.0  0.46560  0.85826  0.46608  1.0000
  H   H1266     1.0  0.44660  0.71271  0.46041  1.0000
  H   H1267     1.0  0.45761  0.90574  0.42649  1.0000
  C   C1563     1.0  0.37883  0.83494  0.47843  1.0000
  H   H1268     1.0  0.37893  0.67970  0.40879  1.0000
  H   H1269     1.0  0.43557  0.93216  0.42845  1.0000
  H   H1270     1.0  0.48349  0.98015  0.34778  1.0000
  Fe  Fe102     1.0  0.24511  0.73892  0.47996  1.0000
  H   H1271     1.0  0.26035  0.83036  0.44756  1.0000
  H   H1272     1.0  0.32012  0.81608  0.47395  1.0000
  H   H1273     1.0  0.42222  0.74861  0.44371  1.0000
  H   H1274     1.0  0.43903  0.82489  0.33722  1.0000
  H   H1275     1.0  0.35551  0.83044  0.37919  1.0000
  C   C1564     1.0  0.43217  0.97601  0.37399  1.0000
  C   C1565     1.0  0.21691  0.80950  0.42944  1.0000
  H   H1276     1.0  0.35252  0.79239  0.40979  1.0000
  C   C1566     1.0  0.48736  0.98862  0.33631  1.0000
  H   H1277     1.0  0.37064  0.74386  0.48133  1.0000
  H   H1278     1.0  0.31226  0.79985  0.45253  1.0000
  H   H1279     1.0  0.20718  0.68608  0.39472  1.0000
  C   C1567     1.0  0.27410  0.72940  0.43454  1.0000
  S   S206      1.0  0.28111  0.75811  0.47367  1.0000
  H   H1280     1.0  0.11601  0.69761  0.42037  1.0000
  C   C1568     1.0  0.28738  0.76763  0.38800  1.0000
  S   S207      1.0  0.34290  0.73091  0.37894  1.0000
  C   C1569     1.0  0.27177  0.76949  0.36754  1.0000
  C   C1570     1.0  0.32240  0.81303  0.39221  1.0000
  C   C1571     1.0  0.46115  0.79689  0.36165  1.0000
  C   C1572     1.0  0.27088  0.74654  0.42441  1.0000
  S   S208      1.0  0.20525  0.72723  0.44267  1.0000
  C   C1573     1.0  0.11165  0.78582  0.37946  1.0000
  H   H1281     1.0  0.27317  0.79688  0.45390  1.0000
  C   C1574     1.0  0.44924  0.84595  0.44248  1.0000
  C   C1575     1.0  0.28339  0.76815  0.42178  1.0000
  S   S209      1.0  0.27869  0.71229  0.40264  1.0000
  S   S210      1.0  0.33083  0.74742  0.40806  1.0000
  C   C1576     1.0  0.29854  0.77241  0.42982  1.0000
  C   C1577     1.0  0.28550  0.76158  0.37542  1.0000
  C   C1578     1.0  0.41885  0.91691  0.45128  1.0000
  C   C1579     1.0  0.32345  0.84870  0.40375  1.0000
  H   H1282     1.0  0.36006  0.88127  0.44775  1.0000
  C   C1580     1.0  0.28972  0.73370  0.44217  1.0000
  H   H1283     1.0  0.29735  0.67644  0.38666  1.0000
  C   C1581     1.0  0.13971  0.73001  0.43046  1.0000
  C   C1582     1.0  0.32932  0.68331  0.36134  1.0000
  C   C1583     1.0  0.23907  0.78357  0.42955  1.0000
  P   P52       1.0  0.35112  0.83707  0.44442  1.0000
  C   C1584     1.0  0.11459  0.76703  0.38820  1.0000
  C   C1585     1.0  0.34177  0.84865  0.39302  1.0000
  H   H1284     1.0  0.10869  0.76236  0.41762  1.0000
  H   H1285     1.0  0.12725  0.81886  0.36583  1.0000
  C   C1586     1.0  0.30460  0.83090  0.40872  1.0000
  C   C1587     1.0  0.11043  0.75364  0.43970  1.0000
  P   P53       1.0  0.27915  0.79032  0.40875  1.0000
  H   H1286     1.0  0.38993  0.84789  0.45509  1.0000
  C   C1588     1.0  0.44626  0.90387  0.43695  1.0000
  C   C1589     1.0  0.11595  0.75334  0.42510  1.0000
  C   C1590     1.0  0.11327  0.69884  0.40973  1.0000
  C   C1591     1.0  0.12953  0.80433  0.37265  1.0000
  C   C1592     1.0  0.11963  0.71898  0.38449  1.0000
  C   C1593     1.0  0.34125  0.83074  0.38735  1.0000
  C   C1594     1.0  0.18316  0.75311  0.40234  1.0000
  C   C1595     1.0  0.27566  0.78181  0.39282  1.0000
  C   C1596     1.0  0.25157  0.81827  0.41075  1.0000
  H   H1287     1.0  0.32268  0.79927  0.38774  1.0000
  H   H1288     1.0  0.29799  0.76111  0.39398  1.0000
  C   C1597     1.0  0.45737  0.89709  0.32345  1.0000
  C   C1598     1.0  0.15338  0.78531  0.38332  1.0000
  C   C1599     1.0  0.11977  0.74239  0.44961  1.0000
  H   H1289     1.0  0.11576  0.74287  0.46087  1.0000
  H   H1290     1.0  0.23015  0.83968  0.41211  1.0000
  H   H1291     1.0  0.34320  0.82212  0.41964  1.0000
  C   C1600     1.0  0.36826  0.78143  0.42628  1.0000
  H   H1292     1.0  0.24104  0.76776  0.43463  1.0000
  H   H1293     1.0  0.42684  0.96011  0.38200  1.0000
  Fe  Fe103     1.0  0.48263  0.93320  0.35461  1.0000
  H   H1294     1.0  0.35651  0.86227  0.38925  1.0000
  C   C1601     1.0  0.21259  0.74166  0.38861  1.0000
  C   C1602     1.0  0.30370  0.81313  0.40273  1.0000
  H   H1295     1.0  0.26460  0.71276  0.43633  1.0000
  C   C1603     1.0  0.26197  0.78984  0.38477  1.0000
  C   C1604     1.0  0.23913  0.69771  0.39776  1.0000
  H   H1296     1.0  0.32664  0.87039  0.43797  1.0000
  C   C1605     1.0  0.13435  0.73053  0.44499  1.0000
  C   C1606     1.0  0.33654  0.82197  0.47495  1.0000
  C   C1607     1.0  0.18669  0.70597  0.43954  1.0000
  C   C1608     1.0  0.22009  0.78926  0.43567  1.0000
  C   C1609     1.0  0.48819  0.97181  0.40357  1.0000
  H   H1297     1.0  0.27006  0.76440  0.35794  1.0000
  C   C1610     1.0  0.48415  0.86801  0.47001  1.0000
  S   S211      1.0  0.23635  0.71012  0.47124  1.0000
  S   S212      1.0  0.48283  0.94803  0.33139  1.0000
  H   H1298     1.0  0.29452  0.75044  0.37195  1.0000
  H   H1299     1.0  0.20779  0.77777  0.44521  1.0000
  Fe  Fe104     1.0  0.47473  0.93687  0.38529  1.0000
  H   H1300     1.0  0.42236  0.79671  0.43006  1.0000
  C   C1611     1.0  0.30997  0.67555  0.35754  1.0000
  H   H1301     1.0  0.15103  0.72073  0.42708  1.0000
  H   H1302     1.0  0.20218  0.81383  0.43425  1.0000
  H   H1303     1.0  0.29083  0.83098  0.41729  1.0000
  H   H1304     1.0  0.12729  0.73358  0.37540  1.0000
  H   H1305     1.0  0.45249  0.91163  0.31904  1.0000
  H   H1306     1.0  0.41048  0.76180  0.36833  1.0000
  H   H1307     1.0  0.16967  0.78546  0.38463  1.0000
  C   C1612     1.0  0.30716  0.81473  0.44941  1.0000
  Fe  Fe105     1.0  0.46344  0.89190  0.38018  1.0000
  S   S213      1.0  0.44207  0.85754  0.39267  1.0000
  C   C1613     1.0  0.42308  0.79303  0.35203  1.0000
  H   H1308     1.0  0.26349  0.82955  0.40097  1.0000
  H   H1309     1.0  0.35886  0.70936  0.35635  1.0000
  S   S214      1.0  0.45195  0.92207  0.37358  1.0000
  C   C1614     1.0  0.28488  0.81298  0.45026  1.0000
  C   C1615     1.0  0.31886  0.71013  0.33870  1.0000
  H   H1310     1.0  0.38458  0.84981  0.41549  1.0000
  S   S215      1.0  0.46472  0.95716  0.40005  1.0000
  H   H1311     1.0  0.31387  0.75843  0.44586  1.0000
  H   H1312     1.0  0.23235  0.69758  0.40890  1.0000
  C   C1616     1.0  0.36927  0.80176  0.44413  1.0000
  H   H1313     1.0  0.30787  0.78891  0.42834  1.0000
  S   S216      1.0  0.41842  0.75768  0.47171  1.0000
  H   H1314     1.0  0.41132  0.88450  0.40086  1.0000
  C   C1617     1.0  0.44521  0.71091  0.47184  1.0000
  C   C1618     1.0  0.44941  0.84026  0.47635  1.0000
  C   C1619     1.0  0.42766  0.97839  0.36048  1.0000
  C   C1620     1.0  0.46544  0.88509  0.31433  1.0000
  C   C1621     1.0  0.48331  0.84084  0.37031  1.0000
  C   C1622     1.0  0.47246  0.86681  0.32003  1.0000
  H   H1315     1.0  0.46640  0.89010  0.30283  1.0000
  P   P54       1.0  0.48264  0.83838  0.34223  1.0000
  H   H1316     1.0  0.47582  0.79807  0.36545  1.0000
  H   H1317     1.0  0.35751  0.67778  0.45382  1.0000
  H   H1318     1.0  0.32398  0.86240  0.40834  1.0000
  Fe  Fe106     1.0  0.31559  0.72034  0.39965  1.0000
  C   C1623     1.0  0.42946  0.88507  0.46265  1.0000
  C   C1624     1.0  0.25603  0.69926  0.36869  1.0000
  Fe  Fe107     1.0  0.35959  0.75610  0.38832  1.0000
  C   C1625     1.0  0.30191  0.75520  0.43981  1.0000
  C   C1626     1.0  0.27059  0.70505  0.37695  1.0000
  S   S217      1.0  0.37774  0.73435  0.39929  1.0000
  H   H1319     1.0  0.24929  0.78972  0.36612  1.0000
  S   S218      1.0  0.21459  0.68523  0.36489  1.0000
  H   H1320     1.0  0.26250  0.70011  0.35736  1.0000
  S   S219      1.0  0.34518  0.72055  0.44257  1.0000
  C   C1627     1.0  0.35793  0.81530  0.43739  1.0000
  Fe  Fe108     1.0  0.34772  0.72403  0.41861  1.0000
  H   H1321     1.0  0.31461  0.72067  0.33009  1.0000
  H   H1322     1.0  0.37317  0.69890  0.42781  1.0000
  C   C1628     1.0  0.16805  0.74219  0.39618  1.0000
  C   C1629     1.0  0.47187  0.86071  0.33486  1.0000
  C   C1630     1.0  0.36628  0.73022  0.45027  1.0000
  H   H1323     1.0  0.39381  0.73440  0.43189  1.0000
  C   C1631     1.0  0.40080  0.83185  0.37094  1.0000
  C   C1632     1.0  0.22477  0.69118  0.38973  1.0000
  C   C1633     1.0  0.42397  0.83950  0.38671  1.0000
  C   C1634     1.0  0.38881  0.73592  0.44282  1.0000
  C   C1635     1.0  0.40485  0.74409  0.44950  1.0000
  S   S220      1.0  0.49250  0.90175  0.36025  1.0000
  H   H1324     1.0  0.39659  0.78516  0.39664  1.0000
  H   H1325     1.0  0.43489  0.83241  0.47367  1.0000
  C   C1636     1.0  0.39838  0.74673  0.46356  1.0000
  C   C1637     1.0  0.41596  0.84680  0.37484  1.0000
  C   C1638     1.0  0.30477  0.68927  0.34621  1.0000
  C   C1639     1.0  0.41698  0.81720  0.39447  1.0000
  H   H1326     1.0  0.40810  0.79166  0.34856  1.0000
  H   H1327     1.0  0.20430  0.71400  0.41691  1.0000
  H   H1328     1.0  0.42110  0.86397  0.36885  1.0000
  C   C1640     1.0  0.26205  0.70440  0.39155  1.0000
  C   C1641     1.0  0.17378  0.68906  0.42200  1.0000
  C   C1642     1.0  0.36000  0.73273  0.46430  1.0000
  H   H1329     1.0  0.29243  0.72043  0.44991  1.0000
  H   H1330     1.0  0.34942  0.73346  0.33643  1.0000
  C   C1643     1.0  0.41518  0.69089  0.44997  1.0000
  C   C1644     1.0  0.40184  0.80230  0.39059  1.0000
  H   H1331     1.0  0.42330  0.81136  0.40354  1.0000
  Fe  Fe109     1.0  0.35844  0.70812  0.39164  1.0000
  C   C1645     1.0  0.48830  0.88403  0.43507  1.0000
  C   C1646     1.0  0.36982  0.86290  0.43273  1.0000
  S   S221      1.0  0.48374  0.90599  0.39352  1.0000
  S   S222      1.0  0.33004  0.69600  0.41188  1.0000
  H   H1332     1.0  0.46612  0.82376  0.45259  1.0000
  C   C1647     1.0  0.18970  0.70388  0.42536  1.0000
  C   C1648     1.0  0.39338  0.80962  0.37898  1.0000
  C   C1649     1.0  0.37590  0.74119  0.47081  1.0000
  C   C1650     1.0  0.23267  0.82403  0.41699  1.0000
  S   S223      1.0  0.37320  0.79151  0.37448  1.0000
  H   H1333     1.0  0.46107  0.86718  0.35562  1.0000
  C   C1651     1.0  0.23305  0.69213  0.37514  1.0000
  H   H1334     1.0  0.42780  0.87239  0.47240  1.0000
  C   C1652     1.0  0.36944  0.68123  0.43088  1.0000
  H   H1335     1.0  0.41497  0.70717  0.42827  1.0000
  P   P55       1.0  0.46212  0.86872  0.44818  1.0000
  C   C1653     1.0  0.33843  0.71735  0.34227  1.0000
  Fe  Fe110     1.0  0.20947  0.72413  0.46529  1.0000
  H   H1336     1.0  0.39453  0.83757  0.36180  1.0000
  H   H1337     1.0  0.48327  0.84420  0.39172  1.0000
  H   H1338     1.0  0.32678  0.76261  0.47282  1.0000
  H   H1339     1.0  0.43092  0.86376  0.43026  1.0000
  C   C1654     1.0  0.39979  0.88387  0.41096  1.0000
  H   H1340     1.0  0.28977  0.68411  0.34320  1.0000
  H   H1341     1.0  0.46581  0.83271  0.37370  1.0000
  C   C1655     1.0  0.44452  0.88703  0.44935  1.0000
  C   C1656     1.0  0.29287  0.85248  0.44226  1.0000
  C   C1657     1.0  0.40058  0.90269  0.41564  1.0000
  C   C1658     1.0  0.37452  0.78510  0.43849  1.0000
  C   C1659     1.0  0.35193  0.81184  0.42497  1.0000
  C   C1660     1.0  0.38598  0.90174  0.42879  1.0000
  H   H1342     1.0  0.40925  0.92869  0.45206  1.0000
  C   C1661     1.0  0.25497  0.79799  0.41701  1.0000
  H   H1343     1.0  0.38346  0.77509  0.44373  1.0000
  P   P56       1.0  0.13926  0.74215  0.40131  1.0000
  C   C1662     1.0  0.04544  0.00060  0.25249  1.0000
  H   H1344     1.0  0.38562  0.72940  0.70027  1.0000
  H   H1345     1.0  0.18512  0.70956  0.67766  1.0000
  H   H1346     1.0  0.02434  0.74788  0.70679  1.0000
  H   H1347     1.0  0.29970  0.70813  0.52656  1.0000
  Fe  Fe111     1.0  0.45339  0.87750  0.70798  1.0000
  H   H1348     1.0  0.04589  0.80778  0.67205  1.0000
  S   S224      1.0  0.43423  0.89799  0.69713  1.0000
  Fe  Fe112     1.0  0.41237  0.77574  0.52108  1.0000
  S   S225      1.0  0.42961  0.80364  0.52912  1.0000
  Fe  Fe113     1.0  0.36587  0.75738  0.51814  1.0000
  S   S226      1.0  0.33112  0.76143  0.52263  1.0000
  Fe  Fe114     1.0  0.39371  0.72622  0.52605  1.0000
  S   S227      1.0  0.39447  0.69325  0.53952  1.0000
  S   S228      1.0  0.38171  0.75072  0.53644  1.0000
  H   H1349     1.0  0.02012  0.78994  0.58648  1.0000
  C   C1663     1.0  0.13690  0.73965  0.52989  1.0000
  S   S229      1.0  0.47290  0.90726  0.66672  1.0000
  C   C1664     1.0  0.15337  0.69501  0.72813  1.0000
  S   S230      1.0  0.17492  0.74977  0.50783  1.0000
  H   H1350     1.0  0.04864  0.77031  0.68254  1.0000
  C   C1665     1.0  0.02216  0.67798  0.65446  1.0000
  S   S231      1.0  0.22269  0.72168  0.50247  1.0000
  C   C1666     1.0  0.03521  0.97524  0.67643  1.0000
  C   C1667     1.0  0.20990  0.70199  0.66247  1.0000
  C   C1668     1.0  0.31783  0.76180  0.50860  1.0000
  C   C1669     1.0  0.40828  0.72849  0.56772  1.0000
  S   S232      1.0  0.03173  0.75151  0.58226  1.0000
  H   H1351     1.0  0.27991  0.73010  0.53883  1.0000
  C   C1670     1.0  0.28377  0.75932  0.50120  1.0000
  C   C1671     1.0  0.29530  0.76111  0.51170  1.0000
  H   H1352     1.0  0.26626  0.75817  0.50383  1.0000
  H   H1353     1.0  0.28667  0.76194  0.52225  1.0000
  C   C1672     1.0  0.09212  0.68639  0.67700  1.0000
  C   C1673     1.0  0.08429  0.67883  0.63455  1.0000
  C   C1674     1.0  0.27979  0.71902  0.54886  1.0000
  C   C1675     1.0  0.44177  0.94398  0.65500  1.0000
  C   C1676     1.0  0.43427  0.72641  0.66263  1.0000
  C   C1677     1.0  0.44953  0.87522  0.61969  1.0000
  S   S233      1.0  0.04417  0.70314  0.60951  1.0000
  C   C1678     1.0  0.45229  0.81000  0.53669  1.0000
  C   C1679     1.0  0.45529  0.82868  0.54182  1.0000
  C   C1680     1.0  0.41877  0.75064  0.56086  1.0000
  H   H1354     1.0  0.44417  0.83900  0.54082  1.0000
  C   C1681     1.0  0.42687  0.87282  0.62495  1.0000
  C   C1682     1.0  0.41739  0.87048  0.63970  1.0000
  H   H1355     1.0  0.41648  0.87219  0.61765  1.0000
  H   H1356     1.0  0.39977  0.86810  0.64371  1.0000
  C   C1683     1.0  0.15094  0.73153  0.52067  1.0000
  C   C1684     1.0  0.40970  0.80462  0.58053  1.0000
  C   C1685     1.0  0.44409  0.82080  0.58501  1.0000
  C   C1686     1.0  0.29429  0.70517  0.49342  1.0000
  P   P57       1.0  0.25183  0.68720  0.54127  1.0000
  H   H1357     1.0  0.41243  0.84381  0.71835  1.0000
  H   H1358     1.0  0.46691  0.76928  0.57362  1.0000
  H   H1359     1.0  0.49061  0.86639  0.72428  1.0000
  C   C1687     1.0  0.03705  0.77704  0.68873  1.0000
  C   C1688     1.0  0.02204  0.96411  0.73417  1.0000
  C   C1689     1.0  0.30430  0.70916  0.50419  1.0000
  S   S234      1.0  0.41793  0.86821  0.66774  1.0000
  H   H1360     1.0  0.46997  0.83851  0.64789  1.0000
  S   S235      1.0  0.44473  0.86070  0.73204  1.0000
  H   H1361     1.0  0.10621  0.73214  0.54662  1.0000
  H   H1362     1.0  0.33883  0.70505  0.54530  1.0000
  H   H1363     1.0  0.45855  0.81953  0.58871  1.0000
  H   H1364     1.0  0.44520  0.75885  0.68863  1.0000
  C   C1690     1.0  0.42611  0.76869  0.70557  1.0000
  C   C1691     1.0  0.12898  0.68395  0.67808  1.0000
  C   C1692     1.0  0.48459  0.82051  0.69917  1.0000
  C   C1693     1.0  0.45225  0.72504  0.65220  1.0000
  C   C1694     1.0  0.45113  0.76528  0.65787  1.0000
  C   C1695     1.0  0.41031  0.73427  0.59109  1.0000
  H   H1365     1.0  0.49056  0.91632  0.59448  1.0000
  C   C1696     1.0  0.49116  0.00151  0.67186  1.0000
  H   H1366     1.0  0.47939  0.81883  0.68957  1.0000
  H   H1367     1.0  0.26385  0.69348  0.48870  1.0000
  H   H1368     1.0  0.22192  0.71750  0.66035  1.0000
  C   C1697     1.0  0.41562  0.78437  0.70904  1.0000
  C   C1698     1.0  0.10453  0.68713  0.62381  1.0000
  H   H1369     1.0  0.46566  0.73917  0.49351  1.0000
  C   C1699     1.0  0.00816  0.77300  0.71057  1.0000
  H   H1370     1.0  0.12263  0.70319  0.72833  1.0000
  Fe  Fe115     1.0  0.07967  0.70501  0.59948  1.0000
  C   C1700     1.0  0.26811  0.68289  0.56591  1.0000
  C   C1701     1.0  0.12154  0.67696  0.62470  1.0000
  H   H1371     1.0  0.39205  0.78818  0.61027  1.0000
  H   H1372     1.0  0.44686  0.82875  0.61218  1.0000
  H   H1373     1.0  0.39702  0.79044  0.58103  1.0000
  C   C1702     1.0  0.49302  0.93211  0.59658  1.0000
  H   H1374     1.0  0.45279  0.70949  0.65005  1.0000
  H   H1375     1.0  0.46539  0.81313  0.62979  1.0000
  H   H1376     1.0  0.48048  0.87813  0.62513  1.0000
  C   C1703     1.0  0.02327  0.76439  0.70249  1.0000
  C   C1704     1.0  0.29501  0.75958  0.48721  1.0000
  C   C1705     1.0  0.29152  0.70430  0.51862  1.0000
  C   C1706     1.0  0.46885  0.81658  0.71246  1.0000
  C   C1707     1.0  0.02004  0.80657  0.69065  1.0000
  H   H1377     1.0  0.20920  0.74189  0.54678  1.0000
  C   C1708     1.0  0.44288  0.96483  0.58562  1.0000
  C   C1709     1.0  0.10355  0.73122  0.50320  1.0000
  H   H1378     1.0  0.38286  0.80898  0.72619  1.0000
  C   C1710     1.0  0.47752  0.80863  0.65767  1.0000
  C   C1711     1.0  0.46892  0.76386  0.64723  1.0000
  C   C1712     1.0  0.48703  0.98090  0.66933  1.0000
  H   H1379     1.0  0.24121  0.68371  0.51421  1.0000
  S   S236      1.0  0.10842  0.70987  0.60910  1.0000
  H   H1380     1.0  0.07118  0.68672  0.63382  1.0000
  C   C1713     1.0  0.39511  0.77488  0.61775  1.0000
  C   C1714     1.0  0.32494  0.67225  0.55977  1.0000
  H   H1381     1.0  0.37501  0.74441  0.65330  1.0000
  C   C1715     1.0  0.06350  0.76977  0.60548  1.0000
  C   C1716     1.0  0.08462  0.76666  0.60199  1.0000
  C   C1717     1.0  0.09281  0.75656  0.61302  1.0000
  C   C1718     1.0  0.07992  0.74962  0.62755  1.0000
  C   C1719     1.0  0.05890  0.75332  0.63120  1.0000
  C   C1720     1.0  0.05046  0.76268  0.61998  1.0000
  P   P58       1.0  0.04197  0.74359  0.64991  1.0000
  C   C1721     1.0  0.02528  0.71656  0.65200  1.0000
  C   C1722     1.0  0.05937  0.74276  0.66209  1.0000
  C   C1723     1.0  0.05375  0.72534  0.67483  1.0000
  C   C1724     1.0  0.06683  0.72517  0.68450  1.0000
  C   C1725     1.0  0.08575  0.74233  0.68147  1.0000
  C   C1726     1.0  0.09137  0.75988  0.66887  1.0000
  C   C1727     1.0  0.07812  0.76021  0.65927  1.0000
  H   H1382     1.0  0.17701  0.72155  0.54085  1.0000
  C   C1728     1.0  0.41016  0.83190  0.72863  1.0000
  C   C1729     1.0  0.20942  0.68648  0.53833  1.0000
  H   H1383     1.0  0.39594  0.70310  0.58810  1.0000
  C   C1730     1.0  0.03496  0.69904  0.65266  1.0000
  C   C1731     1.0  0.02492  0.76098  0.65513  1.0000
  C   C1732     1.0  0.02844  0.78244  0.64646  1.0000
  C   C1733     1.0  0.49380  0.97953  0.65502  1.0000
  C   C1734     1.0  0.42926  0.69081  0.49742  1.0000
  H   H1384     1.0  0.43106  0.69106  0.69419  1.0000
  H   H1385     1.0  0.40697  0.72757  0.60273  1.0000
  H   H1386     1.0  0.05705  0.77723  0.59684  1.0000
  H   H1387     1.0  0.09438  0.77155  0.59069  1.0000
  H   H1388     1.0  0.10896  0.75358  0.61024  1.0000
  H   H1389     1.0  0.08629  0.74100  0.63580  1.0000
  H   H1390     1.0  0.03375  0.76435  0.62237  1.0000
  H   H1391     1.0  0.03933  0.71179  0.67730  1.0000
  H   H1392     1.0  0.06234  0.71147  0.69425  1.0000
  H   H1393     1.0  0.09605  0.74199  0.68888  1.0000
  H   H1394     1.0  0.10600  0.77324  0.66654  1.0000
  H   H1395     1.0  0.08249  0.77402  0.64964  1.0000
  C   C1735     1.0  0.48248  0.83117  0.65096  1.0000
  C   C1736     1.0  0.01155  0.77676  0.59634  1.0000
  C   C1737     1.0  0.13193  0.69642  0.57380  1.0000
  C   C1738     1.0  0.41576  0.74836  0.62327  1.0000
  H   H1396     1.0  0.05233  0.70159  0.65199  1.0000
  H   H1397     1.0  0.04160  0.78929  0.63641  1.0000
  H   H1398     1.0  0.00562  0.73688  0.67551  1.0000
  H   H1399     1.0  0.00064  0.99056  0.68650  1.0000
  C   C1739     1.0  0.48681  0.82086  0.55002  1.0000
  H   H1400     1.0  0.34674  0.76392  0.49183  1.0000
  S   S237      1.0  0.08223  0.72693  0.57759  1.0000
  Fe  Fe116     1.0  0.40565  0.75649  0.49553  1.0000
  H   H1401     1.0  0.41781  0.92920  0.62433  1.0000
  C   C1740     1.0  0.13545  0.69723  0.72260  1.0000
  H   H1402     1.0  0.40491  0.72734  0.64531  1.0000
  Fe  Fe117     1.0  0.04590  0.72272  0.58702  1.0000
  H   H1403     1.0  0.46378  0.87496  0.65127  1.0000
  H   H1404     1.0  0.08971  0.70482  0.65645  1.0000
  C   C1741     1.0  0.47242  0.77301  0.58268  1.0000
  C   C1742     1.0  0.00280  0.71289  0.65255  1.0000
  C   C1743     1.0  0.33045  0.68825  0.54641  1.0000
  H   H1405     1.0  0.45998  0.96534  0.58106  1.0000
  H   H1406     1.0  0.39498  0.96132  0.57577  1.0000
  H   H1407     1.0  0.35185  0.70027  0.49416  1.0000
  H   H1408     1.0  0.39422  0.82738  0.56981  1.0000
  C   C1744     1.0  0.22778  0.69780  0.54179  1.0000
  H   H1409     1.0  0.45474  0.85605  0.57821  1.0000
  H   H1410     1.0  0.32584  0.80852  0.49834  1.0000
  H   H1411     1.0  0.36328  0.81952  0.50143  1.0000
  H   H1412     1.0  0.07444  0.68173  0.68209  1.0000
  S   S238      1.0  0.39543  0.78395  0.50329  1.0000
  C   C1745     1.0  0.09449  0.70934  0.50406  1.0000
  C   C1746     1.0  0.40348  0.81140  0.64274  1.0000
  C   C1747     1.0  0.41531  0.82065  0.62805  1.0000
  H   H1413     1.0  0.38639  0.81161  0.64632  1.0000
  H   H1414     1.0  0.40753  0.82815  0.62022  1.0000
  H   H1415     1.0  0.40434  0.79513  0.66414  1.0000
  C   C1748     1.0  0.43660  0.78865  0.67984  1.0000
  C   C1749     1.0  0.40475  0.69612  0.70984  1.0000
  H   H1416     1.0  0.03878  0.92863  0.69889  1.0000
  C   C1750     1.0  0.43062  0.87138  0.64924  1.0000
  H   H1417     1.0  0.01447  0.93066  0.73311  1.0000
  C   C1751     1.0  0.43350  0.74654  0.66528  1.0000
  S   S239      1.0  0.03520  0.69379  0.57890  1.0000
  H   H1418     1.0  0.44870  0.94765  0.66360  1.0000
  P   P59       1.0  0.45424  0.96967  0.61091  1.0000
  S   S240      1.0  0.45787  0.85909  0.69125  1.0000
  H   H1419     1.0  0.40723  0.78246  0.72031  1.0000
  H   H1420     1.0  0.11925  0.69229  0.70628  1.0000
  C   C1752     1.0  0.44803  0.81233  0.63357  1.0000
  H   H1421     1.0  0.41917  0.74750  0.67307  1.0000
  C   C1753     1.0  0.42717  0.80503  0.68349  1.0000
  H   H1422     1.0  0.33117  0.69464  0.52377  1.0000
  H   H1423     1.0  0.40350  0.71772  0.56127  1.0000
  C   C1754     1.0  0.38538  0.75025  0.64214  1.0000
  C   C1755     1.0  0.47240  0.83410  0.54838  1.0000
  H   H1424     1.0  0.42814  0.81968  0.67516  1.0000
  C   C1756     1.0  0.29274  0.72664  0.55736  1.0000
  C   C1757     1.0  0.42496  0.76459  0.56908  1.0000
  P   P60       1.0  0.45012  0.79134  0.66107  1.0000
  S   S241      1.0  0.45986  0.87608  0.60133  1.0000
  H   H1425     1.0  0.30268  0.74353  0.55376  1.0000
  H   H1426     1.0  0.40909  0.81537  0.70077  1.0000
  H   H1427     1.0  0.42078  0.71193  0.66853  1.0000
  H   H1428     1.0  0.38190  0.96499  0.60069  1.0000
  S   S242      1.0  0.47307  0.95779  0.68450  1.0000
  C   C1758     1.0  0.12333  0.70463  0.65578  1.0000
  Fe  Fe118     1.0  0.48904  0.88578  0.67991  1.0000
  C   C1759     1.0  0.41647  0.80272  0.69803  1.0000
  C   C1760     1.0  0.35867  0.76664  0.70850  1.0000
  H   H1429     1.0  0.40173  0.90604  0.64978  1.0000
  H   H1430     1.0  0.41697  0.91520  0.66940  1.0000
  C   C1761     1.0  0.44206  0.84167  0.57897  1.0000
  H   H1431     1.0  0.41539  0.71020  0.71133  1.0000
  C   C1762     1.0  0.47478  0.93925  0.60219  1.0000
  C   C1763     1.0  0.10069  0.69934  0.66254  1.0000
  H   H1432     1.0  0.15742  0.71962  0.57764  1.0000
  C   C1764     1.0  0.45105  0.95717  0.64060  1.0000
  C   C1765     1.0  0.47787  0.96017  0.60434  1.0000
  C   C1766     1.0  0.22751  0.71785  0.54486  1.0000
  C   C1767     1.0  0.12550  0.69525  0.53133  1.0000
  C   C1768     1.0  0.28086  0.69059  0.57452  1.0000
  H   H1433     1.0  0.45141  0.81197  0.71324  1.0000
  C   C1769     1.0  0.42784  0.80208  0.58592  1.0000
  C   C1770     1.0  0.13355  0.69086  0.71009  1.0000
  C   C1771     1.0  0.37911  0.68671  0.48800  1.0000
  H   H1434     1.0  0.17603  0.69173  0.58685  1.0000
  C   C1772     1.0  0.00636  0.79402  0.70445  1.0000
  C   C1773     1.0  0.01415  0.75571  0.59725  1.0000
  C   C1774     1.0  0.46947  0.74380  0.64442  1.0000
  C   C1775     1.0  0.36549  0.72653  0.72184  1.0000
  H   H1435     1.0  0.36869  0.77474  0.63563  1.0000
  C   C1776     1.0  0.00832  0.75319  0.66849  1.0000
  C   C1777     1.0  0.42082  0.75660  0.58424  1.0000
  H   H1436     1.0  0.12979  0.71410  0.64440  1.0000
  C   C1778     1.0  0.42428  0.93393  0.63281  1.0000
  H   H1437     1.0  0.20940  0.67137  0.53541  1.0000
  C   C1779     1.0  0.43541  0.96622  0.59990  1.0000
  H   H1438     1.0  0.46539  0.97084  0.63813  1.0000
  S   S243      1.0  0.08598  0.68593  0.55194  1.0000
  H   H1439     1.0  0.43309  0.78168  0.56359  1.0000
  C   C1780     1.0  0.37515  0.73664  0.70683  1.0000
  H   H1440     1.0  0.49019  0.78255  0.66783  1.0000
  H   H1441     1.0  0.44024  0.70638  0.51275  1.0000
  C   C1781     1.0  0.32585  0.68246  0.53428  1.0000
  C   C1782     1.0  0.10618  0.67874  0.68474  1.0000
  H   H1442     1.0  0.32188  0.71675  0.50123  1.0000
  C   C1783     1.0  0.18907  0.69740  0.67231  1.0000
  C   C1784     1.0  0.19098  0.71477  0.54135  1.0000
  H   H1443     1.0  0.42288  0.86029  0.56864  1.0000
  C   C1785     1.0  0.20915  0.72622  0.54469  1.0000
  H   H1444     1.0  0.42217  0.75709  0.54913  1.0000
  S   S244      1.0  0.37496  0.73043  0.50939  1.0000
  H   H1445     1.0  0.36735  0.68111  0.52039  1.0000
  C   C1786     1.0  0.39889  0.96481  0.59652  1.0000
  C   C1787     1.0  0.39347  0.81224  0.73307  1.0000
  C   C1788     1.0  0.38177  0.76729  0.63217  1.0000
  H   H1446     1.0  0.45515  0.78543  0.61455  1.0000
  C   C1789     1.0  0.48832  0.78503  0.60495  1.0000
  C   C1790     1.0  0.42409  0.84406  0.57355  1.0000
  C   C1791     1.0  0.36085  0.82376  0.49063  1.0000
  C   C1792     1.0  0.41346  0.96672  0.60516  1.0000
  S   S245      1.0  0.48613  0.90246  0.69758  1.0000
  P   P61       1.0  0.42949  0.77500  0.59455  1.0000
  C   C1793     1.0  0.32923  0.76266  0.49448  1.0000
  C   C1794     1.0  0.03548  0.79814  0.68282  1.0000
  C   C1795     1.0  0.46293  0.87619  0.62915  1.0000
  H   H1447     1.0  0.48235  0.77827  0.64104  1.0000
  C   C1796     1.0  0.40795  0.82553  0.57427  1.0000
  S   S246      1.0  0.42544  0.75073  0.51179  1.0000
  C   C1797     1.0  0.26858  0.69500  0.52250  1.0000
  Fe  Fe119     1.0  0.07128  0.69587  0.57174  1.0000
  C   C1798     1.0  0.11717  0.72564  0.53978  1.0000
  H   H1448     1.0  0.01670  0.81143  0.64354  1.0000
  H   H1449     1.0  0.33935  0.76464  0.72999  1.0000
  H   H1450     1.0  0.35640  0.78237  0.70348  1.0000
  C   C1799     1.0  0.41516  0.92066  0.64720  1.0000
  C   C1800     1.0  0.12307  0.67444  0.57487  1.0000
  Fe  Fe120     1.0  0.44165  0.88160  0.67937  1.0000
  C   C1801     1.0  0.43640  0.80334  0.64839  1.0000
  Fe  Fe121     1.0  0.19673  0.73461  0.49419  1.0000
  H   H1451     1.0  0.17735  0.68659  0.53504  1.0000
  H   H1452     1.0  0.32527  0.69337  0.73010  1.0000
  H   H1453     1.0  0.24143  0.72733  0.54720  1.0000
  Fe  Fe122     1.0  0.46751  0.92193  0.68532  1.0000
  C   C1802     1.0  0.05115  0.96124  0.70027  1.0000
  H   H1454     1.0  0.45832  0.92855  0.60463  1.0000
  C   C1803     1.0  0.41386  0.80240  0.65286  1.0000
  H   H1455     1.0  0.03736  0.76723  0.72746  1.0000
  H   H1456     1.0  0.48331  0.74283  0.63619  1.0000
  H   H1457     1.0  0.47449  0.84860  0.55214  1.0000
  H   H1458     1.0  0.12395  0.70863  0.56961  1.0000
  H   H1459     1.0  0.12110  0.67810  0.53181  1.0000
  H   H1460     1.0  0.30351  0.71834  0.57670  1.0000
  C   C1804     1.0  0.44192  0.95269  0.62948  1.0000
  C   C1805     1.0  0.25876  0.69090  0.51160  1.0000
  C   C1806     1.0  0.42382  0.92575  0.65830  1.0000
  H   H1461     1.0  0.00555  0.72262  0.61095  1.0000
  C   C1807     1.0  0.33972  0.81752  0.48889  1.0000
  C   C1808     1.0  0.04105  0.94595  0.69412  1.0000
  H   H1462     1.0  0.07756  0.70164  0.51045  1.0000
  C   C1809     1.0  0.43673  0.77089  0.69105  1.0000
  C   C1810     1.0  0.14538  0.70921  0.52158  1.0000
  C   C1811     1.0  0.27154  0.69618  0.49713  1.0000
  C   C1812     1.0  0.35228  0.73665  0.73005  1.0000
  C   C1813     1.0  0.45348  0.87449  0.64393  1.0000
  C   C1814     1.0  0.45784  0.77628  0.59443  1.0000
  H   H1463     1.0  0.02511  0.94105  0.67753  1.0000
  H   H1464     1.0  0.42611  0.75494  0.71419  1.0000
  C   C1815     1.0  0.40626  0.96279  0.58247  1.0000
  C   C1816     1.0  0.11130  0.70348  0.54038  1.0000
  C   C1817     1.0  0.43752  0.82097  0.62348  1.0000
  H   H1465     1.0  0.15617  0.70277  0.51462  1.0000
  C   C1818     1.0  0.10736  0.69779  0.49690  1.0000
  H   H1466     1.0  0.47185  0.83569  0.50494  1.0000
  H   H1467     1.0  0.14115  0.75689  0.52923  1.0000
  C   C1819     1.0  0.46699  0.79696  0.53804  1.0000
  C   C1820     1.0  0.16773  0.68021  0.70860  1.0000
  C   C1821     1.0  0.15088  0.70261  0.57825  1.0000
  H   H1468     1.0  0.46509  0.78261  0.53411  1.0000
  H   H1469     1.0  0.01842  0.82275  0.68600  1.0000
  H   H1470     1.0  0.39111  0.70089  0.48825  1.0000
  H   H1471     1.0  0.00834  0.79657  0.73495  1.0000
  H   H1472     1.0  0.48991  0.90264  0.72748  1.0000
  C   C1822     1.0  0.37166  0.75659  0.70019  1.0000
  H   H1473     1.0  0.09391  0.73972  0.50931  1.0000
  C   C1823     1.0  0.48406  0.80236  0.54466  1.0000
  C   C1824     1.0  0.19112  0.69493  0.53817  1.0000
  C   C1825     1.0  0.01064  0.94626  0.73045  1.0000
  H   H1474     1.0  0.37943  0.76457  0.68869  1.0000
  C   C1826     1.0  0.29329  0.71243  0.57020  1.0000
  C   C1827     1.0  0.46594  0.78220  0.60562  1.0000
  C   C1828     1.0  0.41221  0.76546  0.61318  1.0000
  C   C1829     1.0  0.40230  0.74073  0.63766  1.0000
  C   C1830     1.0  0.01751  0.98455  0.73057  1.0000
  H   H1475     1.0  0.00148  0.68322  0.56311  1.0000
  C   C1831     1.0  0.13746  0.69701  0.66349  1.0000
  C   C1832     1.0  0.01461  0.79530  0.65062  1.0000
  C   C1833     1.0  0.38236  0.68846  0.71786  1.0000
  H   H1476     1.0  0.42888  0.74087  0.61997  1.0000
  C   C1834     1.0  0.49386  0.79979  0.66224  1.0000
  C   C1835     1.0  0.40403  0.72030  0.58284  1.0000
  C   C1836     1.0  0.03320  0.95297  0.68214  1.0000
  C   C1837     1.0  0.44191  0.70755  0.50131  1.0000
  H   H1477     1.0  0.18309  0.68430  0.72570  1.0000
  C   C1838     1.0  0.47020  0.84199  0.49409  1.0000
  C   C1839     1.0  0.26748  0.69708  0.55294  1.0000
  C   C1840     1.0  0.47551  0.81990  0.72463  1.0000
  C   C1841     1.0  0.12894  0.70897  0.48820  1.0000
  P   P62       1.0  0.37141  0.70188  0.73097  1.0000
  C   C1842     1.0  0.42827  0.96290  0.57700  1.0000
  C   C1843     1.0  0.14969  0.68227  0.70297  1.0000
  C   C1844     1.0  0.45619  0.72598  0.49049  1.0000
  C   C1845     1.0  0.34895  0.75663  0.72341  1.0000
  H   H1478     1.0  0.49062  0.96369  0.65297  1.0000
  P   P63       1.0  0.14647  0.67171  0.68772  1.0000
  Fe  Fe123     1.0  0.21167  0.69409  0.49318  1.0000
  H   H1479     1.0  0.43409  0.96160  0.56606  1.0000
  C   C1846     1.0  0.12527  0.74195  0.49487  1.0000
  H   H1480     1.0  0.05686  0.95575  0.70974  1.0000
  H   H1481     1.0  0.43929  0.81826  0.49808  1.0000
  C   C1847     1.0  0.04489  0.99070  0.68276  1.0000
  H   H1482     1.0  0.40763  0.96857  0.61596  1.0000
  C   C1848     1.0  0.00315  0.73874  0.61008  1.0000
  C   C1849     1.0  0.05300  0.98350  0.69469  1.0000
  H   H1483     1.0  0.02877  0.98036  0.66726  1.0000
  C   C1850     1.0  0.49806  0.82677  0.72370  1.0000
  C   C1851     1.0  0.13785  0.73091  0.48723  1.0000
  S   S247      1.0  0.07132  0.67425  0.59302  1.0000
  C   C1852     1.0  0.41367  0.68536  0.70009  1.0000
  C   C1853     1.0  0.35678  0.68652  0.49132  1.0000
  C   C1854     1.0  0.45178  0.83217  0.49024  1.0000
  H   H1484     1.0  0.28138  0.67956  0.58443  1.0000
  C   C1855     1.0  0.36899  0.67001  0.71587  1.0000
  C   C1856     1.0  0.16123  0.68684  0.58352  1.0000
  H   H1485     1.0  0.00448  0.70277  0.69372  1.0000
  H   H1486     1.0  0.41807  0.67673  0.50595  1.0000
  C   C1857     1.0  0.46240  0.99871  0.60897  1.0000
  C   C1858     1.0  0.00164  0.98715  0.72307  1.0000
  H   H1487     1.0  0.44528  0.99687  0.63114  1.0000
  C   C1859     1.0  0.16954  0.68656  0.72112  1.0000
  H   H1488     1.0  0.13260  0.75864  0.49466  1.0000
  C   C1860     1.0  0.49943  0.97332  0.60144  1.0000
  Fe  Fe124     1.0  0.49477  0.87495  0.59184  1.0000
  H   H1489     1.0  0.15482  0.70088  0.65785  1.0000
  H   H1490     1.0  0.49521  0.79209  0.54569  1.0000
  H   H1491     1.0  0.06047  0.99476  0.69994  1.0000
  H   H1492     1.0  0.13724  0.68346  0.61641  1.0000
  H   H1493     1.0  0.23134  0.69017  0.64773  1.0000
  C   C1861     1.0  0.49839  0.89282  0.73357  1.0000
  C   C1862     1.0  0.21520  0.68659  0.65535  1.0000
  S   S248      1.0  0.18399  0.70574  0.48652  1.0000
  Fe  Fe125     1.0  0.03608  0.67434  0.60061  1.0000
  C   C1863     1.0  0.49475  0.77569  0.58211  1.0000
  C   C1864     1.0  0.00105  0.66873  0.69482  1.0000
  H   H1494     1.0  0.49475  0.79060  0.61321  1.0000
  C   C1865     1.0  0.17344  0.67730  0.67518  1.0000
  H   H1495     1.0  0.32901  0.67693  0.56900  1.0000
  H   H1496     1.0  0.18007  0.67302  0.70362  1.0000
  C   C1866     1.0  0.49851  0.87204  0.73194  1.0000
  P   P64       1.0  0.09630  0.66924  0.49816  1.0000
  C   C1867     1.0  0.34093  0.66894  0.49055  1.0000
  H   H1497     1.0  0.32364  0.66892  0.49282  1.0000
  H   H1498     1.0  0.10856  0.67003  0.57121  1.0000
  H   H1499     1.0  0.08224  0.66967  0.52848  1.0000
  H   H1500     1.0  0.46297  0.81758  0.73465  1.0000
  C   C1868     1.0  0.13801  0.69029  0.88887  1.0000
  S   S249      1.0  0.04416  0.72066  0.93926  1.0000
  C   C1869     1.0  0.13506  0.80450  0.97529  1.0000
  H   H1501     1.0  0.43694  0.72291  0.76012  1.0000
  C   C1870     1.0  0.02118  0.86764  0.98179  1.0000
  C   C1871     1.0  0.40460  0.78480  0.94952  1.0000
  C   C1872     1.0  0.39230  0.70876  0.74011  1.0000
  H   H1502     1.0  0.43784  0.77051  0.78777  1.0000
  C   C1873     1.0  0.37357  0.75285  0.96162  1.0000
  C   C1874     1.0  0.10560  0.74675  0.92400  1.0000
  H   H1503     1.0  0.13122  0.80100  0.91544  1.0000
  H   H1504     1.0  0.45639  0.75769  0.76759  1.0000
  H   H1505     1.0  0.03814  0.78837  0.88531  1.0000
  C   C1875     1.0  0.34607  0.68346  0.74364  1.0000
  C   C1876     1.0  0.39982  0.69490  0.82340  1.0000
  H   H1506     1.0  0.49117  0.85517  0.93708  1.0000
  H   H1507     1.0  0.21881  0.67858  0.78865  1.0000
  S   S250      1.0  0.20773  0.70294  0.84737  1.0000
  H   H1508     1.0  0.09926  0.73438  0.91906  1.0000
  C   C1877     1.0  0.12128  0.77854  0.93705  1.0000
  H   H1509     1.0  0.03869  0.81020  0.96571  1.0000
  H   H1510     1.0  0.12730  0.71062  0.92506  1.0000
  Fe  Fe126     1.0  0.32710  0.71039  0.79265  1.0000
  S   S251      1.0  0.34649  0.70042  0.80834  1.0000
  S   S252      1.0  0.29022  0.69608  0.79875  1.0000
  Fe  Fe127     1.0  0.36583  0.74689  0.77215  1.0000
  S   S253      1.0  0.38893  0.74092  0.78592  1.0000
  Fe  Fe128     1.0  0.37384  0.70538  0.78837  1.0000
  S   S254      1.0  0.39834  0.68532  0.78805  1.0000
  Fe  Fe129     1.0  0.36022  0.73623  0.80513  1.0000
  S   S255      1.0  0.35881  0.74808  0.82528  1.0000
  S   S256      1.0  0.35319  0.71166  0.77291  1.0000
  S   S257      1.0  0.33857  0.74583  0.79101  1.0000
  S   S258      1.0  0.22119  0.71648  0.88162  1.0000
  Fe  Fe130     1.0  0.24441  0.69721  0.88835  1.0000
  S   S259      1.0  0.28142  0.71111  0.88380  1.0000
  Fe  Fe131     1.0  0.37970  0.74831  0.91249  1.0000
  S   S260      1.0  0.39075  0.72538  0.90022  1.0000
  S   S261      1.0  0.34313  0.74576  0.92109  1.0000
  Fe  Fe132     1.0  0.42742  0.77135  0.91250  1.0000
  S   S262      1.0  0.44162  0.75019  0.89969  1.0000
  S   S263      1.0  0.44797  0.80018  0.91879  1.0000
  Fe  Fe133     1.0  0.41776  0.75518  0.88620  1.0000
  S   S264      1.0  0.42873  0.76006  0.86168  1.0000
  Fe  Fe134     1.0  0.41330  0.72195  0.91455  1.0000
  S   S265      1.0  0.42030  0.69055  0.92550  1.0000
  S   S266      1.0  0.40550  0.77866  0.89763  1.0000
  S   S267      1.0  0.40017  0.74249  0.92818  1.0000
  C   C1878     1.0  0.29778  0.71995  0.89481  1.0000
  C   C1879     1.0  0.32066  0.72835  0.88851  1.0000
  C   C1880     1.0  0.33460  0.73583  0.89660  1.0000
  C   C1881     1.0  0.32577  0.73533  0.91107  1.0000
  C   C1882     1.0  0.30283  0.72698  0.91744  1.0000
  C   C1883     1.0  0.28888  0.71906  0.90938  1.0000
  H   H1511     1.0  0.32763  0.72914  0.87724  1.0000
  H   H1512     1.0  0.35216  0.74244  0.89154  1.0000
  H   H1513     1.0  0.29586  0.72647  0.92865  1.0000
  H   H1514     1.0  0.27131  0.71231  0.91439  1.0000
  C   C1884     1.0  0.40410  0.80098  0.75528  1.0000
  H   H1515     1.0  0.40190  0.78902  0.76551  1.0000
  H   H1516     1.0  0.13045  0.81911  0.97682  1.0000
  C   C1885     1.0  0.40879  0.75423  0.85218  1.0000
  C   C1886     1.0  0.41543  0.75194  0.83804  1.0000
  C   C1887     1.0  0.40010  0.74893  0.82986  1.0000
  C   C1888     1.0  0.37809  0.74852  0.83571  1.0000
  C   C1889     1.0  0.37139  0.75016  0.84999  1.0000
  C   C1890     1.0  0.38660  0.75283  0.85823  1.0000
  H   H1517     1.0  0.43257  0.75291  0.83331  1.0000
  H   H1518     1.0  0.40546  0.74774  0.81887  1.0000
  H   H1519     1.0  0.35442  0.74977  0.85462  1.0000
  H   H1520     1.0  0.38134  0.75462  0.86907  1.0000
  H   H1521     1.0  0.25777  0.86788  0.85597  1.0000
  H   H1522     1.0  0.45559  0.76310  0.97609  1.0000
  P   P65       1.0  0.02880  0.99683  0.78736  1.0000
  H   H1523     1.0  0.04090  0.89621  0.96427  1.0000
  H   H1524     1.0  0.38963  0.74179  0.73881  1.0000
  C   C1891     1.0  0.01104  0.98127  0.85898  1.0000
  S   S268      1.0  0.01207  0.68363  0.98036  1.0000
  H   H1525     1.0  0.45028  0.69738  0.97357  1.0000
  H   H1526     1.0  0.46694  0.71178  0.89139  1.0000
  C   C1892     1.0  0.22425  0.74052  0.91557  1.0000
  P   P66       1.0  0.10786  0.74923  0.96513  1.0000
  H   H1527     1.0  0.44951  0.80945  0.78728  1.0000
  C   C1893     1.0  0.25056  0.68740  0.79267  1.0000
  C   C1894     1.0  0.22840  0.75005  0.78253  1.0000
  C   C1895     1.0  0.47894  0.78943  0.75578  1.0000
  H   H1528     1.0  0.02981  0.95559  0.77947  1.0000
  C   C1896     1.0  0.28250  0.69798  0.77172  1.0000
  C   C1897     1.0  0.27358  0.69388  0.78675  1.0000
  C   C1898     1.0  0.04050  0.73952  0.97577  1.0000
  H   H1529     1.0  0.41162  0.67965  0.95842  1.0000
  H   H1530     1.0  0.27516  0.69809  0.75117  1.0000
  H   H1531     1.0  0.30023  0.70328  0.76703  1.0000
  H   H1532     1.0  0.28080  0.67999  0.84205  1.0000
  C   C1899     1.0  0.32536  0.82812  0.89944  1.0000
  H   H1533     1.0  0.42121  0.79426  0.94825  1.0000
  C   C1900     1.0  0.41362  0.68514  0.84452  1.0000
  C   C1901     1.0  0.47269  0.83076  0.92911  1.0000
  C   C1902     1.0  0.46717  0.80871  0.92882  1.0000
  C   C1903     1.0  0.47689  0.79432  0.93656  1.0000
  C   C1904     1.0  0.43522  0.81452  0.97886  1.0000
  C   C1905     1.0  0.23650  0.68368  0.78387  1.0000
  C   C1906     1.0  0.33075  0.68193  0.84814  1.0000
  H   H1534     1.0  0.47350  0.77751  0.93628  1.0000
  C   C1907     1.0  0.32592  0.68267  0.74012  1.0000
  H   H1535     1.0  0.12741  0.79111  0.94185  1.0000
  C   C1908     1.0  0.01212  0.98073  0.77876  1.0000
  C   C1909     1.0  0.11560  0.76836  0.91552  1.0000
  C   C1910     1.0  0.24507  0.74408  0.91807  1.0000
  C   C1911     1.0  0.30807  0.82133  0.89354  1.0000
  H   H1536     1.0  0.42791  0.71884  0.98511  1.0000
  C   C1912     1.0  0.12203  0.68193  0.97883  1.0000
  H   H1537     1.0  0.21689  0.74642  0.77625  1.0000
  H   H1538     1.0  0.03071  0.68208  0.92470  1.0000
  C   C1913     1.0  0.03094  0.97631  0.85996  1.0000
  H   H1539     1.0  0.36567  0.73741  0.96985  1.0000
  H   H1540     1.0  0.03289  0.96026  0.85974  1.0000
  C   C1914     1.0  0.06391  0.98987  0.79863  1.0000
  H   H1541     1.0  0.24883  0.73048  0.77459  1.0000
  H   H1542     1.0  0.03492  0.72943  0.91136  1.0000
  C   C1915     1.0  0.19111  0.68527  0.84029  1.0000
  C   C1916     1.0  0.35707  0.69180  0.88180  1.0000
  C   C1917     1.0  0.11125  0.75681  0.94565  1.0000
  H   H1543     1.0  0.18391  0.68089  0.80737  1.0000
  C   C1918     1.0  0.46181  0.77466  0.76744  1.0000
  C   C1919     1.0  0.00371  0.99705  0.81454  1.0000
  C   C1920     1.0  0.44569  0.71039  0.96685  1.0000
  S   S269      1.0  0.37092  0.77149  0.75066  1.0000
  C   C1921     1.0  0.12068  0.78866  0.97168  1.0000
  C   C1922     1.0  0.42824  0.68322  0.87172  1.0000
  C   C1923     1.0  0.44853  0.68105  0.89004  1.0000
  C   C1924     1.0  0.02914  0.72515  0.75753  1.0000
  H   H1544     1.0  0.34868  0.78569  0.89933  1.0000
  H   H1545     1.0  0.40473  0.79737  0.97626  1.0000
  H   H1546     1.0  0.29703  0.83156  0.89194  1.0000
  C   C1925     1.0  0.42364  0.83629  0.73760  1.0000
  H   H1547     1.0  0.28550  0.66994  0.87697  1.0000
  C   C1926     1.0  0.02094  0.78582  0.89090  1.0000
  C   C1927     1.0  0.45132  0.78186  0.77882  1.0000
  C   C1928     1.0  0.46342  0.79505  0.97907  1.0000
  C   C1929     1.0  0.08261  0.68531  0.90517  1.0000
  H   H1548     1.0  0.00106  0.84461  0.82311  1.0000
  P   P67       1.0  0.28368  0.79294  0.88151  1.0000
  C   C1930     1.0  0.26831  0.69488  0.76279  1.0000
  C   C1931     1.0  0.42047  0.82095  0.75100  1.0000
  C   C1932     1.0  0.39635  0.66928  0.96630  1.0000
  S   S270      1.0  0.17114  0.70684  0.91451  1.0000
  C   C1933     1.0  0.13329  0.69635  0.96503  1.0000
  H   H1549     1.0  0.25122  0.81473  0.89313  1.0000
  C   C1934     1.0  0.26307  0.76015  0.90788  1.0000
  C   C1935     1.0  0.43439  0.67077  0.88313  1.0000
  H   H1550     1.0  0.14463  0.69132  0.95734  1.0000
  H   H1551     1.0  0.31946  0.75129  0.84051  1.0000
  H   H1552     1.0  0.15437  0.69911  0.73815  1.0000
  C   C1936     1.0  0.43468  0.74447  0.94941  1.0000
  S   S271      1.0  0.22765  0.68224  0.75784  1.0000
  C   C1937     1.0  0.27498  0.81624  0.87323  1.0000
  C   C1938     1.0  0.45794  0.80382  0.77856  1.0000
  C   C1939     1.0  0.03167  0.87918  0.96717  1.0000
  H   H1553     1.0  0.43089  0.82440  0.75796  1.0000
  H   H1554     1.0  0.26405  0.75566  0.87162  1.0000
  H   H1555     1.0  0.35350  0.82055  0.90600  1.0000
  C   C1940     1.0  0.25884  0.82337  0.88168  1.0000
  C   C1941     1.0  0.31232  0.76012  0.84751  1.0000
  H   H1556     1.0  0.09074  0.98485  0.80767  1.0000
  H   H1557     1.0  0.06425  0.98908  0.86095  1.0000
  H   H1558     1.0  0.43140  0.75814  0.94244  1.0000
  C   C1942     1.0  0.13713  0.00130  0.78992  1.0000
  Fe  Fe135     1.0  0.03857  0.69282  0.95924  1.0000
  H   H1559     1.0  0.09344  0.68461  0.94304  1.0000
  H   H1560     1.0  0.27912  0.76221  0.90992  1.0000
  C   C1943     1.0  0.30532  0.80158  0.88971  1.0000
  C   C1944     1.0  0.28108  0.76269  0.86527  1.0000
  H   H1561     1.0  0.38623  0.69396  0.81850  1.0000
  H   H1562     1.0  0.40151  0.80696  0.93058  1.0000
  H   H1563     1.0  0.39930  0.67707  0.74350  1.0000
  C   C1945     1.0  0.03025  0.86874  0.95626  1.0000
  C   C1946     1.0  0.37234  0.77983  0.94044  1.0000
  H   H1564     1.0  0.27988  0.73788  0.85391  1.0000
  H   H1565     1.0  0.34301  0.78420  0.84336  1.0000
  C   C1947     1.0  0.39488  0.76502  0.96064  1.0000
  C   C1948     1.0  0.31566  0.68483  0.85969  1.0000
  C   C1949     1.0  0.10352  0.74097  0.93897  1.0000
  C   C1950     1.0  0.12927  0.71688  0.96092  1.0000
  H   H1566     1.0  0.29794  0.82334  0.85187  1.0000
  C   C1951     1.0  0.33730  0.79562  0.89778  1.0000
  Fe  Fe136     1.0  0.19553  0.69296  0.90151  1.0000
  H   H1567     1.0  0.09557  0.72414  0.94534  1.0000
  C   C1952     1.0  0.47503  0.81865  0.76691  1.0000
  C   C1953     1.0  0.04251  0.98055  0.79803  1.0000
  C   C1954     1.0  0.03166  0.95881  0.80629  1.0000
  C   C1955     1.0  0.04226  0.94652  0.81469  1.0000
  C   C1956     1.0  0.06354  0.95586  0.81517  1.0000
  C   C1957     1.0  0.07435  0.97754  0.80715  1.0000
  H   H1568     1.0  0.46551  0.84222  0.92319  1.0000
  H   H1569     1.0  0.31798  0.77325  0.88932  1.0000
  H   H1570     1.0  0.13788  0.72757  0.95006  1.0000
  H   H1571     1.0  0.24344  0.68525  0.80415  1.0000
  H   H1572     1.0  0.24740  0.73400  0.92776  1.0000
  C   C1958     1.0  0.14715  0.68776  0.92684  1.0000
  C   C1959     1.0  0.48739  0.83823  0.93699  1.0000
  C   C1960     1.0  0.12347  0.78425  0.92203  1.0000
  H   H1573     1.0  0.24573  0.68472  0.83666  1.0000
  C   C1961     1.0  0.36239  0.76027  0.95156  1.0000
  H   H1574     1.0  0.27451  0.73750  0.78943  1.0000
  H   H1575     1.0  0.37934  0.67498  0.84448  1.0000
  H   H1576     1.0  0.03325  0.76309  0.94129  1.0000
  H   H1577     1.0  0.03392  0.92968  0.82084  1.0000
  H   H1578     1.0  0.07153  0.94628  0.82184  1.0000
  H   H1579     1.0  0.05516  0.99854  0.75856  1.0000
  H   H1580     1.0  0.32240  0.67481  0.89008  1.0000
  C   C1962     1.0  0.22135  0.75313  0.90290  1.0000
  H   H1581     1.0  0.20884  0.70294  0.81791  1.0000
  C   C1963     1.0  0.34001  0.81530  0.90151  1.0000
  C   C1964     1.0  0.10850  0.67959  0.94059  1.0000
  H   H1582     1.0  0.46196  0.70539  0.94656  1.0000
  Fe  Fe137     1.0  0.21092  0.69145  0.87021  1.0000
  C   C1965     1.0  0.31673  0.78895  0.85930  1.0000
  H   H1583     1.0  0.05633  0.79116  0.94915  1.0000
  C   C1966     1.0  0.37825  0.69045  0.87557  1.0000
  H   H1584     1.0  0.23690  0.77826  0.88268  1.0000
  S   S272      1.0  0.06533  0.68911  0.97001  1.0000
  C   C1967     1.0  0.07958  0.74696  0.97461  1.0000
  C   C1968     1.0  0.23931  0.76915  0.89265  1.0000
  C   C1969     1.0  0.12762  0.69425  0.93033  1.0000
  C   C1970     1.0  0.45246  0.71498  0.95166  1.0000
  H   H1585     1.0  0.06575  0.74096  0.95712  1.0000
  S   S273      1.0  0.00359  0.89886  0.81286  1.0000
  C   C1971     1.0  0.18088  0.67717  0.81909  1.0000
  H   H1586     1.0  0.42397  0.71472  0.80342  1.0000
  C   C1972     1.0  0.34233  0.68603  0.93183  1.0000
  H   H1587     1.0  0.24002  0.84719  0.88200  1.0000
  C   C1973     1.0  0.44703  0.73208  0.94295  1.0000
  H   H1588     1.0  0.28690  0.85594  0.84106  1.0000
  H   H1589     1.0  0.02732  0.73530  0.97080  1.0000
  C   C1974     1.0  0.26033  0.77282  0.89508  1.0000
  C   C1975     1.0  0.26254  0.85348  0.86078  1.0000
  H   H1590     1.0  0.32751  0.84338  0.90234  1.0000
  C   C1976     1.0  0.28999  0.75252  0.85515  1.0000
  C   C1977     1.0  0.29447  0.78077  0.86761  1.0000
  C   C1978     1.0  0.06245  0.74263  0.96804  1.0000
  S   S274      1.0  0.18394  0.66920  0.88956  1.0000
  H   H1591     1.0  0.45265  0.67138  0.89911  1.0000
  P   P68       1.0  0.40868  0.67022  0.86340  1.0000
  C   C1979     1.0  0.39340  0.79213  0.93947  1.0000
  C   C1980     1.0  0.02552  0.77167  0.94838  1.0000
  P   P69       1.0  0.41028  0.75495  0.97291  1.0000
  C   C1981     1.0  0.11383  0.72309  0.97062  1.0000
  H   H1592     1.0  0.45241  0.73580  0.93115  1.0000
  C   C1982     1.0  0.32562  0.77855  0.84933  1.0000
  C   C1983     1.0  0.26175  0.80789  0.83164  1.0000
  C   C1984     1.0  0.24718  0.79475  0.84502  1.0000
  C   C1985     1.0  0.24128  0.77199  0.84781  1.0000
  C   C1986     1.0  0.25018  0.76233  0.83733  1.0000
  C   C1987     1.0  0.26526  0.77539  0.82399  1.0000
  C   C1988     1.0  0.27064  0.79827  0.82112  1.0000
  P   P70       1.0  0.27644  0.76305  0.81025  1.0000
  C   C1989     1.0  0.27845  0.73649  0.81950  1.0000
  C   C1990     1.0  0.25792  0.75870  0.79911  1.0000
  C   C1991     1.0  0.23991  0.76789  0.79992  1.0000
  C   C1992     1.0  0.22517  0.76350  0.79167  1.0000
  C   C1993     1.0  0.26094  0.74510  0.78998  1.0000
  C   C1994     1.0  0.25976  0.71847  0.82437  1.0000
  C   C1995     1.0  0.26049  0.69827  0.83268  1.0000
  C   C1996     1.0  0.28012  0.69569  0.83579  1.0000
  C   C1997     1.0  0.29896  0.71340  0.83060  1.0000
  C   C1998     1.0  0.29812  0.73369  0.82254  1.0000
  C   C1999     1.0  0.30359  0.78022  0.79931  1.0000
  C   C2000     1.0  0.30996  0.78435  0.78405  1.0000
  C   C2001     1.0  0.33142  0.79658  0.77586  1.0000
  C   C2002     1.0  0.34665  0.80486  0.78280  1.0000
  C   C2003     1.0  0.34035  0.80119  0.79794  1.0000
  C   C2004     1.0  0.31888  0.78908  0.80615  1.0000
  H   H1593     1.0  0.26608  0.82553  0.82936  1.0000
  H   H1594     1.0  0.24032  0.80218  0.85318  1.0000
  H   H1595     1.0  0.22979  0.76168  0.85808  1.0000
  H   H1596     1.0  0.24520  0.74467  0.83977  1.0000
  H   H1597     1.0  0.28169  0.80869  0.81074  1.0000
  H   H1598     1.0  0.23699  0.77812  0.80706  1.0000
  H   H1599     1.0  0.21110  0.77033  0.79248  1.0000
  H   H1600     1.0  0.24444  0.72009  0.82201  1.0000
  C   C2005     1.0  0.42118  0.70660  0.81488  1.0000
  H   H1601     1.0  0.34630  0.75050  0.95199  1.0000
  H   H1602     1.0  0.31435  0.71159  0.83274  1.0000
  H   H1603     1.0  0.31295  0.74700  0.81876  1.0000
  H   H1604     1.0  0.29873  0.77772  0.77842  1.0000
  H   H1605     1.0  0.33655  0.79898  0.76417  1.0000
  H   H1606     1.0  0.36346  0.81373  0.77646  1.0000
  H   H1607     1.0  0.35231  0.80718  0.80336  1.0000
  H   H1608     1.0  0.31445  0.78597  0.81790  1.0000
  H   H1609     1.0  0.31860  0.70019  0.86250  1.0000
  H   H1610     1.0  0.43157  0.71626  0.85898  1.0000
  H   H1611     1.0  0.34548  0.69510  0.84202  1.0000
  C   C2006     1.0  0.49136  0.80171  0.94456  1.0000
  H   H1612     1.0  0.00669  0.93399  0.76797  1.0000
  H   H1613     1.0  0.41777  0.75067  0.75137  1.0000
  H   H1614     1.0  0.06810  0.70757  0.91487  1.0000
  C   C2007     1.0  0.45073  0.71631  0.87432  1.0000
  C   C2008     1.0  0.45659  0.70381  0.88570  1.0000
  H   H1615     1.0  0.34777  0.67996  0.95296  1.0000
  C   C2009     1.0  0.44946  0.77713  0.97707  1.0000
  S   S275      1.0  0.21959  0.67574  0.90926  1.0000
  S   S276      1.0  0.16266  0.66911  0.77657  1.0000
  H   H1616     1.0  0.11718  0.77275  0.90391  1.0000
  H   H1617     1.0  0.21041  0.72769  0.92329  1.0000
  C   C2010     1.0  0.01952  0.72538  0.91979  1.0000
  H   H1618     1.0  0.03821  0.71788  0.76453  1.0000
  C   C2011     1.0  0.00631  0.71656  0.76066  1.0000
  C   C2012     1.0  0.19500  0.68966  0.82510  1.0000
  C   C2013     1.0  0.43650  0.70613  0.86742  1.0000
  C   C2014     1.0  0.43884  0.70752  0.82109  1.0000
  H   H1619     1.0  0.11850  0.67732  0.86128  1.0000
  H   H1620     1.0  0.36398  0.78507  0.93233  1.0000
  H   H1621     1.0  0.32743  0.80293  0.86082  1.0000
  C   C2015     1.0  0.01639  0.96128  0.77637  1.0000
  H   H1622     1.0  0.45672  0.73401  0.87109  1.0000
  H   H1623     1.0  0.10504  0.79126  0.97036  1.0000
  C   C2016     1.0  0.41419  0.73481  0.74927  1.0000
  C   C2017     1.0  0.12853  0.68582  0.86689  1.0000
  H   H1624     1.0  0.39201  0.70480  0.87284  1.0000
  H   H1625     1.0  0.35485  0.70694  0.88389  1.0000
  C   C2018     1.0  0.24530  0.68713  0.76893  1.0000
  H   H1626     1.0  0.34646  0.70357  0.92996  1.0000
  C   C2019     1.0  0.39068  0.79662  0.74625  1.0000
  C   C2020     1.0  0.03849  0.78750  0.95282  1.0000
  H   H1627     1.0  0.45541  0.71654  0.81446  1.0000
  C   C2021     1.0  0.40352  0.69337  0.74483  1.0000
  C   C2022     1.0  0.14659  0.70350  0.85851  1.0000
  C   C2023     1.0  0.16031  0.71458  0.86527  1.0000
  C   C2024     1.0  0.15590  0.70812  0.88044  1.0000
  C   C2025     1.0  0.49682  0.82373  0.94491  1.0000
  C   C2026     1.0  0.12418  0.67896  0.88217  1.0000
  H   H1628     1.0  0.42993  0.82920  0.97926  1.0000
  C   C2027     1.0  0.42509  0.71931  0.75408  1.0000
  C   C2028     1.0  0.39795  0.72960  0.74226  1.0000
  C   C2029     1.0  0.00573  0.74381  0.73929  1.0000
  H   H1629     1.0  0.01091  0.79047  0.87120  1.0000
  H   H1630     1.0  0.02608  0.77946  0.91234  1.0000
  C   C2030     1.0  0.14695  0.76674  0.97138  1.0000
  H   H1631     1.0  0.09887  0.69667  0.90121  1.0000
  C   C2031     1.0  0.48581  0.81155  0.75545  1.0000
  H   H1632     1.0  0.03439  0.96206  0.73992  1.0000
  H   H1633     1.0  0.38318  0.70971  0.98145  1.0000
  C   C2032     1.0  0.28516  0.82820  0.85856  1.0000
  C   C2033     1.0  0.43513  0.69667  0.83583  1.0000
  C   C2034     1.0  0.45646  0.81385  0.97975  1.0000
  H   H1634     1.0  0.15189  0.75228  0.96988  1.0000
  C   C2035     1.0  0.10351  0.70897  0.98475  1.0000
  C   C2036     1.0  0.06520  0.69163  0.91291  1.0000
  H   H1635     1.0  0.20524  0.74997  0.90089  1.0000
  C   C2037     1.0  0.24636  0.74099  0.78162  1.0000
  C   C2038     1.0  0.12647  0.76961  0.96978  1.0000
  H   H1636     1.0  0.15048  0.70810  0.84670  1.0000
  H   H1637     1.0  0.17475  0.72776  0.85871  1.0000
  H   H1638     1.0  0.16676  0.71654  0.88565  1.0000
  C   C2039     1.0  0.16129  0.78261  0.97498  1.0000
  H   H1639     1.0  0.46778  0.82803  0.98063  1.0000
  H   H1640     1.0  0.33464  0.68755  0.91144  1.0000
  C   C2040     1.0  0.42701  0.73943  0.96462  1.0000
  H   H1641     1.0  0.42771  0.68637  0.75602  1.0000
  H   H1642     1.0  0.16645  0.81369  0.97981  1.0000
  H   H1643     1.0  0.44903  0.69715  0.84040  1.0000
  C   C2041     1.0  0.31993  0.78867  0.89203  1.0000
  C   C2042     1.0  0.27891  0.84673  0.85237  1.0000
  C   C2043     1.0  0.25254  0.84182  0.87543  1.0000
  C   C2044     1.0  0.42829  0.77786  0.97581  1.0000
  C   C2045     1.0  0.41987  0.69867  0.75176  1.0000
  H   H1644     1.0  0.01068  0.90122  0.78260  1.0000
  C   C2046     1.0  0.34329  0.67252  0.94481  1.0000
  C   C2047     1.0  0.04862  0.99261  0.86068  1.0000
  H   H1645     1.0  0.14390  0.98818  0.79436  1.0000
  C   C2048     1.0  0.00776  0.83503  0.97463  1.0000
  C   C2049     1.0  0.01837  0.84677  0.95996  1.0000
  C   C2050     1.0  0.02843  0.79823  0.96218  1.0000
  C   C2051     1.0  0.04023  0.74334  0.74550  1.0000
  H   H1646     1.0  0.17701  0.78024  0.97627  1.0000
  H   H1647     1.0  0.03830  0.87770  0.94490  1.0000
  C   C2052     1.0  0.43295  0.72252  0.97334  1.0000
  H   H1648     1.0  0.01499  0.95126  0.80633  1.0000
  H   H1649     1.0  0.13278  0.98966  0.77150  1.0000
  C   C2053     1.0  0.01420  0.78090  0.90610  1.0000
  H   H1650     1.0  0.48010  0.79481  0.97945  1.0000
  C   C2054     1.0  0.38143  0.67100  0.87263  1.0000
  H   H1651     1.0  0.34515  0.72952  0.74174  1.0000
  C   C2055     1.0  0.15534  0.80146  0.97696  1.0000
  H   H1652     1.0  0.05786  0.75025  0.74325  1.0000
  C   C2056     1.0  0.01939  0.72024  0.93450  1.0000
  H   H1653     1.0  0.00930  0.98334  0.81945  1.0000
  C   C2057     1.0  0.39601  0.68418  0.83815  1.0000
  H   H1654     1.0  0.47925  0.83568  0.76678  1.0000
  S   S277      1.0  0.00668  0.90798  0.85085  1.0000
  C   C2058     1.0  0.00923  0.84567  0.98553  1.0000
  C   C2059     1.0  0.00543  0.78715  0.88293  1.0000
  C   C2060     1.0  0.33586  0.67695  0.92131  1.0000
  H   H1655     1.0  0.01023  0.85370  0.84472  1.0000
  C   C2061     1.0  0.00857  0.00203  0.85937  1.0000
  C   C2062     1.0  0.00338  0.94895  0.76978  1.0000
  C   C2063     1.0  0.00526  0.79333  0.96702  1.0000
  H   H1656     1.0  0.13519  0.68514  0.90061  1.0000
  C   C2064     1.0  0.42107  0.79652  0.97705  1.0000
  H   H1657     1.0  0.38454  0.67143  0.91348  1.0000
  C   C2065     1.0  0.34626  0.66915  0.75670  1.0000
  C   C2066     1.0  0.04404  0.67723  0.91847  1.0000
  S   S278      1.0  0.23640  0.67432  0.87495  1.0000
  C   C2067     1.0  0.00251  0.76638  0.95345  1.0000
  H   H1658     1.0  0.01739  0.83900  0.95132  1.0000
  H   H1659     1.0  0.48649  0.78372  0.74685  1.0000
  H   H1660     1.0  0.36140  0.66927  0.75979  1.0000
  C   C2068     1.0  0.33886  0.67375  0.88521  1.0000
  H   H1661     1.0  0.49847  0.79022  0.95052  1.0000
  C   C2069     1.0  0.02855  0.75280  0.73648  1.0000
  H   H1662     1.0  0.40690  0.67372  0.98508  1.0000
  Fe  Fe138     1.0  0.61437  0.23344  0.18942  1.0000
  S   S279      1.0  0.64069  0.26477  0.17701  1.0000
  S   S280      1.0  0.62063  0.20507  0.20427  1.0000
  Fe  Fe139     1.0  0.57944  0.24751  0.17639  1.0000
  S   S281      1.0  0.60215  0.28011  0.16307  1.0000
  S   S282      1.0  0.54416  0.23465  0.17655  1.0000
  Fe  Fe140     1.0  0.62730  0.26161  0.15800  1.0000
  S   S283      1.0  0.64861  0.27105  0.13472  1.0000
  Fe  Fe141     1.0  0.61379  0.28083  0.18303  1.0000
  S   S284      1.0  0.61638  0.31091  0.19097  1.0000
  S   S285      1.0  0.60365  0.22876  0.16990  1.0000
  S   S286      1.0  0.58848  0.24982  0.19685  1.0000
  C   C2070     1.0  0.65766  0.30645  0.00239  1.0000
  H   H1663     1.0  0.89143  0.00367  0.20235  1.0000
  H   H1664     1.0  0.54608  0.10097  0.14292  1.0000
  C   C2071     1.0  0.51134  0.22617  0.05744  1.0000
  Fe  Fe142     1.0  0.62982  0.20424  0.08191  1.0000
  S   S287      1.0  0.65373  0.20791  0.06050  1.0000
  S   S288      1.0  0.63746  0.19600  0.10355  1.0000
  Fe  Fe143     1.0  0.59163  0.20644  0.06840  1.0000
  S   S289      1.0  0.61222  0.21019  0.04584  1.0000
  S   S290      1.0  0.55484  0.20097  0.07489  1.0000
  Fe  Fe144     1.0  0.62611  0.18414  0.05683  1.0000
  S   S291      1.0  0.63087  0.15311  0.05132  1.0000
  Fe  Fe145     1.0  0.63769  0.23360  0.05163  1.0000
  S   S292      1.0  0.65611  0.26676  0.03586  1.0000
  S   S293      1.0  0.60353  0.17864  0.07897  1.0000
  S   S294      1.0  0.61576  0.23172  0.07340  1.0000
  H   H1665     1.0  0.81895  0.08226  0.00310  1.0000
  H   H1666     1.0  0.52447  0.21842  0.01588  1.0000
  H   H1667     1.0  0.50694  0.21350  0.20443  1.0000
  H   H1668     1.0  0.54439  0.33413  0.08610  1.0000
  C   C2072     1.0  0.52514  0.31599  0.20798  1.0000
  H   H1669     1.0  0.58179  0.25259  0.02670  1.0000
  C   C2073     1.0  0.73253  0.01256  0.08448  1.0000
  C   C2074     1.0  0.60202  0.24034  0.01161  1.0000
  Fe  Fe146     1.0  0.98300  0.06866  0.13005  1.0000
  H   H1670     1.0  0.77293  0.30465  0.14228  1.0000
  S   S295      1.0  0.94638  0.06363  0.13312  1.0000
  Fe  Fe147     1.0  0.59128  0.07634  0.00953  1.0000
  S   S296      1.0  0.62524  0.07205  0.00846  1.0000
  S   S297      1.0  0.58476  0.10926  0.01000  1.0000
  Fe  Fe148     1.0  0.57467  0.03064  0.00508  1.0000
  S   S298      1.0  0.60735  0.02324  0.00383  1.0000
  C   C2075     1.0  0.98882  0.20988  0.18550  1.0000
  Fe  Fe149     1.0  0.60724  0.03792  0.02255  1.0000
  C   C2076     1.0  0.52280  0.23933  0.11495  1.0000
  H   H1671     1.0  0.61639  0.25410  0.00900  1.0000
  S   S299      1.0  0.57336  0.04298  0.02494  1.0000
  H   H1672     1.0  0.58595  0.19198  0.00414  1.0000
  C   C2077     1.0  0.55917  0.16634  0.04747  1.0000
  C   C2078     1.0  0.96048  0.19683  0.17444  1.0000
  C   C2079     1.0  0.56434  0.15066  0.05754  1.0000
  H   H1673     1.0  0.94110  0.11677  0.12537  1.0000
  H   H1674     1.0  0.53192  0.26040  0.07841  1.0000
  H   H1675     1.0  0.51656  0.32543  0.12225  1.0000
  C   C2080     1.0  0.55672  0.12844  0.05878  1.0000
  H   H1676     1.0  0.53058  0.10419  0.00110  1.0000
  C   C2081     1.0  0.55939  0.30110  0.19418  1.0000
  C   C2082     1.0  0.92803  0.01998  0.11112  1.0000
  C   C2083     1.0  0.94088  0.03356  0.11728  1.0000
  C   C2084     1.0  0.93113  0.04592  0.12545  1.0000
  C   C2085     1.0  0.81725  0.01040  0.18456  1.0000
  C   C2086     1.0  0.52365  0.24717  0.04879  1.0000
  H   H1677     1.0  0.61831  0.22376  0.99764  1.0000
  H   H1678     1.0  0.95826  0.03450  0.11568  1.0000
  C   C2087     1.0  0.53153  0.20612  0.11153  1.0000
  H   H1679     1.0  0.54980  0.30186  0.02285  1.0000
  C   C2088     1.0  0.61618  0.14114  0.04056  1.0000
  C   C2089     1.0  0.60975  0.15383  0.02951  1.0000
  C   C2090     1.0  0.60037  0.14404  0.02005  1.0000
  C   C2091     1.0  0.59644  0.12137  0.02198  1.0000
  C   C2092     1.0  0.60249  0.10865  0.03320  1.0000
  C   C2093     1.0  0.61238  0.11854  0.04239  1.0000
  H   H1680     1.0  0.61269  0.17128  0.02798  1.0000
  H   H1681     1.0  0.59696  0.15423  0.01095  1.0000
  H   H1682     1.0  0.59973  0.09120  0.03474  1.0000
  H   H1683     1.0  0.61703  0.10857  0.05102  1.0000
  C   C2094     1.0  0.98889  0.02458  0.21040  1.0000
  H   H1684     1.0  0.88535  0.00890  0.15174  1.0000
  C   C2095     1.0  0.52100  0.21253  0.06571  1.0000
  C   C2096     1.0  0.54321  0.21963  0.06529  1.0000
  C   C2097     1.0  0.55550  0.24097  0.05711  1.0000
  C   C2098     1.0  0.54562  0.25485  0.04893  1.0000
  H   H1685     1.0  0.73985  0.03673  0.00713  1.0000
  H   H1686     1.0  0.64999  0.03771  0.01561  1.0000
  H   H1687     1.0  0.57265  0.24658  0.05687  1.0000
  H   H1688     1.0  0.55529  0.27102  0.04224  1.0000
  C   C2099     1.0  0.67345  0.30809  0.03769  1.0000
  C   C2100     1.0  0.66860  0.28545  0.04417  1.0000
  C   C2101     1.0  0.67386  0.27794  0.05720  1.0000
  H   H1689     1.0  0.66962  0.31413  0.02761  1.0000
  H   H1690     1.0  0.67035  0.26054  0.06224  1.0000
  C   C2102     1.0  0.59687  0.18713  0.21746  1.0000
  C   C2103     1.0  0.57617  0.19139  0.21888  1.0000
  H   H1691     1.0  0.79748  0.01704  0.04166  1.0000
  H   H1692     1.0  0.77684  0.15152  0.99829  1.0000
  C   C2104     1.0  0.74284  0.06329  0.98826  1.0000
  H   H1693     1.0  0.57438  0.20564  0.21164  1.0000
  C   C2105     1.0  0.55250  0.14963  0.99225  1.0000
  C   C2106     1.0  0.97297  0.17076  0.19054  1.0000
  C   C2107     1.0  0.64571  0.25029  0.12599  1.0000
  C   C2108     1.0  0.65071  0.25576  0.11072  1.0000
  C   C2109     1.0  0.64810  0.23922  0.10366  1.0000
  C   C2110     1.0  0.64116  0.21719  0.11188  1.0000
  C   C2111     1.0  0.63699  0.21181  0.12708  1.0000
  C   C2112     1.0  0.63892  0.22832  0.13413  1.0000
  H   H1694     1.0  0.65617  0.27277  0.10437  1.0000
  H   H1695     1.0  0.65154  0.24347  0.09190  1.0000
  H   H1696     1.0  0.63190  0.19484  0.13346  1.0000
  H   H1697     1.0  0.63548  0.22403  0.14585  1.0000
  C   C2113     1.0  0.51551  0.20315  0.10403  1.0000
  C   C2114     1.0  0.65650  0.31292  0.19750  1.0000
  C   C2115     1.0  0.72161  0.12704  0.01194  1.0000
  H   H1698     1.0  0.65537  0.29688  0.19586  1.0000
  H   H1699     1.0  0.91299  0.08543  0.14348  1.0000
  C   C2116     1.0  0.52939  0.25440  0.17429  1.0000
  C   C2117     1.0  0.79245  0.00950  0.23473  1.0000
  C   C2118     1.0  0.67015  0.11881  0.02763  1.0000
  Fe  Fe150     1.0  0.62176  0.05812  0.98985  1.0000
  C   C2119     1.0  0.52750  0.29221  0.16914  1.0000
  C   C2120     1.0  0.53972  0.27673  0.17113  1.0000
  H   H1700     1.0  0.64025  0.12839  0.00804  1.0000
  H   H1701     1.0  0.69326  0.07430  0.01356  1.0000
  H   H1702     1.0  0.53558  0.30948  0.16653  1.0000
  H   H1703     1.0  0.55716  0.28216  0.16999  1.0000
  H   H1704     1.0  0.56533  0.18346  0.04673  1.0000
  C   C2121     1.0  0.59334  0.14221  0.12705  1.0000
  C   C2122     1.0  0.57855  0.12157  0.13055  1.0000
  H   H1705     1.0  0.97024  0.07892  0.08614  1.0000
  C   C2123     1.0  0.55080  0.13353  0.14551  1.0000
  C   C2124     1.0  0.56523  0.15461  0.14148  1.0000
  C   C2125     1.0  0.58686  0.15850  0.13274  1.0000
  P   P71       1.0  0.55693  0.17545  0.14915  1.0000
  C   C2126     1.0  0.52885  0.17624  0.14977  1.0000
  C   C2127     1.0  0.55994  0.16914  0.16742  1.0000
  C   C2128     1.0  0.54171  0.15686  0.17936  1.0000
  C   C2129     1.0  0.54420  0.15161  0.19348  1.0000
  C   C2130     1.0  0.56490  0.15836  0.19575  1.0000
  C   C2131     1.0  0.58314  0.17034  0.18392  1.0000
  C   C2132     1.0  0.58077  0.17559  0.16976  1.0000
  C   C2133     1.0  0.67495  0.32374  0.20116  1.0000
  H   H1706     1.0  0.52769  0.19688  0.16437  1.0000
  S   S300      1.0  0.52665  0.31686  0.04728  1.0000
  C   C2134     1.0  0.85319  0.04355  0.15362  1.0000
  H   H1707     1.0  0.72250  0.18008  0.99715  1.0000
  C   C2135     1.0  0.57302  0.20291  0.13872  1.0000
  C   C2136     1.0  0.58176  0.20850  0.12349  1.0000
  C   C2137     1.0  0.59302  0.23020  0.11559  1.0000
  C   C2138     1.0  0.59533  0.24647  0.12277  1.0000
  C   C2139     1.0  0.58607  0.24113  0.13781  1.0000
  C   C2140     1.0  0.57491  0.21948  0.14572  1.0000
  H   H1708     1.0  0.60991  0.14572  0.11992  1.0000
  H   H1709     1.0  0.58364  0.10895  0.12615  1.0000
  H   H1710     1.0  0.51594  0.02618  0.02823  1.0000
  C   C2141     1.0  0.52793  0.17845  0.99931  1.0000
  H   H1711     1.0  0.59887  0.17407  0.13024  1.0000
  H   H1712     1.0  0.78586  0.00800  0.02062  1.0000
  H   H1713     1.0  0.81274  0.02559  0.18159  1.0000
  H   H1714     1.0  0.56680  0.15432  0.20670  1.0000
  H   H1715     1.0  0.59904  0.17572  0.18585  1.0000
  H   H1716     1.0  0.59509  0.18485  0.16068  1.0000
  H   H1717     1.0  0.96824  0.04051  0.08612  1.0000
  C   C2142     1.0  0.84007  0.05737  0.14997  1.0000
  H   H1718     1.0  0.69248  0.20332  0.03439  1.0000
  H   H1719     1.0  0.70879  0.04409  0.02296  1.0000
  H   H1720     1.0  0.98601  0.14348  0.22643  1.0000
  H   H1721     1.0  0.57985  0.19631  0.11761  1.0000
  H   H1722     1.0  0.60033  0.23431  0.10394  1.0000
  H   H1723     1.0  0.60477  0.26310  0.11680  1.0000
  H   H1724     1.0  0.58785  0.25371  0.14340  1.0000
  H   H1725     1.0  0.56769  0.21566  0.15735  1.0000
  C   C2143     1.0  0.63923  0.01262  0.03612  1.0000
  C   C2144     1.0  0.54333  0.12180  0.05025  1.0000
  H   H1726     1.0  0.52628  0.25365  0.11885  1.0000
  H   H1727     1.0  0.82804  0.05269  0.14424  1.0000
  H   H1728     1.0  0.62724  0.11828  0.98794  1.0000
  S   S301      1.0  0.58894  0.06458  0.98997  1.0000
  C   C2145     1.0  0.54007  0.17050  0.00865  1.0000
  C   C2146     1.0  0.68027  0.23175  0.21160  1.0000
  H   H1729     1.0  0.70072  0.17015  0.02894  1.0000
  C   C2147     1.0  0.64757  0.24487  0.21694  1.0000
  H   H1730     1.0  0.51333  0.18952  0.09937  1.0000
  C   C2148     1.0  0.97019  0.06837  0.22610  1.0000
  H   H1731     1.0  0.50334  0.25084  0.20358  1.0000
  C   C2149     1.0  0.67822  0.16694  0.01552  1.0000
  C   C2150     1.0  0.98409  0.05267  0.08214  1.0000
  H   H1732     1.0  0.69472  0.29481  0.11025  1.0000
  C   C2151     1.0  0.58463  0.20528  0.00892  1.0000
  H   H1733     1.0  0.57268  0.29538  0.18878  1.0000
  H   H1734     1.0  0.63484  0.25111  0.21317  1.0000
  C   C2152     1.0  0.65745  0.10244  0.05394  1.0000
  H   H1735     1.0  0.78603  0.05778  0.00056  1.0000
  C   C2153     1.0  0.98519  0.07436  0.08206  1.0000
  H   H1736     1.0  0.71876  0.00425  0.04164  1.0000
  C   C2154     1.0  0.68400  0.29298  0.06364  1.0000
  H   H1737     1.0  0.92929  0.15533  0.20796  1.0000
  C   C2155     1.0  0.65003  0.19938  0.16884  1.0000
  C   C2156     1.0  0.64964  0.18426  0.16073  1.0000
  C   C2157     1.0  0.66724  0.18766  0.14850  1.0000
  C   C2158     1.0  0.68520  0.20617  0.14442  1.0000
  C   C2159     1.0  0.68554  0.22165  0.15241  1.0000
  C   C2160     1.0  0.66785  0.21801  0.16474  1.0000
  P   P72       1.0  0.70927  0.24507  0.14739  1.0000
  C   C2161     1.0  0.73142  0.23673  0.15384  1.0000
  C   C2162     1.0  0.71853  0.25670  0.12775  1.0000
  C   C2163     1.0  0.73990  0.27069  0.12097  1.0000
  C   C2164     1.0  0.74679  0.28031  0.10586  1.0000
  C   C2165     1.0  0.73248  0.27593  0.09736  1.0000
  C   C2166     1.0  0.71121  0.26204  0.10399  1.0000
  C   C2167     1.0  0.70413  0.25280  0.11913  1.0000
  C   C2168     1.0  0.74823  0.25231  0.15589  1.0000
  C   C2169     1.0  0.76526  0.24601  0.16105  1.0000
  C   C2170     1.0  0.76567  0.22408  0.16419  1.0000
  C   C2171     1.0  0.74905  0.20845  0.16218  1.0000
  C   C2172     1.0  0.73199  0.21471  0.15703  1.0000
  C   C2173     1.0  0.70230  0.26619  0.15535  1.0000
  C   C2174     1.0  0.70389  0.26612  0.16946  1.0000
  C   C2175     1.0  0.69976  0.28325  0.17517  1.0000
  H   H1738     1.0  0.69293  0.22114  0.22984  1.0000
  C   C2176     1.0  0.98519  0.07542  0.23376  1.0000
  C   C2177     1.0  0.69563  0.28313  0.14736  1.0000
  H   H1739     1.0  0.63643  0.19671  0.17830  1.0000
  H   H1740     1.0  0.63565  0.16998  0.16390  1.0000
  H   H1741     1.0  0.66685  0.17606  0.14210  1.0000
  H   H1742     1.0  0.69878  0.20843  0.13498  1.0000
  H   H1743     1.0  0.66761  0.22946  0.17122  1.0000
  H   H1744     1.0  0.75118  0.27442  0.12733  1.0000
  H   H1745     1.0  0.76320  0.29129  0.10072  1.0000
  H   H1746     1.0  0.73770  0.28351  0.08567  1.0000
  H   H1747     1.0  0.69991  0.25891  0.09748  1.0000
  H   H1748     1.0  0.68726  0.24293  0.12403  1.0000
  C   C2178     1.0  0.68456  0.19597  0.02730  1.0000
  H   H1749     1.0  0.77880  0.21915  0.16826  1.0000
  H   H1750     1.0  0.74928  0.19141  0.16470  1.0000
  H   H1751     1.0  0.71928  0.20222  0.15570  1.0000
  H   H1752     1.0  0.70827  0.25283  0.17606  1.0000
  H   H1753     1.0  0.70088  0.28316  0.18608  1.0000
  H   H1754     1.0  0.93553  0.01039  0.10481  1.0000
  C   C2179     1.0  0.62791  0.31492  0.09393  1.0000
  H   H1755     1.0  0.69324  0.28299  0.13680  1.0000
  H   H1756     1.0  0.64292  0.06747  0.06126  1.0000
  H   H1757     1.0  0.72612  0.31438  0.11717  1.0000
  C   C2180     1.0  0.94679  0.11560  0.22784  1.0000
  H   H1758     1.0  0.64871  0.06341  0.03629  1.0000
  C   C2181     1.0  0.66308  0.17632  0.00970  1.0000
  C   C2182     1.0  0.71711  0.08541  0.99236  1.0000
  H   H1759     1.0  0.65441  0.10435  0.06486  1.0000
  C   C2183     1.0  0.63932  0.32179  0.13718  1.0000
  C   C2184     1.0  0.56225  0.32574  0.23018  1.0000
  C   C2185     1.0  0.65343  0.02389  0.02230  1.0000
  C   C2186     1.0  0.68796  0.31559  0.05747  1.0000
  H   H1760     1.0  0.62752  0.27530  0.07654  1.0000
  H   H1761     1.0  0.75010  0.04694  0.07838  1.0000
  H   H1762     1.0  0.67158  0.13674  0.04376  1.0000
  C   C2187     1.0  0.69372  0.30038  0.16693  1.0000
  C   C2188     1.0  0.74629  0.03106  0.08620  1.0000
  C   C2189     1.0  0.72843  0.16583  0.00048  1.0000
  H   H1763     1.0  0.52557  0.15129  0.17783  1.0000
  C   C2190     1.0  0.76473  0.01632  0.05339  1.0000
  H   H1764     1.0  0.97907  0.01750  0.22161  1.0000
  C   C2191     1.0  0.95732  0.08956  0.18455  1.0000
  H   H1765     1.0  0.63241  0.30885  0.12006  1.0000
  C   C2192     1.0  0.70766  0.07193  0.00666  1.0000
  S   S302      1.0  0.86308  0.03627  0.22668  1.0000
  H   H1766     1.0  0.52751  0.13199  0.03374  1.0000
  C   C2193     1.0  0.60304  0.30229  0.99505  1.0000
  C   C2194     1.0  0.70083  0.06963  0.07133  1.0000
  C   C2195     1.0  0.60409  0.31674  0.00377  1.0000
  C   C2196     1.0  0.54110  0.28619  0.20484  1.0000
  C   C2197     1.0  0.62038  0.31247  0.04724  1.0000
  H   H1767     1.0  0.67855  0.28458  0.00224  1.0000
  H   H1768     1.0  0.68813  0.28707  0.07369  1.0000
  H   H1769     1.0  0.74389  0.32407  0.14135  1.0000
  C   C2198     1.0  0.59940  0.26564  0.23007  1.0000
  H   H1770     1.0  0.95519  0.15043  0.13220  1.0000
  C   C2199     1.0  0.63581  0.30186  0.08569  1.0000
  C   C2200     1.0  0.73595  0.00736  0.04168  1.0000
  C   C2201     1.0  0.71695  0.07409  0.04573  1.0000
  S   S303      1.0  0.99723  0.05266  0.14721  1.0000
  C   C2202     1.0  0.75170  0.00614  0.02974  1.0000
  H   H1771     1.0  0.95129  0.09597  0.20535  1.0000
  H   H1772     1.0  0.98670  0.05582  0.17821  1.0000
  H   H1773     1.0  0.68825  0.31618  0.20208  1.0000
  C   C2203     1.0  0.51729  0.16615  0.14136  1.0000
  C   C2204     1.0  0.50284  0.20389  0.22763  1.0000
  C   C2205     1.0  0.67239  0.01754  0.01718  1.0000
  S   S304      1.0  0.54444  0.00857  0.00254  1.0000
  H   H1774     1.0  0.54682  0.22618  0.12334  1.0000
  H   H1775     1.0  0.70231  0.09743  0.05395  1.0000
  C   C2206     1.0  0.50699  0.23671  0.10718  1.0000
  C   C2207     1.0  0.50412  0.21846  0.21439  1.0000
  H   H1776     1.0  0.65338  0.30491  0.08124  1.0000
  C   C2208     1.0  0.94750  0.13293  0.21607  1.0000
  H   H1777     1.0  0.87828  0.03805  0.16395  1.0000
  C   C2209     1.0  0.56489  0.20434  0.01893  1.0000
  H   H1778     1.0  0.72117  0.08350  0.03442  1.0000
  C   C2210     1.0  0.53792  0.13743  0.04025  1.0000
  H   H1779     1.0  0.56133  0.11642  0.06632  1.0000
  C   C2211     1.0  0.65087  0.08173  0.05193  1.0000
  C   C2212     1.0  0.56407  0.22147  0.02539  1.0000
  C   C2213     1.0  0.54642  0.15989  0.03845  1.0000
  C   C2214     1.0  0.60308  0.22324  0.00525  1.0000
  H   H1780     1.0  0.51200  0.32193  0.21329  1.0000
  C   C2215     1.0  0.89564  0.03055  0.12172  1.0000
  C   C2216     1.0  0.78037  0.01471  0.04153  1.0000
  H   H1781     1.0  0.57461  0.15580  0.06423  1.0000
  C   C2217     1.0  0.51763  0.04871  0.00796  1.0000
  C   C2218     1.0  0.63144  0.33079  0.05050  1.0000
  C   C2219     1.0  0.97700  0.13451  0.17272  1.0000
  H   H1782     1.0  0.50407  0.28822  0.13917  1.0000
  H   H1783     1.0  0.94748  0.16191  0.18009  1.0000
  C   C2220     1.0  0.65407  0.07946  0.03783  1.0000
  C   C2221     1.0  0.71641  0.05486  0.01199  1.0000
  H   H1784     1.0  0.91373  0.12054  0.17600  1.0000
  C   C2222     1.0  0.58251  0.23946  0.02163  1.0000
  H   H1785     1.0  0.94111  0.15221  0.15749  1.0000
  H   H1786     1.0  0.00025  0.22332  0.18708  1.0000
  S   S305      1.0  0.82607  0.00402  0.11912  1.0000
  C   C2223     1.0  0.69146  0.30020  0.15308  1.0000
  H   H1787     1.0  0.96415  0.03918  0.20392  1.0000
  C   C2224     1.0  0.71644  0.04150  0.06392  1.0000
  C   C2225     1.0  0.53438  0.27650  0.08015  1.0000
  H   H1788     1.0  0.64886  0.29873  0.01376  1.0000
  C   C2226     1.0  0.68263  0.32311  0.04449  1.0000
  C   C2227     1.0  0.98759  0.18827  0.19262  1.0000
  C   C2228     1.0  0.52239  0.30180  0.09278  1.0000
  C   C2229     1.0  0.55734  0.31355  0.07397  1.0000
  P   P73       1.0  0.72203  0.01506  0.06864  1.0000
  H   H1789     1.0  0.64655  0.20206  0.00857  1.0000
  C   C2230     1.0  0.62028  0.31348  0.03284  1.0000
  C   C2231     1.0  0.90853  0.04438  0.12762  1.0000
  C   C2232     1.0  0.66372  0.09787  0.02574  1.0000
  C   C2233     1.0  0.99685  0.14197  0.20414  1.0000
  C   C2234     1.0  0.58285  0.28782  0.99639  1.0000
  H   H1790     1.0  0.99811  0.18531  0.19970  1.0000
  H   H1791     1.0  0.53319  0.09438  0.02633  1.0000
  H   H1792     1.0  0.56178  0.14962  0.01187  1.0000
  H   H1793     1.0  0.89730  0.14131  0.22970  1.0000
  C   C2235     1.0  0.50681  0.24754  0.17556  1.0000
  H   H1794     1.0  0.69253  0.07564  0.07988  1.0000
  H   H1795     1.0  0.66547  0.21938  0.02427  1.0000
  C   C2236     1.0  0.74624  0.01318  0.98656  1.0000
  C   C2237     1.0  0.60529  0.31059  0.10048  1.0000
  C   C2238     1.0  0.95793  0.10321  0.19371  1.0000
  H   H1796     1.0  0.54077  0.26909  0.20740  1.0000
  H   H1797     1.0  0.90093  0.05394  0.13388  1.0000
  H   H1798     1.0  0.96725  0.08777  0.16243  1.0000
  C   C2239     1.0  0.75121  0.16805  0.99704  1.0000
  H   H1799     1.0  0.96024  0.10792  0.22745  1.0000
  H   H1800     1.0  0.59233  0.32811  0.21425  1.0000
  P   P74       1.0  0.59583  0.32666  0.11213  1.0000
  C   C2240     1.0  0.66932  0.20502  0.02160  1.0000
  H   H1801     1.0  0.66203  0.04348  0.98826  1.0000
  H   H1802     1.0  0.82810  0.01747  0.20290  1.0000
  C   C2241     1.0  0.67434  0.29818  0.99577  1.0000
  H   H1803     1.0  0.61190  0.29896  0.03055  1.0000
  P   P75       1.0  0.68408  0.14227  0.01189  1.0000
  C   C2242     1.0  0.53475  0.22392  0.11731  1.0000
  P   P76       1.0  0.97096  0.14282  0.19994  1.0000
  C   C2243     1.0  0.51189  0.20617  0.02487  1.0000
  C   C2244     1.0  0.70633  0.08190  0.05673  1.0000
  C   C2245     1.0  0.52850  0.31634  0.12408  1.0000
  C   C2246     1.0  0.52141  0.29521  0.13356  1.0000
  C   C2247     1.0  0.53677  0.28370  0.13643  1.0000
  C   C2248     1.0  0.55934  0.29363  0.13017  1.0000
  C   C2249     1.0  0.56663  0.31492  0.12061  1.0000
  H   H1804     1.0  0.51355  0.03559  0.00312  1.0000
  H   H1805     1.0  0.54939  0.22077  0.03357  1.0000
  S   S306      1.0  0.61590  0.02126  0.04238  1.0000
  H   H1806     1.0  0.61207  0.29739  0.05580  1.0000
  H   H1807     1.0  0.53122  0.26741  0.14397  1.0000
  H   H1808     1.0  0.57112  0.28477  0.13284  1.0000
  C   C2250     1.0  0.66713  0.12089  0.04186  1.0000
  C   C2251     1.0  0.73386  0.05049  0.00284  1.0000
  H   H1809     1.0  0.80496  0.31293  0.12062  1.0000
  C   C2252     1.0  0.93344  0.03704  0.17330  1.0000
  C   C2253     1.0  0.92171  0.01868  0.18501  1.0000
  C   C2254     1.0  0.90097  0.01808  0.19352  1.0000
  C   C2255     1.0  0.89198  0.03579  0.19032  1.0000
  C   C2256     1.0  0.90388  0.05447  0.17874  1.0000
  C   C2257     1.0  0.92455  0.05485  0.17019  1.0000
  P   P77       1.0  0.89139  0.07663  0.17435  1.0000
  C   C2258     1.0  0.87051  0.06854  0.16548  1.0000
  C   C2259     1.0  0.88099  0.08252  0.19136  1.0000
  C   C2260     1.0  0.85877  0.08241  0.19642  1.0000
  C   C2261     1.0  0.85116  0.08650  0.20983  1.0000
  C   C2262     1.0  0.86557  0.09045  0.21834  1.0000
  C   C2263     1.0  0.88759  0.09019  0.21349  1.0000
  C   C2264     1.0  0.89519  0.08605  0.20014  1.0000
  C   C2265     1.0  0.85787  0.08277  0.16129  1.0000
  C   C2266     1.0  0.84246  0.07704  0.15375  1.0000
  C   C2267     1.0  0.67490  0.13694  0.99651  1.0000
  H   H1810     1.0  0.54798  0.27637  0.00762  1.0000
  C   C2268     1.0  0.86823  0.04899  0.16141  1.0000
  C   C2269     1.0  0.91138  0.10042  0.16118  1.0000
  C   C2270     1.0  0.91892  0.09994  0.14670  1.0000
  C   C2271     1.0  0.93479  0.11780  0.13635  1.0000
  C   C2272     1.0  0.94276  0.13666  0.14023  1.0000
  C   C2273     1.0  0.93485  0.13761  0.15451  1.0000
  C   C2274     1.0  0.91932  0.11952  0.16500  1.0000
  H   H1811     1.0  0.94926  0.03738  0.16643  1.0000
  H   H1812     1.0  0.87821  0.02951  0.12343  1.0000
  H   H1813     1.0  0.50451  0.18754  0.22797  1.0000
  H   H1814     1.0  0.87553  0.03467  0.19665  1.0000
  H   H1815     1.0  0.93378  0.06869  0.16098  1.0000
  H   H1816     1.0  0.84711  0.07857  0.19033  1.0000
  H   H1817     1.0  0.83392  0.08594  0.21386  1.0000
  H   H1818     1.0  0.68330  0.31728  0.23234  1.0000
  H   H1819     1.0  0.89857  0.09212  0.22036  1.0000
  H   H1820     1.0  0.91203  0.08499  0.19685  1.0000
  H   H1821     1.0  0.86002  0.09833  0.16380  1.0000
  H   H1822     1.0  0.83245  0.08785  0.15074  1.0000
  H   H1823     1.0  0.66879  0.31387  0.10192  1.0000
  H   H1824     1.0  0.69019  0.31350  0.17141  1.0000
  H   H1825     1.0  0.97617  0.07054  0.21452  1.0000
  C   C2275     1.0  0.59835  0.28156  0.08878  1.0000
  H   H1826     1.0  0.58688  0.26880  0.08661  1.0000
  C   C2276     1.0  0.95922  0.17520  0.18154  1.0000
  C   C2277     1.0  0.77424  0.31690  0.13238  1.0000
  H   H1827     1.0  0.53011  0.14234  0.20272  1.0000
  C   C2278     1.0  0.52717  0.08711  0.00691  1.0000
  C   C2279     1.0  0.97624  0.12085  0.16358  1.0000
  C   C2280     1.0  0.62113  0.28513  0.08313  1.0000
  C   C2281     1.0  0.59040  0.29425  0.09744  1.0000
  C   C2282     1.0  0.81448  0.08563  0.99293  1.0000
  C   C2283     1.0  0.71504  0.32324  0.11337  1.0000
  H   H1828     1.0  0.56568  0.28928  0.06364  1.0000
  C   C2284     1.0  0.50495  0.28528  0.17031  1.0000
  H   H1829     1.0  0.53452  0.12972  0.15300  1.0000
  C   C2285     1.0  0.51845  0.28090  0.09065  1.0000
  H   H1830     1.0  0.57271  0.29119  0.10170  1.0000
  C   C2286     1.0  0.51873  0.04323  0.02239  1.0000
  C   C2287     1.0  0.63084  0.33303  0.02160  1.0000
  C   C2288     1.0  0.72204  0.05401  0.04929  1.0000
  C   C2289     1.0  0.90539  0.01848  0.11333  1.0000
  C   C2290     1.0  0.55737  0.11714  0.13992  1.0000
  C   C2291     1.0  0.79590  0.07176  0.99144  1.0000
  H   H1831     1.0  0.66601  0.09568  0.01493  1.0000
  C   C2292     1.0  0.99951  0.14276  0.21791  1.0000
  C   C2293     1.0  0.56366  0.28766  0.00643  1.0000
  H   H1832     1.0  0.63146  0.33020  0.06163  1.0000
  H   H1833     1.0  0.74799  0.26930  0.15368  1.0000
  H   H1834     1.0  0.85146  0.02839  0.15056  1.0000
  H   H1835     1.0  0.68354  0.02667  0.00665  1.0000
  P   P78       1.0  0.54165  0.18033  0.02442  1.0000
  C   C2294     1.0  0.71348  0.14531  0.00806  1.0000
  C   C2295     1.0  0.69735  0.31201  0.10945  1.0000
  C   C2296     1.0  0.74438  0.12927  0.00839  1.0000
  H   H1836     1.0  0.77807  0.25810  0.16272  1.0000
  H   H1837     1.0  0.57217  0.32626  0.06744  1.0000
  C   C2297     1.0  0.68907  0.17708  0.02424  1.0000
  C   C2298     1.0  0.96654  0.09838  0.16950  1.0000
  C   C2299     1.0  0.52419  0.05965  0.02905  1.0000
  C   C2300     1.0  0.52835  0.08159  0.02132  1.0000
  S   S307      1.0  0.92861  0.05302  0.22299  1.0000
  C   C2301     1.0  0.66400  0.24038  0.20697  1.0000
  H   H1838     1.0  0.66353  0.24276  0.19577  1.0000
  C   C2302     1.0  0.97532  0.21416  0.17639  1.0000
  H   H1839     1.0  0.75056  0.11507  0.01134  1.0000
  H   H1840     1.0  0.70128  0.04004  0.08629  1.0000
  H   H1841     1.0  0.65337  0.31514  0.13740  1.0000
  C   C2303     1.0  0.96780  0.12577  0.18789  1.0000
  C   C2304     1.0  0.70587  0.04952  0.07493  1.0000
  C   C2305     1.0  0.54330  0.33079  0.19712  1.0000
  C   C2306     1.0  0.75581  0.02907  0.09782  1.0000
  H   H1842     1.0  0.94992  0.20017  0.16745  1.0000
  H   H1843     1.0  0.69255  0.22773  0.20392  1.0000
  H   H1844     1.0  0.57816  0.28092  0.21953  1.0000
  H   H1845     1.0  0.75978  0.00688  0.11649  1.0000
  C   C2307     1.0  0.56043  0.32334  0.19022  1.0000
  C   C2308     1.0  0.59869  0.16805  0.22657  1.0000
  H   H1846     1.0  0.61772  0.30203  0.98728  1.0000
  C   C2309     1.0  0.52363  0.29350  0.21172  1.0000
  C   C2310     1.0  0.99304  0.04589  0.18588  1.0000
  C   C2311     1.0  0.55368  0.29276  0.07183  1.0000
  C   C2312     1.0  0.54171  0.31801  0.08445  1.0000
  H   H1847     1.0  0.71028  0.09863  0.98822  1.0000
  C   C2313     1.0  0.51589  0.18639  0.03150  1.0000
  H   H1848     1.0  0.68599  0.31301  0.14688  1.0000
  C   C2314     1.0  0.79234  0.32164  0.12020  1.0000
  C   C2315     1.0  0.65221  0.12989  0.99796  1.0000
  C   C2316     1.0  0.92946  0.14213  0.21685  1.0000
  C   C2317     1.0  0.78693  0.04511  0.23517  1.0000
  H   H1849     1.0  0.54161  0.19474  0.11266  1.0000
  H   H1850     1.0  0.85941  0.09272  0.22899  1.0000
  H   H1851     1.0  0.76674  0.04326  0.09897  1.0000
  C   C2318     1.0  0.65869  0.19527  0.01274  1.0000
  H   H1852     1.0  0.95026  0.07204  0.18924  1.0000
  H   H1853     1.0  0.71040  0.11105  0.01759  1.0000
  H   H1854     1.0  0.65425  0.16893  0.00307  1.0000
  C   C2319     1.0  0.55755  0.17705  0.22974  1.0000
  C   C2320     1.0  0.98042  0.03673  0.20038  1.0000
  C   C2321     1.0  0.62745  0.31855  0.12710  1.0000
  Fe  Fe151     1.0  0.89318  0.03240  0.23421  1.0000
  C   C2322     1.0  0.77386  0.00962  0.02970  1.0000
  C   C2323     1.0  0.58465  0.31668  0.01366  1.0000
  H   H1855     1.0  0.58494  0.32784  0.02040  1.0000
  C   C2324     1.0  0.55104  0.32621  0.11755  1.0000
  H   H1856     1.0  0.51076  0.30583  0.10081  1.0000
  H   H1857     1.0  0.77014  0.02006  0.06248  1.0000
  Fe  Fe152     1.0  0.50920  0.29513  0.03618  1.0000
  H   H1858     1.0  0.61453  0.16436  0.22533  1.0000
  H   H1859     1.0  0.61298  0.28042  0.22585  1.0000
  C   C2325     1.0  0.65220  0.32428  0.99436  1.0000
  C   C2326     1.0  0.57956  0.26605  0.22653  1.0000
  C   C2327     1.0  0.63966  0.32312  0.19583  1.0000
  H   H1860     1.0  0.67466  0.01491  0.07404  1.0000
  H   H1861     1.0  0.73025  0.04830  0.04060  1.0000
  H   H1862     1.0  0.51142  0.19610  0.07203  1.0000
  H   H1863     1.0  0.98415  0.12742  0.15197  1.0000
  S   S308      1.0  0.51239  0.26134  0.03601  1.0000
  H   H1864     1.0  0.53744  0.10454  0.05125  1.0000
  C   C2328     1.0  0.68243  0.32277  0.10486  1.0000
  H   H1865     1.0  0.52486  0.15738  0.13441  1.0000
  C   C2329     1.0  0.52216  0.07074  0.99999  1.0000
  H   H1866     1.0  0.98569  0.15166  0.16796  1.0000
  H   H1867     1.0  0.97632  0.23093  0.17088  1.0000
  C   C2330     1.0  0.51895  0.18859  0.15799  1.0000
  C   C2331     1.0  0.56462  0.30210  0.01501  1.0000
  C   C2332     1.0  0.74236  0.01255  0.05358  1.0000
  C   C2333     1.0  0.64481  0.12407  0.98659  1.0000
  H   H1868     1.0  0.51860  0.18989  0.00165  1.0000
  H   H1869     1.0  0.54166  0.18057  0.23092  1.0000
  C   C2334     1.0  0.68037  0.22789  0.22621  1.0000
  S   S309      1.0  0.69954  0.33393  0.06629  1.0000
  C   C2335     1.0  0.55231  0.15603  0.00495  1.0000
  S   S310      1.0  0.51592  0.32097  0.01499  1.0000
  C   C2336     1.0  0.50328  0.21843  0.10179  1.0000
  C   C2337     1.0  0.50220  0.23962  0.21391  1.0000
  H   H1870     1.0  0.92850  0.00480  0.18725  1.0000
  C   C2338     1.0  0.52782  0.17172  0.98670  1.0000
  H   H1871     1.0  0.76268  0.18395  0.99126  1.0000
  C   C2339     1.0  0.91120  0.13424  0.22921  1.0000
  H   H1872     1.0  0.56237  0.13872  0.98951  1.0000
  C   C2340     1.0  0.75181  0.00861  0.10776  1.0000
  H   H1873     1.0  0.52565  0.05538  0.04010  1.0000
  C   C2341     1.0  0.75919  0.14978  0.00099  1.0000
  C   C2342     1.0  0.60939  0.32743  0.12651  1.0000
  H   H1874     1.0  0.58205  0.27660  0.98973  1.0000
  H   H1875     1.0  0.57460  0.33482  0.18186  1.0000
  C   C2343     1.0  0.82585  0.00581  0.19667  1.0000
  H   H1876     1.0  0.79375  0.06240  0.23364  1.0000
  C   C2344     1.0  0.63256  0.33280  0.14731  1.0000
  C   C2345     1.0  0.94751  0.05922  0.23324  1.0000
  C   C2346     1.0  0.64734  0.24064  0.23167  1.0000
  P   P79       1.0  0.63021  0.33433  0.00303  1.0000
  H   H1877     1.0  0.50191  0.15573  0.04867  1.0000
  H   H1878     1.0  0.63952  0.32816  0.09550  1.0000
  C   C2347     1.0  0.75801  0.32820  0.13188  1.0000
  H   H1879     1.0  0.98185  0.00656  0.16023  1.0000
  H   H1880     1.0  0.54693  0.24703  0.22822  1.0000
  H   H1881     1.0  0.81860  0.03939  0.22763  1.0000
  C   C2348     1.0  0.56203  0.24703  0.23136  1.0000
  H   H1882     1.0  0.67062  0.27884  0.23265  1.0000
  C   C2349     1.0  0.80098  0.03207  0.23188  1.0000
  H   H1883     1.0  0.64126  0.33471  0.15546  1.0000
  S   S311      1.0  0.87622  0.02610  0.25791  1.0000
  Fe  Fe153     1.0  0.61866  0.19847  0.45179  1.0000
  Fe  Fe154     1.0  0.67267  0.01774  0.32985  1.0000
  S   S312      1.0  0.63129  0.18231  0.43485  1.0000
  Fe  Fe155     1.0  0.61404  0.24205  0.45584  1.0000
  H   H1884     1.0  0.60692  0.12444  0.46317  1.0000
  S   S313      1.0  0.62187  0.27763  0.44378  1.0000
  H   H1885     1.0  0.93294  0.08189  0.28527  1.0000
  C   C2350     1.0  0.61155  0.21462  0.28840  1.0000
  H   H1886     1.0  0.65063  0.29601  0.48323  1.0000
  H   H1887     1.0  0.74345  0.03134  0.28590  1.0000
  S   S314      1.0  0.64119  0.22544  0.45665  1.0000
  S   S315      1.0  0.59288  0.21626  0.44912  1.0000
  Fe  Fe156     1.0  0.52605  0.07598  0.29666  1.0000
  S   S316      1.0  0.55932  0.07717  0.30044  1.0000
  C   C2351     1.0  0.96951  0.02838  0.32332  1.0000
  Fe  Fe157     1.0  0.54423  0.11693  0.27042  1.0000
  S   S317      1.0  0.57880  0.12102  0.27230  1.0000
  S   S318      1.0  0.53617  0.14097  0.25308  1.0000
  Fe  Fe158     1.0  0.57136  0.08468  0.27614  1.0000
  S   S319      1.0  0.59437  0.06969  0.26332  1.0000
  Fe  Fe159     1.0  0.56345  0.11329  0.29626  1.0000
  S   S320      1.0  0.58060  0.13263  0.30885  1.0000
  S   S321      1.0  0.53767  0.08094  0.27252  1.0000
  S   S322      1.0  0.52920  0.11187  0.29432  1.0000
  Fe  Fe160     1.0  0.55835  0.04587  0.40596  1.0000
  S   S323      1.0  0.57054  0.06449  0.38228  1.0000
  Fe  Fe161     1.0  0.56490  0.08738  0.41573  1.0000
  S   S324      1.0  0.57782  0.10953  0.39286  1.0000
  S   S325      1.0  0.55829  0.10040  0.43526  1.0000
  Fe  Fe162     1.0  0.55033  0.08686  0.38856  1.0000
  S   S326      1.0  0.52807  0.09857  0.37568  1.0000
  Fe  Fe163     1.0  0.59698  0.08523  0.38861  1.0000
  S   S327      1.0  0.63238  0.09629  0.37476  1.0000
  S   S328      1.0  0.53570  0.06640  0.41178  1.0000
  S   S329      1.0  0.58652  0.06496  0.41202  1.0000
  S   S330      1.0  0.68395  0.06280  0.27801  1.0000
  H   H1888     1.0  0.61999  0.01818  0.24462  1.0000
  C   C2352     1.0  0.60836  0.19268  0.28847  1.0000
  C   C2353     1.0  0.55376  0.02034  0.32856  1.0000
  C   C2354     1.0  0.92859  0.10789  0.24023  1.0000
  C   C2355     1.0  0.97753  0.07395  0.24857  1.0000
  C   C2356     1.0  0.63513  0.03945  0.36485  1.0000
  C   C2357     1.0  0.65919  0.28593  0.23862  1.0000
  H   H1889     1.0  0.58592  0.31503  0.48030  1.0000
  C   C2358     1.0  0.94010  0.05689  0.24817  1.0000
  C   C2359     1.0  0.95494  0.06466  0.25567  1.0000
  C   C2360     1.0  0.93251  0.03803  0.29804  1.0000
  C   C2361     1.0  0.61117  0.18717  0.27532  1.0000
  H   H1890     1.0  0.69806  0.32170  0.45992  1.0000
  H   H1891     1.0  0.94879  0.06373  0.26700  1.0000
  C   C2362     1.0  0.52210  0.00808  0.36989  1.0000
  C   C2363     1.0  0.64115  0.07657  0.36691  1.0000
  C   C2364     1.0  0.62730  0.05547  0.37027  1.0000
  H   H1892     1.0  0.88007  0.02505  0.29456  1.0000
  H   H1893     1.0  0.66125  0.26567  0.42452  1.0000
  H   H1894     1.0  0.77935  0.05436  0.26849  1.0000
  C   C2365     1.0  0.66262  0.08177  0.35766  1.0000
  H   H1895     1.0  0.61088  0.05112  0.37759  1.0000
  H   H1896     1.0  0.60553  0.03234  0.48066  1.0000
  H   H1897     1.0  0.67346  0.09801  0.35513  1.0000
  H   H1898     1.0  0.99917  0.03130  0.23906  1.0000
  H   H1899     1.0  0.65593  0.14140  0.25063  1.0000
  C   C2366     1.0  0.57625  0.28700  0.41698  1.0000
  H   H1900     1.0  0.58529  0.21194  0.24990  1.0000
  H   H1901     1.0  0.60342  0.17982  0.29871  1.0000
  C   C2367     1.0  0.51481  0.17249  0.45482  1.0000
  H   H1902     1.0  0.98953  0.01100  0.28528  1.0000
  H   H1903     1.0  0.54252  0.18304  0.41143  1.0000
  C   C2368     1.0  0.98984  0.00683  0.27520  1.0000
  H   H1904     1.0  0.60835  0.17007  0.27546  1.0000
  C   C2369     1.0  0.56587  0.12407  0.32740  1.0000
  C   C2370     1.0  0.57736  0.12309  0.33802  1.0000
  C   C2371     1.0  0.56583  0.11518  0.35288  1.0000
  C   C2372     1.0  0.54271  0.10923  0.35715  1.0000
  C   C2373     1.0  0.53120  0.11111  0.34654  1.0000
  C   C2374     1.0  0.54275  0.11799  0.33166  1.0000
  H   H1905     1.0  0.59519  0.12785  0.33476  1.0000
  H   H1906     1.0  0.57485  0.11380  0.36101  1.0000
  C   C2375     1.0  0.97822  0.12495  0.27610  1.0000
  H   H1907     1.0  0.53379  0.11890  0.32350  1.0000
  C   C2376     1.0  0.61927  0.06896  0.26775  1.0000
  C   C2377     1.0  0.63799  0.07086  0.25664  1.0000
  C   C2378     1.0  0.65796  0.06967  0.25985  1.0000
  C   C2379     1.0  0.65905  0.06560  0.27428  1.0000
  C   C2380     1.0  0.64037  0.06377  0.28545  1.0000
  C   C2381     1.0  0.62061  0.06595  0.28212  1.0000
  H   H1908     1.0  0.58146  0.13846  0.24376  1.0000
  H   H1909     1.0  0.50638  0.01095  0.25665  1.0000
  H   H1910     1.0  0.64125  0.06107  0.29659  1.0000
  H   H1911     1.0  0.60639  0.06512  0.29065  1.0000
  C   C2382     1.0  0.61084  0.15994  0.43463  1.0000
  C   C2383     1.0  0.58937  0.15471  0.44380  1.0000
  C   C2384     1.0  0.57326  0.13661  0.44371  1.0000
  C   C2385     1.0  0.57847  0.12374  0.43444  1.0000
  C   C2386     1.0  0.59979  0.12924  0.42503  1.0000
  C   C2387     1.0  0.61602  0.14720  0.42524  1.0000
  H   H1912     1.0  0.58517  0.16461  0.45095  1.0000
  H   H1913     1.0  0.55665  0.13271  0.45073  1.0000
  H   H1914     1.0  0.60384  0.11949  0.41774  1.0000
  H   H1915     1.0  0.63258  0.15127  0.41808  1.0000
  C   C2388     1.0  0.61397  0.12959  0.47135  1.0000
  C   C2389     1.0  0.50326  0.20755  0.43880  1.0000
  H   H1916     1.0  0.54557  0.11681  0.47665  1.0000
  C   C2390     1.0  0.99520  0.01832  0.24912  1.0000
  C   C2391     1.0  0.55055  0.03783  0.46460  1.0000
  C   C2392     1.0  0.62925  0.01019  0.27804  1.0000
  P   P80       1.0  0.62653  0.24657  0.24469  1.0000
  H   H1917     1.0  0.59555  0.02008  0.41406  1.0000
  H   H1918     1.0  0.55137  0.23064  0.44608  1.0000
  H   H1919     1.0  0.51520  0.06679  0.35972  1.0000
  S   S331      1.0  0.51084  0.29481  0.46778  1.0000
  C   C2393     1.0  0.57178  0.02059  0.30410  1.0000
  H   H1920     1.0  0.95489  0.02471  0.33231  1.0000
  C   C2394     1.0  0.94194  0.02645  0.28902  1.0000
  H   H1921     1.0  0.89627  0.05534  0.36103  1.0000
  C   C2395     1.0  0.63418  0.14548  0.46701  1.0000
  H   H1922     1.0  0.63345  0.04486  0.40660  1.0000
  Fe  Fe164     1.0  0.84543  0.02685  0.25069  1.0000
  C   C2396     1.0  0.61652  0.01289  0.25638  1.0000
  H   H1923     1.0  0.58515  0.29875  0.43441  1.0000
  C   C2397     1.0  0.62015  0.22573  0.26190  1.0000
  C   C2398     1.0  0.66652  0.30782  0.23839  1.0000
  H   H1924     1.0  0.60570  0.27530  0.25866  1.0000
  H   H1925     1.0  0.56750  0.01282  0.46197  1.0000
  C   C2399     1.0  0.52935  0.02171  0.26824  1.0000
  C   C2400     1.0  0.51953  0.24958  0.40606  1.0000
  S   S332      1.0  0.64860  0.02134  0.31657  1.0000
  C   C2401     1.0  0.50766  0.00382  0.40913  1.0000
  C   C2402     1.0  0.57560  0.17973  0.40642  1.0000
  H   H1926     1.0  0.63114  0.32426  0.43761  1.0000
  C   C2403     1.0  0.50116  0.01110  0.37005  1.0000
  H   H1927     1.0  0.64250  0.01339  0.28308  1.0000
  H   H1928     1.0  0.89681  0.00375  0.27943  1.0000
  H   H1929     1.0  0.94929  0.08804  0.32207  1.0000
  H   H1930     1.0  0.92820  0.09456  0.24927  1.0000
  C   C2404     1.0  0.63188  0.29552  0.45330  1.0000
  C   C2405     1.0  0.68667  0.26937  0.46266  1.0000
  S   S333      1.0  0.82129  0.04522  0.25873  1.0000
  C   C2406     1.0  0.58821  0.22095  0.41090  1.0000
  C   C2407     1.0  0.66403  0.23240  0.23620  1.0000
  H   H1931     1.0  0.67239  0.07121  0.25119  1.0000
  H   H1932     1.0  0.55238  0.02800  0.28062  1.0000
  C   C2408     1.0  0.57720  0.28478  0.43134  1.0000
  H   H1933     1.0  0.54077  0.21294  0.39139  1.0000
  C   C2409     1.0  0.53172  0.22091  0.47526  1.0000
  C   C2410     1.0  0.76420  0.03570  0.24087  1.0000
  H   H1934     1.0  0.54926  0.22875  0.47184  1.0000
  C   C2411     1.0  0.89733  0.02534  0.29317  1.0000
  H   H1935     1.0  0.56111  0.30935  0.23641  1.0000
  H   H1936     1.0  0.55096  0.21277  0.24321  1.0000
  H   H1937     1.0  0.50798  0.01933  0.41148  1.0000
  C   C2412     1.0  0.54273  0.01559  0.27704  1.0000
  H   H1938     1.0  0.58548  0.06371  0.44323  1.0000
  H   H1939     1.0  0.53208  0.27865  0.26616  1.0000
  H   H1940     1.0  0.51977  0.01812  0.43784  1.0000
  C   C2413     1.0  0.91077  0.11712  0.24090  1.0000
  H   H1941     1.0  0.62459  0.02299  0.36808  1.0000
  S   S334      1.0  0.54969  0.00897  0.41269  1.0000
  C   C2414     1.0  0.60959  0.07577  0.46925  1.0000
  C   C2415     1.0  0.51694  0.05031  0.36224  1.0000
  C   C2416     1.0  0.92915  0.01426  0.28226  1.0000
  C   C2417     1.0  0.69435  0.31773  0.40843  1.0000
  C   C2418     1.0  0.71187  0.31300  0.39942  1.0000
  C   C2419     1.0  0.71111  0.29131  0.39946  1.0000
  C   C2420     1.0  0.69291  0.27423  0.40849  1.0000
  C   C2421     1.0  0.67548  0.27882  0.41750  1.0000
  C   C2422     1.0  0.67622  0.30044  0.41747  1.0000
  C   C2423     1.0  0.96051  0.08205  0.29465  1.0000
  H   H1942     1.0  0.99024  0.08828  0.30180  1.0000
  H   H1943     1.0  0.65820  0.16576  0.47401  1.0000
  H   H1944     1.0  0.73781  0.00644  0.24763  1.0000
  H   H1945     1.0  0.60630  0.07301  0.48092  1.0000
  P   P81       1.0  0.56722  0.04850  0.47539  1.0000
  C   C2424     1.0  0.64415  0.33265  0.45474  1.0000
  H   H1946     1.0  0.53156  0.06189  0.46376  1.0000
  H   H1947     1.0  0.66443  0.03550  0.39147  1.0000
  H   H1948     1.0  0.64917  0.10562  0.43774  1.0000
  C   C2425     1.0  0.52404  0.19846  0.48237  1.0000
  C   C2426     1.0  0.63060  0.02952  0.40379  1.0000
  H   H1949     1.0  0.62086  0.08835  0.42723  1.0000
  C   C2427     1.0  0.70948  0.11124  0.32188  1.0000
  C   C2428     1.0  0.71869  0.09996  0.31261  1.0000
  C   C2429     1.0  0.70801  0.09379  0.30261  1.0000
  C   C2430     1.0  0.68805  0.09869  0.30197  1.0000
  C   C2431     1.0  0.67861  0.10989  0.31127  1.0000
  C   C2432     1.0  0.68948  0.11618  0.32125  1.0000
  P   P82       1.0  0.65185  0.11415  0.31093  1.0000
  C   C2433     1.0  0.65237  0.12349  0.29198  1.0000
  C   C2434     1.0  0.63072  0.08899  0.32067  1.0000
  C   C2435     1.0  0.63616  0.06964  0.32640  1.0000
  C   C2436     1.0  0.61950  0.05089  0.33500  1.0000
  C   C2437     1.0  0.59743  0.05133  0.33806  1.0000
  C   C2438     1.0  0.59187  0.07048  0.33232  1.0000
  C   C2439     1.0  0.60848  0.08921  0.32370  1.0000
  C   C2440     1.0  0.63450  0.11531  0.28691  1.0000
  C   C2441     1.0  0.63592  0.12177  0.27203  1.0000
  C   C2442     1.0  0.65490  0.13674  0.26216  1.0000
  C   C2443     1.0  0.67259  0.14534  0.26715  1.0000
  C   C2444     1.0  0.67136  0.13873  0.28199  1.0000
  C   C2445     1.0  0.64546  0.13397  0.32031  1.0000
  C   C2446     1.0  0.64061  0.12835  0.33560  1.0000
  C   C2447     1.0  0.63463  0.14303  0.34315  1.0000
  C   C2448     1.0  0.63308  0.16332  0.33553  1.0000
  C   C2449     1.0  0.63755  0.16894  0.32033  1.0000
  C   C2450     1.0  0.64368  0.15432  0.31272  1.0000
  H   H1950     1.0  0.71757  0.11572  0.32980  1.0000
  H   H1951     1.0  0.73393  0.09571  0.31330  1.0000
  H   H1952     1.0  0.71489  0.08480  0.29549  1.0000
  H   H1953     1.0  0.67969  0.09335  0.29439  1.0000
  H   H1954     1.0  0.68247  0.12453  0.32871  1.0000
  H   H1955     1.0  0.65315  0.06890  0.32457  1.0000
  H   H1956     1.0  0.62382  0.03613  0.33955  1.0000
  H   H1957     1.0  0.58479  0.03677  0.34485  1.0000
  H   H1958     1.0  0.57478  0.07100  0.33447  1.0000
  H   H1959     1.0  0.60403  0.10401  0.31948  1.0000
  H   H1960     1.0  0.61965  0.10356  0.29425  1.0000
  H   H1961     1.0  0.62246  0.11468  0.26810  1.0000
  H   H1962     1.0  0.94887  0.11929  0.26881  1.0000
  H   H1963     1.0  0.68742  0.15678  0.25948  1.0000
  H   H1964     1.0  0.68535  0.14521  0.28567  1.0000
  H   H1965     1.0  0.64107  0.11242  0.34173  1.0000
  H   H1966     1.0  0.63071  0.13835  0.35498  1.0000
  H   H1967     1.0  0.62799  0.17446  0.34146  1.0000
  H   H1968     1.0  0.63584  0.18444  0.31445  1.0000
  H   H1969     1.0  0.64644  0.15875  0.30101  1.0000
  H   H1970     1.0  0.74082  0.28702  0.44327  1.0000
  C   C2451     1.0  0.77765  0.03742  0.27389  1.0000
  C   C2452     1.0  0.99475  0.02351  0.26224  1.0000
  C   C2453     1.0  0.98676  0.01928  0.32569  1.0000
  C   C2454     1.0  0.55972  0.19091  0.40993  1.0000
  H   H1971     1.0  0.61963  0.24794  0.27542  1.0000
  H   H1972     1.0  0.65059  0.02415  0.25618  1.0000
  C   C2455     1.0  0.63717  0.28759  0.46624  1.0000
  C   C2456     1.0  0.90678  0.01344  0.28451  1.0000
  H   H1973     1.0  0.89656  0.11085  0.25044  1.0000
  C   C2457     1.0  0.53181  0.22499  0.39283  1.0000
  H   H1974     1.0  0.55186  0.06143  0.35895  1.0000
  H   H1975     1.0  0.56923  0.26287  0.45285  1.0000
  H   H1976     1.0  0.59343  0.23652  0.41307  1.0000
  C   C2458     1.0  0.53053  0.18786  0.44273  1.0000
  H   H1977     1.0  0.63705  0.07327  0.24551  1.0000
  H   H1978     1.0  0.60997  0.18026  0.40274  1.0000
  C   C2459     1.0  0.94875  0.09125  0.28550  1.0000
  C   C2460     1.0  0.75552  0.01321  0.24345  1.0000
  C   C2461     1.0  0.64634  0.30221  0.47329  1.0000
  H   H1979     1.0  0.66437  0.22936  0.24749  1.0000
  H   H1980     1.0  0.99831  0.04047  0.26234  1.0000
  P   P83       1.0  0.54486  0.22473  0.41844  1.0000
  C   C2462     1.0  0.50220  0.28922  0.26907  1.0000
  C   C2463     1.0  0.52103  0.23205  0.38242  1.0000
  S   S335      1.0  0.70309  0.03386  0.31094  1.0000
  H   H1981     1.0  0.74529  0.28534  0.46781  1.0000
  H   H1982     1.0  0.52165  0.22531  0.37322  1.0000
  C   C2464     1.0  0.53480  0.04795  0.46029  1.0000
  C   C2465     1.0  0.75731  0.02440  0.28375  1.0000
  H   H1983     1.0  0.92275  0.05001  0.25383  1.0000
  H   H1984     1.0  0.91256  0.02124  0.32913  1.0000
  H   H1985     1.0  0.57072  0.16346  0.40509  1.0000
  H   H1986     1.0  0.62107  0.21645  0.40705  1.0000
  H   H1987     1.0  0.66260  0.30373  0.42454  1.0000
  C   C2466     1.0  0.68904  0.26826  0.47665  1.0000
  H   H1988     1.0  0.61899  0.31398  0.25824  1.0000
  C   C2467     1.0  0.58402  0.22726  0.24349  1.0000
  C   C2468     1.0  0.55691  0.24840  0.42356  1.0000
  C   C2469     1.0  0.64293  0.15284  0.47745  1.0000
  H   H1989     1.0  0.52865  0.03858  0.26525  1.0000
  C   C2470     1.0  0.51688  0.00614  0.26336  1.0000
  S   S336      1.0  0.66801  0.02309  0.35220  1.0000
  C   C2471     1.0  0.63383  0.09429  0.44491  1.0000
  C   C2472     1.0  0.51870  0.28153  0.26159  1.0000
  C   C2473     1.0  0.60165  0.24634  0.23887  1.0000
  C   C2474     1.0  0.97140  0.04221  0.30956  1.0000
  H   H1990     1.0  0.50268  0.29228  0.27946  1.0000
  C   C2475     1.0  0.59473  0.00338  0.26509  1.0000
  C   C2476     1.0  0.56433  0.22766  0.23975  1.0000
  C   C2477     1.0  0.91564  0.03601  0.33258  1.0000
  H   H1991     1.0  0.62024  0.33120  0.40121  1.0000
  C   C2478     1.0  0.71015  0.27340  0.47879  1.0000
  H   H1992     1.0  0.88953  0.02189  0.35270  1.0000
  H   H1993     1.0  0.56351  0.09283  0.46476  1.0000
  H   H1994     1.0  0.61886  0.19894  0.25201  1.0000
  H   H1995     1.0  0.54730  0.18634  0.44020  1.0000
  C   C2479     1.0  0.69753  0.33196  0.43753  1.0000
  C   C2480     1.0  0.56808  0.26448  0.44180  1.0000
  C   C2481     1.0  0.93629  0.07349  0.32859  1.0000
  P   P84       1.0  0.94929  0.05432  0.30643  1.0000
  C   C2482     1.0  0.55465  0.06608  0.48453  1.0000
  H   H1996     1.0  0.95926  0.02727  0.28685  1.0000
  C   C2483     1.0  0.79336  0.00662  0.27806  1.0000
  H   H1997     1.0  0.51291  0.16190  0.40029  1.0000
  H   H1998     1.0  0.60921  0.21878  0.29864  1.0000
  C   C2484     1.0  0.92325  0.07369  0.34200  1.0000
  H   H1999     1.0  0.51884  0.25668  0.41512  1.0000
  C   C2485     1.0  0.98093  0.09482  0.29474  1.0000
  H   H2000     1.0  0.55629  0.02371  0.36689  1.0000
  C   C2486     1.0  0.53101  0.23356  0.40482  1.0000
  C   C2487     1.0  0.64987  0.32481  0.46754  1.0000
  C   C2488     1.0  0.98978  0.11613  0.28543  1.0000
  C   C2489     1.0  0.52802  0.02336  0.44551  1.0000
  H   H2001     1.0  0.92623  0.08829  0.34566  1.0000
  C   C2490     1.0  0.79575  0.02856  0.27099  1.0000
  C   C2491     1.0  0.53784  0.04725  0.36196  1.0000
  C   C2492     1.0  0.90261  0.03628  0.34597  1.0000
  C   C2493     1.0  0.56969  0.03075  0.31525  1.0000
  H   H2002     1.0  0.58338  0.02948  0.29358  1.0000
  C   C2494     1.0  0.75506  0.00251  0.29090  1.0000
  H   H2003     1.0  0.55121  0.02880  0.33683  1.0000
  C   C2495     1.0  0.55950  0.15825  0.23912  1.0000
  S   S337      1.0  0.55820  0.32967  0.43239  1.0000
  H   H2004     1.0  0.64194  0.09774  0.46462  1.0000
  C   C2496     1.0  0.59782  0.07038  0.44815  1.0000
  H   H2005     1.0  0.58010  0.04697  0.31340  1.0000
  C   C2497     1.0  0.61710  0.20359  0.26209  1.0000
  H   H2006     1.0  0.56622  0.27071  0.40179  1.0000
  H   H2007     1.0  0.90268  0.04729  0.30620  1.0000
  C   C2498     1.0  0.62973  0.08982  0.46005  1.0000
  Fe  Fe165     1.0  0.62188  0.20943  0.48010  1.0000
  C   C2499     1.0  0.56643  0.26881  0.41302  1.0000
  H   H2008     1.0  0.72058  0.31874  0.48168  1.0000
  C   C2500     1.0  0.51671  0.23297  0.47201  1.0000
  C   C2501     1.0  0.63534  0.31807  0.44758  1.0000
  C   C2502     1.0  0.52469  0.20521  0.43435  1.0000
  C   C2503     1.0  0.60401  0.20965  0.40745  1.0000
  H   H2009     1.0  0.64284  0.15247  0.45552  1.0000
  C   C2504     1.0  0.63377  0.01628  0.26287  1.0000
  C   C2505     1.0  0.59774  0.18914  0.40514  1.0000
  C   C2506     1.0  0.55801  0.24633  0.43792  1.0000
  C   C2507     1.0  0.56589  0.21169  0.41213  1.0000
  C   C2508     1.0  0.70531  0.27600  0.45065  1.0000
  H   H2010     1.0  0.63434  0.27020  0.47069  1.0000
  H   H2011     1.0  0.69223  0.25742  0.40849  1.0000
  C   C2509     1.0  0.91017  0.03778  0.29980  1.0000
  H   H2012     1.0  0.65774  0.00212  0.38360  1.0000
  C   C2510     1.0  0.55536  0.08709  0.47637  1.0000
  H   H2013     1.0  0.72458  0.28771  0.39243  1.0000
  C   C2511     1.0  0.61738  0.23112  0.27518  1.0000
  H   H2014     1.0  0.72608  0.32596  0.39235  1.0000
  H   H2015     1.0  0.58306  0.30288  0.40901  1.0000
  C   C2512     1.0  0.59360  0.06568  0.46338  1.0000
  C   C2513     1.0  0.63721  0.27388  0.24599  1.0000
  C   C2514     1.0  0.52358  0.04069  0.45081  1.0000
  H   H2016     1.0  0.68730  0.06956  0.34557  1.0000
  C   C2515     1.0  0.54368  0.01324  0.44971  1.0000
  C   C2516     1.0  0.54034  0.02612  0.36622  1.0000
  C   C2517     1.0  0.95766  0.11257  0.27620  1.0000
  C   C2518     1.0  0.62283  0.28411  0.25320  1.0000
  Fe  Fe166     1.0  0.52186  0.31486  0.44429  1.0000
  C   C2519     1.0  0.93247  0.05469  0.32373  1.0000
  S   S338      1.0  0.60197  0.18070  0.47535  1.0000
  H   H2017     1.0  0.70334  0.27686  0.43983  1.0000
  H   H2018     1.0  0.51334  0.10666  0.34985  1.0000
  C   C2520     1.0  0.67041  0.06574  0.35216  1.0000
  H   H2019     1.0  0.52270  0.25010  0.46591  1.0000
  C   C2521     1.0  0.61790  0.08453  0.43898  1.0000
  C   C2522     1.0  0.58001  0.15352  0.23723  1.0000
  H   H2020     1.0  0.51960  0.15949  0.46143  1.0000
  C   C2523     1.0  0.72639  0.28166  0.45262  1.0000
  C   C2524     1.0  0.50883  0.25665  0.39562  1.0000
  Fe  Fe167     1.0  0.67889  0.03454  0.29752  1.0000
  C   C2525     1.0  0.72884  0.28047  0.46662  1.0000
  H   H2021     1.0  0.67034  0.26513  0.46112  1.0000
  H   H2022     1.0  0.65656  0.32412  0.40023  1.0000
  C   C2526     1.0  0.50943  0.24776  0.38386  1.0000
  C   C2527     1.0  0.90640  0.05512  0.35067  1.0000
  C   C2528     1.0  0.65677  0.04443  0.35590  1.0000
  Fe  Fe168     1.0  0.57787  0.20071  0.47317  1.0000
  S   S339      1.0  0.99512  0.08492  0.25837  1.0000
  H   H2023     1.0  0.68929  0.31556  0.43788  1.0000
  C   C2529     1.0  0.64808  0.02419  0.39535  1.0000
  C   C2530     1.0  0.55494  0.02044  0.45919  1.0000
  C   C2531     1.0  0.51787  0.27745  0.24825  1.0000
  H   H2024     1.0  0.51199  0.04904  0.44716  1.0000
  C   C2532     1.0  0.99070  0.04644  0.29817  1.0000
  C   C2533     1.0  0.60924  0.01565  0.40791  1.0000
  C   C2534     1.0  0.63025  0.30603  0.25293  1.0000
  C   C2535     1.0  0.54516  0.10072  0.48305  1.0000
  S   S340      1.0  0.59639  0.22831  0.47966  1.0000
  H   H2025     1.0  0.53221  0.32776  0.24402  1.0000
  C   C2536     1.0  0.65205  0.31791  0.24544  1.0000
  H   H2026     1.0  0.75330  0.04577  0.24357  1.0000
  H   H2027     1.0  0.53077  0.27156  0.24254  1.0000
  C   C2537     1.0  0.64421  0.00503  0.39097  1.0000
  H   H2028     1.0  0.98539  0.14125  0.26864  1.0000
  H   H2029     1.0  0.98536  0.00884  0.33636  1.0000
  H   H2030     1.0  0.99250  0.05683  0.28738  1.0000
  H   H2031     1.0  0.93663  0.00556  0.27515  1.0000
  C   C2538     1.0  0.70263  0.33534  0.45014  1.0000
  S   S341      1.0  0.54239  0.18216  0.48415  1.0000
  H   H2032     1.0  0.50099  0.25313  0.37582  1.0000
  H   H2033     1.0  0.65772  0.33508  0.24484  1.0000
  C   C2539     1.0  0.54452  0.12832  0.54076  1.0000
  S   S342      1.0  0.53683  0.30717  0.60429  1.0000
  Fe  Fe169     1.0  0.66938  0.26665  0.57578  1.0000
  S   S343      1.0  0.63812  0.27611  0.57459  1.0000
  S   S344      1.0  0.70003  0.28639  0.57946  1.0000
  Fe  Fe170     1.0  0.65060  0.21965  0.57482  1.0000
  S   S345      1.0  0.61774  0.22524  0.57426  1.0000
  S   S346      1.0  0.65689  0.18649  0.57552  1.0000
  Fe  Fe171     1.0  0.63711  0.25713  0.55808  1.0000
  S   S347      1.0  0.62545  0.26684  0.53821  1.0000
  Fe  Fe172     1.0  0.62121  0.24330  0.59078  1.0000
  S   S348      1.0  0.59268  0.23783  0.61025  1.0000
  S   S349      1.0  0.67025  0.25078  0.55748  1.0000
  S   S350      1.0  0.65242  0.23463  0.59315  1.0000
  H   H2034     1.0  0.61773  0.08546  0.50270  1.0000
  C   C2540     1.0  0.54884  0.17331  0.57361  1.0000
  C   C2541     1.0  0.62191  0.10436  0.53552  1.0000
  C   C2542     1.0  0.50262  0.02044  0.66038  1.0000
  C   C2543     1.0  0.50274  0.26818  0.52845  1.0000
  H   H2035     1.0  0.58730  0.10807  0.48938  1.0000
  H   H2036     1.0  0.61586  0.32740  0.49113  1.0000
  C   C2544     1.0  0.94632  0.12677  0.72287  1.0000
  Fe  Fe173     1.0  0.57196  0.08024  0.58215  1.0000
  S   S351      1.0  0.58449  0.05729  0.57055  1.0000
  S   S352      1.0  0.57593  0.11590  0.57162  1.0000
  Fe  Fe174     1.0  0.54773  0.04415  0.61046  1.0000
  Fe  Fe175     1.0  0.59158  0.04279  0.59163  1.0000
  S   S353      1.0  0.62416  0.03421  0.58904  1.0000
  Fe  Fe176     1.0  0.55073  0.03426  0.58112  1.0000
  H   H2037     1.0  0.54695  0.17587  0.63189  1.0000
  S   S354      1.0  0.58172  0.06768  0.60233  1.0000
  S   S355      1.0  0.53739  0.05858  0.59087  1.0000
  H   H2038     1.0  0.58354  0.27537  0.53044  1.0000
  C   C2545     1.0  0.63331  0.02564  0.60450  1.0000
  C   C2546     1.0  0.62660  0.03213  0.61704  1.0000
  C   C2547     1.0  0.63390  0.02466  0.62929  1.0000
  C   C2548     1.0  0.56931  0.07273  0.52938  1.0000
  H   H2039     1.0  0.61588  0.04291  0.61730  1.0000
  H   H2040     1.0  0.62928  0.03025  0.63876  1.0000
  C   C2549     1.0  0.59219  0.00331  0.49869  1.0000
  C   C2550     1.0  0.94081  0.06061  0.71010  1.0000
  C   C2551     1.0  0.93180  0.07425  0.70128  1.0000
  C   C2552     1.0  0.91245  0.06578  0.69782  1.0000
  C   C2553     1.0  0.90161  0.04343  0.70303  1.0000
  C   C2554     1.0  0.91011  0.02954  0.71228  1.0000
  C   C2555     1.0  0.53327  0.13541  0.53069  1.0000
  H   H2041     1.0  0.94006  0.09155  0.69685  1.0000
  H   H2042     1.0  0.90606  0.07664  0.69073  1.0000
  C   C2556     1.0  0.53435  0.09358  0.49796  1.0000
  C   C2557     1.0  0.77652  0.27101  0.49377  1.0000
  C   C2558     1.0  0.63475  0.16685  0.57398  1.0000
  C   C2559     1.0  0.61947  0.17323  0.56693  1.0000
  C   C2560     1.0  0.60165  0.15741  0.56616  1.0000
  C   C2561     1.0  0.59878  0.13513  0.57257  1.0000
  C   C2562     1.0  0.61422  0.12864  0.57943  1.0000
  C   C2563     1.0  0.63235  0.14448  0.57990  1.0000
  H   H2043     1.0  0.62152  0.19029  0.56184  1.0000
  H   H2044     1.0  0.59023  0.16245  0.56039  1.0000
  H   H2045     1.0  0.61236  0.11146  0.58417  1.0000
  H   H2046     1.0  0.64451  0.13935  0.58483  1.0000
  C   C2564     1.0  0.71137  0.31414  0.57851  1.0000
  C   C2565     1.0  0.73078  0.31863  0.58280  1.0000
  H   H2047     1.0  0.54582  0.09873  0.60223  1.0000
  H   H2048     1.0  0.51658  0.21214  0.57682  1.0000
  C   C2566     1.0  0.66585  0.13808  0.63495  1.0000
  C   C2567     1.0  0.98437  0.22636  0.71441  1.0000
  H   H2049     1.0  0.73798  0.30546  0.58641  1.0000
  Fe  Fe177     1.0  0.99271  0.06602  0.72377  1.0000
  C   C2568     1.0  0.63443  0.14698  0.53772  1.0000
  C   C2569     1.0  0.55298  0.28843  0.60528  1.0000
  C   C2570     1.0  0.55189  0.27551  0.61907  1.0000
  C   C2571     1.0  0.56413  0.26005  0.62044  1.0000
  C   C2572     1.0  0.57763  0.25743  0.60803  1.0000
  C   C2573     1.0  0.57864  0.27019  0.59417  1.0000
  C   C2574     1.0  0.56642  0.28583  0.59280  1.0000
  H   H2050     1.0  0.54149  0.27745  0.62874  1.0000
  H   H2051     1.0  0.56319  0.25014  0.63115  1.0000
  H   H2052     1.0  0.58876  0.26798  0.58451  1.0000
  H   H2053     1.0  0.56738  0.29580  0.58212  1.0000
  C   C2575     1.0  0.63423  0.22092  0.50960  1.0000
  C   C2576     1.0  0.63502  0.21479  0.52408  1.0000
  C   C2577     1.0  0.63288  0.22910  0.53276  1.0000
  C   C2578     1.0  0.62920  0.24934  0.52714  1.0000
  C   C2579     1.0  0.62841  0.25553  0.51265  1.0000
  C   C2580     1.0  0.63094  0.24134  0.50390  1.0000
  H   H2054     1.0  0.63714  0.19891  0.52866  1.0000
  H   H2055     1.0  0.63381  0.22435  0.54385  1.0000
  H   H2056     1.0  0.62585  0.27128  0.50817  1.0000
  H   H2057     1.0  0.96286  0.03596  0.69391  1.0000
  C   C2581     1.0  0.65370  0.00340  0.61680  1.0000
  H   H2058     1.0  0.52155  0.23438  0.61983  1.0000
  C   C2582     1.0  0.96604  0.02199  0.65613  1.0000
  H   H2059     1.0  0.67611  0.27302  0.52159  1.0000
  C   C2583     1.0  0.61986  0.01527  0.53442  1.0000
  C   C2584     1.0  0.62098  0.14231  0.52875  1.0000
  H   H2060     1.0  0.61497  0.30692  0.51600  1.0000
  C   C2585     1.0  0.57662  0.04022  0.52346  1.0000
  C   C2586     1.0  0.50444  0.11129  0.62422  1.0000
  C   C2587     1.0  0.74951  0.29695  0.50264  1.0000
  C   C2588     1.0  0.97760  0.04344  0.65468  1.0000
  C   C2589     1.0  0.96659  0.05734  0.66044  1.0000
  C   C2590     1.0  0.94412  0.04966  0.66788  1.0000
  C   C2591     1.0  0.93254  0.02822  0.66942  1.0000
  C   C2592     1.0  0.60198  0.31352  0.49745  1.0000
  H   H2061     1.0  0.97318  0.23658  0.71584  1.0000
  C   C2593     1.0  0.53064  0.20727  0.61322  1.0000
  H   H2062     1.0  0.55294  0.09251  0.63225  1.0000
  C   C2594     1.0  0.67970  0.32647  0.50678  1.0000
  H   H2063     1.0  0.77780  0.31469  0.50754  1.0000
  H   H2064     1.0  0.50617  0.03614  0.66263  1.0000
  H   H2065     1.0  0.97567  0.11537  0.71948  1.0000
  C   C2595     1.0  0.50239  0.30769  0.65221  1.0000
  C   C2596     1.0  0.64765  0.01205  0.60418  1.0000
  C   C2597     1.0  0.53462  0.19466  0.51782  1.0000
  H   H2066     1.0  0.65317  0.00729  0.59441  1.0000
  C   C2598     1.0  0.54292  0.26983  0.54947  1.0000
  H   H2067     1.0  0.65930  0.30248  0.52639  1.0000
  S   S356      1.0  0.96666  0.07306  0.71233  1.0000
  C   C2599     1.0  0.52964  0.24642  0.57432  1.0000
  H   H2068     1.0  0.54815  0.04009  0.53981  1.0000
  H   H2069     1.0  0.80186  0.29187  0.49948  1.0000
  H   H2070     1.0  0.97551  0.07390  0.65945  1.0000
  H   H2071     1.0  0.93561  0.06025  0.67257  1.0000
  H   H2072     1.0  0.51050  0.08079  0.62157  1.0000
  C   C2600     1.0  0.52372  0.18849  0.60882  1.0000
  C   C2601     1.0  0.56171  0.13181  0.51123  1.0000
  C   C2602     1.0  0.67268  0.30572  0.51670  1.0000
  C   C2603     1.0  0.56982  0.02504  0.48833  1.0000
  H   H2073     1.0  0.68549  0.30292  0.54604  1.0000
  H   H2074     1.0  0.95032  0.13658  0.71166  1.0000
  H   H2075     1.0  0.54706  0.03378  0.66310  1.0000
  C   C2604     1.0  0.65289  0.08761  0.63355  1.0000
  C   C2605     1.0  0.54183  0.13707  0.51595  1.0000
  H   H2076     1.0  0.87238  0.01803  0.64574  1.0000
  C   C2606     1.0  0.57341  0.21720  0.56270  1.0000
  C   C2607     1.0  0.57057  0.20455  0.55317  1.0000
  C   C2608     1.0  0.55773  0.18283  0.55854  1.0000
  C   C2609     1.0  0.55301  0.18554  0.58333  1.0000
  C   C2610     1.0  0.56467  0.20775  0.57775  1.0000
  C   C2611     1.0  0.58752  0.17843  0.60211  1.0000
  C   C2612     1.0  0.60539  0.18041  0.60812  1.0000
  C   C2613     1.0  0.60224  0.18098  0.62259  1.0000
  H   H2077     1.0  0.58291  0.23424  0.55842  1.0000
  H   H2078     1.0  0.57863  0.21162  0.54166  1.0000
  H   H2079     1.0  0.56754  0.21769  0.58503  1.0000
  H   H2080     1.0  0.59025  0.17783  0.59093  1.0000
  H   H2081     1.0  0.62172  0.18173  0.60148  1.0000
  H   H2082     1.0  0.61620  0.18291  0.62713  1.0000
  H   H2083     1.0  0.58405  0.04912  0.66594  1.0000
  C   C2614     1.0  0.55950  0.02482  0.66209  1.0000
  C   C2615     1.0  0.65864  0.13576  0.62268  1.0000
  C   C2616     1.0  0.64699  0.06521  0.65831  1.0000
  C   C2617     1.0  0.97869  0.03273  0.69030  1.0000
  H   H2084     1.0  0.52612  0.06768  0.51791  1.0000
  H   H2085     1.0  0.60666  0.04551  0.50669  1.0000
  P   P85       1.0  0.59725  0.11509  0.51592  1.0000
  S   S357      1.0  0.63689  0.20273  0.49886  1.0000
  H   H2086     1.0  0.56955  0.06200  0.63854  1.0000
  C   C2618     1.0  0.70739  0.31496  0.49160  1.0000
  H   H2087     1.0  0.55014  0.28607  0.54205  1.0000
  C   C2619     1.0  0.66754  0.07596  0.62838  1.0000
  H   H2088     1.0  0.60176  0.26108  0.64131  1.0000
  H   H2089     1.0  0.75539  0.31183  0.53838  1.0000
  H   H2090     1.0  0.99806  0.00286  0.72023  1.0000
  H   H2091     1.0  0.56024  0.17917  0.51125  1.0000
  H   H2092     1.0  0.65991  0.30554  0.59599  1.0000
  C   C2620     1.0  0.51848  0.30320  0.65912  1.0000
  C   C2621     1.0  0.58028  0.03339  0.66374  1.0000
  C   C2622     1.0  0.55451  0.00437  0.65946  1.0000
  H   H2093     1.0  0.68314  0.19378  0.62609  1.0000
  H   H2094     1.0  0.55375  0.28415  0.49478  1.0000
  H   H2095     1.0  0.99709  0.18245  0.73348  1.0000
  C   C2623     1.0  0.59057  0.02141  0.48846  1.0000
  C   C2624     1.0  0.63225  0.30590  0.61308  1.0000
  C   C2625     1.0  0.61568  0.29306  0.62582  1.0000
  C   C2626     1.0  0.61496  0.27117  0.63177  1.0000
  C   C2627     1.0  0.63091  0.26206  0.62517  1.0000
  C   C2628     1.0  0.64732  0.27472  0.61245  1.0000
  C   C2629     1.0  0.64757  0.29630  0.60618  1.0000
  H   H2096     1.0  0.68240  0.04950  0.63406  1.0000
  H   H2097     1.0  0.61333  0.01518  0.52515  1.0000
  H   H2098     1.0  0.52262  0.28772  0.65991  1.0000
  C   C2630     1.0  0.63515  0.10907  0.54460  1.0000
  C   C2631     1.0  0.53748  0.25170  0.54416  1.0000
  C   C2632     1.0  0.52932  0.31868  0.66484  1.0000
  H   H2099     1.0  0.67547  0.07947  0.61685  1.0000
  C   C2633     1.0  0.61482  0.12099  0.52744  1.0000
  H   H2100     1.0  0.57130  0.00293  0.56696  1.0000
  C   C2634     1.0  0.64153  0.13041  0.54562  1.0000
  C   C2635     1.0  0.58496  0.30669  0.49141  1.0000
  H   H2101     1.0  0.65977  0.26784  0.60728  1.0000
  H   H2102     1.0  0.00030  0.24399  0.69180  1.0000
  H   H2103     1.0  0.55981  0.13889  0.59401  1.0000
  C   C2636     1.0  0.65735  0.10770  0.60269  1.0000
  C   C2637     1.0  0.64493  0.09319  0.59695  1.0000
  C   C2638     1.0  0.65319  0.09222  0.58274  1.0000
  C   C2639     1.0  0.67398  0.10555  0.57418  1.0000
  C   C2640     1.0  0.68664  0.11976  0.57990  1.0000
  C   C2641     1.0  0.67846  0.12072  0.59414  1.0000
  H   H2104     1.0  0.65525  0.15352  0.60210  1.0000
  H   H2105     1.0  0.62888  0.08258  0.60341  1.0000
  H   H2106     1.0  0.64342  0.08100  0.57842  1.0000
  H   H2107     1.0  0.68034  0.10472  0.56318  1.0000
  H   H2108     1.0  0.70282  0.13002  0.57330  1.0000
  H   H2109     1.0  0.68861  0.13166  0.59843  1.0000
  S   S358      1.0  0.55850  0.01791  0.60148  1.0000
  H   H2110     1.0  0.61726  0.13772  0.61563  1.0000
  H   H2111     1.0  0.58277  0.24209  0.51712  1.0000
  C   C2642     1.0  0.64255  0.08201  0.64860  1.0000
  C   C2643     1.0  0.53006  0.21330  0.52124  1.0000
  S   S359      1.0  0.53534  0.32187  0.53362  1.0000
  H   H2112     1.0  0.63097  0.09058  0.65279  1.0000
  H   H2113     1.0  0.71716  0.28816  0.54932  1.0000
  C   C2644     1.0  0.60281  0.12057  0.48617  1.0000
  S   S360      1.0  0.51104  0.32891  0.57291  1.0000
  C   C2645     1.0  0.68379  0.20406  0.52958  1.0000
  C   C2646     1.0  0.68352  0.20707  0.51503  1.0000
  C   C2647     1.0  0.69161  0.22800  0.50513  1.0000
  C   C2648     1.0  0.70008  0.24615  0.50972  1.0000
  C   C2649     1.0  0.62249  0.32059  0.58226  1.0000
  H   H2114     1.0  0.69097  0.22977  0.49399  1.0000
  H   H2115     1.0  0.67698  0.18797  0.53737  1.0000
  H   H2116     1.0  0.67632  0.19330  0.51150  1.0000
  H   H2117     1.0  0.99701  0.06628  0.68556  1.0000
  H   H2118     1.0  0.70752  0.25656  0.52804  1.0000
  C   C2650     1.0  0.53902  0.26721  0.56445  1.0000
  H   H2119     1.0  0.69255  0.21949  0.54551  1.0000
  H   H2120     1.0  0.65146  0.13403  0.55285  1.0000
  H   H2121     1.0  0.54068  0.31536  0.50567  1.0000
  C   C2651     1.0  0.55637  0.19308  0.51445  1.0000
  H   H2122     1.0  0.61195  0.02764  0.66440  1.0000
  C   C2652     1.0  0.60230  0.07577  0.51066  1.0000
  C   C2653     1.0  0.54435  0.05936  0.49963  1.0000
  C   C2654     1.0  0.63581  0.01503  0.55875  1.0000
  H   H2123     1.0  0.54748  0.21267  0.61369  1.0000
  C   C2655     1.0  0.51265  0.25470  0.50743  1.0000
  C   C2656     1.0  0.69995  0.29378  0.50134  1.0000
  C   C2657     1.0  0.51005  0.01910  0.64616  1.0000
  H   H2124     1.0  0.57237  0.11671  0.54406  1.0000
  H   H2125     1.0  0.63013  0.24501  0.62961  1.0000
  S   S361      1.0  0.87899  0.03423  0.69625  1.0000
  H   H2126     1.0  0.68026  0.16059  0.64562  1.0000
  H   H2127     1.0  0.52315  0.21662  0.55041  1.0000
  C   C2658     1.0  0.54740  0.23079  0.52078  1.0000
  C   C2659     1.0  0.57283  0.12421  0.52134  1.0000
  C   C2660     1.0  0.54408  0.13142  0.60225  1.0000
  C   C2661     1.0  0.70224  0.31309  0.54076  1.0000
  C   C2662     1.0  0.68254  0.28923  0.51399  1.0000
  H   H2128     1.0  0.64010  0.09610  0.55108  1.0000
  C   C2663     1.0  0.52517  0.31943  0.50846  1.0000
  C   C2664     1.0  0.56543  0.27819  0.51412  1.0000
  C   C2665     1.0  0.58881  0.08581  0.51876  1.0000
  H   H2129     1.0  0.60302  0.29968  0.63102  1.0000
  H   H2130     1.0  0.73913  0.30671  0.50661  1.0000
  C   C2666     1.0  0.70070  0.24289  0.52430  1.0000
  C   C2667     1.0  0.62499  0.03453  0.53853  1.0000
  C   C2668     1.0  0.59600  0.02142  0.66280  1.0000
  H   H2131     1.0  0.63883  0.16333  0.53888  1.0000
  C   C2669     1.0  0.61154  0.12772  0.49678  1.0000
  H   H2132     1.0  0.56820  0.13373  0.49972  1.0000
  C   C2670     1.0  0.92973  0.03817  0.71587  1.0000
  H   H2133     1.0  0.61532  0.15534  0.52290  1.0000
  C   C2671     1.0  0.51224  0.13416  0.61955  1.0000
  C   C2672     1.0  0.52772  0.23087  0.55417  1.0000
  H   H2134     1.0  0.54315  0.28141  0.56837  1.0000
  C   C2673     1.0  0.56914  0.22897  0.51742  1.0000
  C   C2674     1.0  0.53188  0.14442  0.60826  1.0000
  P   P86       1.0  0.54196  0.25522  0.52475  1.0000
  C   C2675     1.0  0.51846  0.32425  0.52168  1.0000
  H   H2135     1.0  0.62251  0.04949  0.53248  1.0000
  H   H2136     1.0  0.91518  0.02246  0.67550  1.0000
  C   C2676     1.0  0.60133  0.30218  0.51153  1.0000
  C   C2677     1.0  0.67629  0.17763  0.62518  1.0000
  H   H2137     1.0  0.53338  0.14306  0.50808  1.0000
  H   H2138     1.0  0.93654  0.02746  0.72271  1.0000
  C   C2678     1.0  0.51735  0.25965  0.51989  1.0000
  H   H2139     1.0  0.59024  0.20852  0.51200  1.0000
  H   H2140     1.0  0.55536  0.17319  0.55103  1.0000
  C   C2679     1.0  0.72010  0.30477  0.54263  1.0000
  S   S362      1.0  0.52654  0.04319  0.63250  1.0000
  H   H2141     1.0  0.60992  0.06876  0.63391  1.0000
  C   C2680     1.0  0.56640  0.17732  0.61047  1.0000
  H   H2142     1.0  0.61693  0.08765  0.53511  1.0000
  H   H2143     1.0  0.63661  0.04912  0.55414  1.0000
  P   P87       1.0  0.54323  0.17376  0.60286  1.0000
  P   P88       1.0  0.63367  0.33426  0.60525  1.0000
  C   C2681     1.0  0.66141  0.05358  0.65305  1.0000
  H   H2144     1.0  0.66434  0.04003  0.66046  1.0000
  H   H2145     1.0  0.66494  0.12394  0.64356  1.0000
  C   C2682     1.0  0.58113  0.17927  0.63113  1.0000
  C   C2683     1.0  0.56324  0.05007  0.53162  1.0000
  C   C2684     1.0  0.58009  0.07858  0.63408  1.0000
  C   C2685     1.0  0.60302  0.08254  0.63135  1.0000
  H   H2146     1.0  0.67055  0.18993  0.60433  1.0000
  C   C2686     1.0  0.67171  0.05900  0.63812  1.0000
  H   H2147     1.0  0.61506  0.30459  0.59002  1.0000
  C   C2687     1.0  0.56321  0.17726  0.62514  1.0000
  H   H2148     1.0  0.53924  0.15638  0.57753  1.0000
  H   H2149     1.0  0.57871  0.17984  0.64232  1.0000
  C   C2688     1.0  0.58333  0.28434  0.51974  1.0000
  H   H2150     1.0  0.90878  0.02054  0.65036  1.0000
  P   P89       1.0  0.71263  0.27300  0.49689  1.0000
  H   H2151     1.0  0.90191  0.01221  0.71635  1.0000
  C   C2689     1.0  0.66049  0.15471  0.61170  1.0000
  P   P90       1.0  0.64654  0.10895  0.62104  1.0000
  H   H2152     1.0  0.61105  0.31043  0.56508  1.0000
  C   C2690     1.0  0.61681  0.10396  0.62494  1.0000
  C   C2691     1.0  0.57070  0.09583  0.63035  1.0000
  C   C2692     1.0  0.51638  0.09852  0.61785  1.0000
  H   H2153     1.0  0.54401  0.04367  0.50641  1.0000
  H   H2154     1.0  0.63035  0.24619  0.49276  1.0000
  C   C2693     1.0  0.56413  0.12266  0.53610  1.0000
  Fe  Fe178     1.0  0.85143  0.00263  0.70561  1.0000
  H   H2155     1.0  0.57700  0.13044  0.62059  1.0000
  C   C2694     1.0  0.98354  0.20899  0.72610  1.0000
  C   C2695     1.0  0.57348  0.20996  0.51458  1.0000
  H   H2156     1.0  0.52611  0.10399  0.50306  1.0000
  C   C2696     1.0  0.67465  0.15893  0.63616  1.0000
  H   H2157     1.0  0.55880  0.07982  0.53608  1.0000
  H   H2158     1.0  0.67437  0.26341  0.48582  1.0000
  C   C2697     1.0  0.59611  0.05310  0.51293  1.0000
  C   C2698     1.0  0.66921  0.17549  0.61295  1.0000
  C   C2699     1.0  0.60721  0.12119  0.62103  1.0000
  C   C2700     1.0  0.58426  0.11712  0.62377  1.0000
  H   H2159     1.0  0.63895  0.06089  0.66990  1.0000
  H   H2160     1.0  0.50316  0.14368  0.62499  1.0000
  H   H2161     1.0  0.53447  0.01146  0.49766  1.0000
  H   H2162     1.0  0.52380  0.24846  0.50047  1.0000
  H   H2163     1.0  0.57188  0.02258  0.52545  1.0000
  H   H2164     1.0  0.51808  0.13986  0.53426  1.0000
  C   C2701     1.0  0.50134  0.18844  0.48737  1.0000
  C   C2702     1.0  0.63303  0.03440  0.55068  1.0000
  S   S363      1.0  0.53052  0.01646  0.56902  1.0000
  H   H2165     1.0  0.53810  0.12706  0.55221  1.0000
  H   H2166     1.0  0.52142  0.18174  0.51732  1.0000
  C   C2703     1.0  0.61999  0.32388  0.56816  1.0000
  H   H2167     1.0  0.64166  0.01513  0.56830  1.0000
  C   C2704     1.0  0.94324  0.01447  0.66311  1.0000
  C   C2705     1.0  0.99799  0.04987  0.68542  1.0000
  H   H2168     1.0  0.99514  0.04924  0.64927  1.0000
  H   H2169     1.0  0.99629  0.17740  0.69386  1.0000
  H   H2170     1.0  0.78689  0.26076  0.49052  1.0000
  C   C2706     1.0  0.00025  0.00724  0.68595  1.0000
  H   H2171     1.0  0.70598  0.00913  0.56715  1.0000
  C   C2707     1.0  0.64658  0.00949  0.62948  1.0000
  H   H2172     1.0  0.63872  0.15032  0.50006  1.0000
  C   C2708     1.0  0.69246  0.22194  0.53419  1.0000
  C   C2709     1.0  0.53625  0.10860  0.60694  1.0000
  C   C2710     1.0  0.56678  0.28904  0.49967  1.0000
  H   H2173     1.0  0.97495  0.01130  0.65196  1.0000
  H   H2174     1.0  0.52685  0.24448  0.58591  1.0000
  H   H2175     1.0  0.91546  0.13472  0.72944  1.0000
  C   C2711     1.0  0.77141  0.30142  0.50332  1.0000
  H   H2176     1.0  0.51722  0.31526  0.48895  1.0000
  C   C2712     1.0  0.74167  0.31813  0.53641  1.0000
  C   C2713     1.0  0.92668  0.12567  0.73289  1.0000
  C   C2714     1.0  0.55071  0.00954  0.49799  1.0000
  H   H2177     1.0  0.95242  0.00436  0.63397  1.0000
  C   C2715     1.0  0.53420  0.07305  0.50628  1.0000
  C   C2716     1.0  0.52385  0.22826  0.56918  1.0000
  C   C2717     1.0  0.74109  0.27967  0.49726  1.0000
  Fe  Fe179     1.0  0.53968  0.33047  0.58266  1.0000
  C   C2718     1.0  0.63166  0.14406  0.49228  1.0000
  H   H2178     1.0  0.74815  0.25262  0.48939  1.0000
  C   C2719     1.0  0.51601  0.21978  0.61659  1.0000
  C   C2720     1.0  0.96063  0.11486  0.72727  1.0000
  C   C2721     1.0  0.99443  0.14702  0.68855  1.0000
  H   H2179     1.0  0.98065  0.14802  0.68398  1.0000
  C   C2722     1.0  0.70225  0.33148  0.57383  1.0000
  H   H2180     1.0  0.54178  0.31513  0.67018  1.0000
  C   C2723     1.0  0.75463  0.26649  0.49308  1.0000
  H   H2181     1.0  0.51309  0.21417  0.52394  1.0000
  H   H2182     1.0  0.68729  0.32827  0.57042  1.0000
  C   C2724     1.0  0.50224  0.18293  0.60730  1.0000
  C   C2725     1.0  0.97979  0.01148  0.69053  1.0000
  C   C2726     1.0  0.51187  0.31951  0.49888  1.0000
  C   C2727     1.0  0.99965  0.23054  0.70088  1.0000
  C   C2728     1.0  0.70591  0.33462  0.53236  1.0000
  C   C2729     1.0  0.89664  0.00481  0.65417  1.0000
  H   H2183     1.0  0.99586  0.11579  0.68486  1.0000
  H   H2184     1.0  0.67735  0.32768  0.60819  1.0000
  C   C2730     1.0  0.99805  0.19584  0.72430  1.0000
  H   H2185     1.0  0.50631  0.27293  0.53778  1.0000
  C   C2731     1.0  0.69739  0.33126  0.49440  1.0000
  C   C2732     1.0  0.78494  0.28851  0.49883  1.0000
  C   C2733     1.0  0.87611  0.00341  0.65128  1.0000
  C   C2734     1.0  0.76701  0.05123  0.84755  1.0000
  C   C2735     1.0  0.74585  0.06394  0.95385  1.0000
  S   S364      1.0  0.88243  0.03698  0.81230  1.0000
  Fe  Fe180     1.0  0.85230  0.02368  0.83133  1.0000
  H   H2186     1.0  0.69812  0.30072  0.97580  1.0000
  S   S365      1.0  0.93502  0.04695  0.82411  1.0000
  H   H2187     1.0  0.82395  0.10161  0.88853  1.0000
  S   S366      1.0  0.82926  0.04527  0.83301  1.0000
  H   H2188     1.0  0.86163  0.09386  0.80097  1.0000
  H   H2189     1.0  0.98217  0.03560  0.87697  1.0000
  S   S367      1.0  0.64571  0.06942  0.96738  1.0000
  H   H2190     1.0  0.92271  0.04144  0.85608  1.0000
  H   H2191     1.0  0.94671  0.09611  0.81493  1.0000
  H   H2192     1.0  0.82611  0.10711  0.91250  1.0000
  H   H2193     1.0  0.73074  0.06248  0.96189  1.0000
  C   C2736     1.0  0.66394  0.05295  0.96540  1.0000
  C   C2737     1.0  0.67351  0.05101  0.95157  1.0000
  C   C2738     1.0  0.68826  0.03790  0.95002  1.0000
  H   H2194     1.0  0.81626  0.01300  0.86128  1.0000
  H   H2195     1.0  0.66935  0.05946  0.94211  1.0000
  H   H2196     1.0  0.69547  0.03624  0.93940  1.0000
  H   H2197     1.0  0.90602  0.11194  0.75489  1.0000
  C   C2739     1.0  0.88491  0.06020  0.77625  1.0000
  C   C2740     1.0  0.94110  0.01571  0.77219  1.0000
  C   C2741     1.0  0.81586  0.06651  0.85291  1.0000
  Fe  Fe181     1.0  0.72713  0.00527  0.94000  1.0000
  H   H2198     1.0  0.86803  0.06783  0.83699  1.0000
  H   H2199     1.0  0.94487  0.08849  0.89861  1.0000
  C   C2742     1.0  0.59909  0.02956  0.96607  1.0000
  H   H2200     1.0  0.92764  0.01864  0.90718  1.0000
  H   H2201     1.0  0.89094  0.05026  0.76963  1.0000
  H   H2202     1.0  0.96622  0.09209  0.74483  1.0000
  C   C2743     1.0  0.94919  0.05582  0.83620  1.0000
  C   C2744     1.0  0.97112  0.06842  0.83012  1.0000
  C   C2745     1.0  0.98358  0.07648  0.83876  1.0000
  C   C2746     1.0  0.97423  0.07205  0.85372  1.0000
  C   C2747     1.0  0.95219  0.05929  0.85999  1.0000
  C   C2748     1.0  0.93968  0.05104  0.85125  1.0000
  H   H2203     1.0  0.97858  0.07180  0.81860  1.0000
  H   H2204     1.0  0.99130  0.13880  0.77461  1.0000
  H   H2205     1.0  0.94486  0.05578  0.87157  1.0000
  S   S368      1.0  0.78906  0.05169  0.89637  1.0000
  C   C2749     1.0  0.84971  0.08823  0.91483  1.0000
  H   H2206     1.0  0.66444  0.07373  0.90811  1.0000
  H   H2207     1.0  0.97168  0.20573  0.73659  1.0000
  H   H2208     1.0  0.00039  0.08642  0.83377  1.0000
  C   C2750     1.0  0.79017  0.07584  0.97823  1.0000
  H   H2209     1.0  0.79706  0.06280  0.92480  1.0000
  H   H2210     1.0  0.89442  0.01950  0.89886  1.0000
  C   C2751     1.0  0.54992  0.08786  0.96938  1.0000
  H   H2211     1.0  0.88210  0.00563  0.75676  1.0000
  C   C2752     1.0  0.69375  0.02720  0.96226  1.0000
  C   C2753     1.0  0.76413  0.06671  0.92883  1.0000
  C   C2754     1.0  0.73921  0.02922  0.86984  1.0000
  H   H2212     1.0  0.68753  0.33128  0.96110  1.0000
  H   H2213     1.0  0.92812  0.05646  0.75007  1.0000
  C   C2755     1.0  0.93294  0.04815  0.75930  1.0000
  C   C2756     1.0  0.58836  0.10789  0.96447  1.0000
  C   C2757     1.0  0.94480  0.09802  0.78014  1.0000
  H   H2214     1.0  0.87218  0.06802  0.91450  1.0000
  H   H2215     1.0  0.91615  0.00805  0.84768  1.0000
  C   C2758     1.0  0.90019  0.05480  0.89413  1.0000
  C   C2759     1.0  0.86156  0.07320  0.89474  1.0000
  C   C2760     1.0  0.93557  0.02714  0.76021  1.0000
  H   H2216     1.0  0.75223  0.06419  0.86451  1.0000
  C   C2761     1.0  0.95519  0.10157  0.74161  1.0000
  C   C2762     1.0  0.80056  0.04932  0.87896  1.0000
  C   C2763     1.0  0.66373  0.05651  0.91002  1.0000
  H   H2217     1.0  0.87975  0.01940  0.87495  1.0000
  Fe  Fe182     1.0  0.76298  0.02178  0.91136  1.0000
  C   C2764     1.0  0.93345  0.07344  0.89901  1.0000
  H   H2218     1.0  0.98015  0.12663  0.80163  1.0000
  C   C2765     1.0  0.76842  0.03236  0.84323  1.0000
  C   C2766     1.0  0.51481  0.11547  0.96417  1.0000
  C   C2767     1.0  0.68445  0.02949  0.97592  1.0000
  H   H2219     1.0  0.54263  0.07413  0.95215  1.0000
  P   P91       1.0  0.92895  0.08362  0.77031  1.0000
  C   C2768     1.0  0.91434  0.07411  0.89452  1.0000
  H   H2220     1.0  0.61059  0.10766  0.94459  1.0000
  H   H2221     1.0  0.58110  0.08635  0.93673  1.0000
  H   H2222     1.0  0.76358  0.06817  0.91767  1.0000
  C   C2769     1.0  0.84770  0.08268  0.88759  1.0000
  C   C2770     1.0  0.94432  0.02545  0.78317  1.0000
  H   H2223     1.0  0.77773  0.06700  0.84073  1.0000
  C   C2771     1.0  0.66290  0.33304  0.97936  1.0000
  S   S369      1.0  0.99003  0.08271  0.86445  1.0000
  C   C2772     1.0  0.85829  0.02918  0.89112  1.0000
  C   C2773     1.0  0.97637  0.12581  0.78041  1.0000
  H   H2224     1.0  0.69496  0.06221  0.89418  1.0000
  C   C2774     1.0  0.75504  0.01175  0.85216  1.0000
  H   H2225     1.0  0.90582  0.09159  0.82495  1.0000
  C   C2775     1.0  0.60512  0.01153  0.94701  1.0000
  S   S370      1.0  0.99057  0.04220  0.74494  1.0000
  H   H2226     1.0  0.91101  0.08979  0.89087  1.0000
  C   C2776     1.0  0.80696  0.06791  0.86696  1.0000
  H   H2227     1.0  0.95336  0.05302  0.90664  1.0000
  H   H2228     1.0  0.55989  0.03147  0.94789  1.0000
  H   H2229     1.0  0.72832  0.02782  0.88034  1.0000
  C   C2777     1.0  0.96390  0.11531  0.77267  1.0000
  C   C2778     1.0  0.55522  0.08331  0.95585  1.0000
  C   C2779     1.0  0.64565  0.04076  0.92039  1.0000
  C   C2780     1.0  0.61142  0.01835  0.95844  1.0000
  H   H2230     1.0  0.62598  0.01525  0.96143  1.0000
  P   P92       1.0  0.52179  0.07814  0.98108  1.0000
  C   C2781     1.0  0.51672  0.03774  0.97505  1.0000
  H   H2231     1.0  0.70773  0.14329  0.98200  1.0000
  C   C2782     1.0  0.59361  0.10258  0.95131  1.0000
  H   H2232     1.0  0.82032  0.08083  0.84362  1.0000
  C   C2783     1.0  0.90496  0.03470  0.89894  1.0000
  H   H2233     1.0  0.50875  0.14374  0.95094  1.0000
  C   C2784     1.0  0.86225  0.07582  0.90852  1.0000
  C   C2785     1.0  0.68267  0.13187  0.97220  1.0000
  C   C2786     1.0  0.98139  0.02210  0.81799  1.0000
  C   C2787     1.0  0.81897  0.04666  0.85082  1.0000
  H   H2234     1.0  0.79826  0.09831  0.95660  1.0000
  C   C2788     1.0  0.97005  0.11904  0.79564  1.0000
  C   C2789     1.0  0.80388  0.02947  0.87692  1.0000
  C   C2790     1.0  0.81345  0.02824  0.86286  1.0000
  C   C2791     1.0  0.83615  0.09782  0.90753  1.0000
  C   C2792     1.0  0.97786  0.01837  0.89936  1.0000
  C   C2793     1.0  0.93576  0.05795  0.77042  1.0000
  C   C2794     1.0  0.83506  0.09491  0.89397  1.0000
  C   C2795     1.0  0.89952  0.07748  0.77858  1.0000
  H   H2235     1.0  0.94857  0.01669  0.79248  1.0000
  H   H2236     1.0  0.85124  0.04130  0.78122  1.0000
  C   C2796     1.0  0.92385  0.03408  0.90369  1.0000
  H   H2237     1.0  0.57086  0.04252  0.96859  1.0000
  C   C2797     1.0  0.57702  0.09044  0.94695  1.0000
  H   H2238     1.0  0.96956  0.12047  0.76090  1.0000
  H   H2239     1.0  0.93312  0.01968  0.75167  1.0000
  H   H2240     1.0  0.65424  0.11929  0.96527  1.0000
  C   C2798     1.0  0.67944  0.32458  0.97269  1.0000
  C   C2799     1.0  0.90027  0.08534  0.83674  1.0000
  C   C2800     1.0  0.66927  0.04199  0.97759  1.0000
  C   C2801     1.0  0.87893  0.07181  0.84355  1.0000
  C   C2802     1.0  0.68008  0.02785  0.90479  1.0000
  H   H2241     1.0  0.85027  0.09016  0.92545  1.0000
  C   C2803     1.0  0.87182  0.06309  0.85873  1.0000
  H   H2242     1.0  0.63264  0.04622  0.92636  1.0000
  C   C2804     1.0  0.57434  0.02791  0.95077  1.0000
  C   C2805     1.0  0.94158  0.04643  0.78234  1.0000
  H   H2243     1.0  0.97004  0.02765  0.82522  1.0000
  H   H2244     1.0  0.79940  0.01519  0.88618  1.0000
  C   C2806     1.0  0.78362  0.06149  0.94735  1.0000
  H   H2245     1.0  0.82132  0.01397  0.80339  1.0000
  C   C2807     1.0  0.64471  0.01837  0.92307  1.0000
  H   H2246     1.0  0.52763  0.11450  0.95530  1.0000
  H   H2247     1.0  0.83305  0.03330  0.90830  1.0000
  C   C2808     1.0  0.93553  0.10039  0.75173  1.0000
  C   C2809     1.0  0.92132  0.11261  0.74730  1.0000
  H   H2248     1.0  0.85527  0.05244  0.86377  1.0000
  C   C2810     1.0  0.54016  0.15736  0.98315  1.0000
  H   H2249     1.0  0.73053  0.06797  0.93629  1.0000
  C   C2811     1.0  0.66002  0.12474  0.97381  1.0000
  C   C2812     1.0  0.58044  0.03412  0.96240  1.0000
  C   C2813     1.0  0.78309  0.06388  0.93287  1.0000
  H   H2250     1.0  0.79824  0.05875  0.95038  1.0000
  C   C2814     1.0  0.98869  0.03272  0.80306  1.0000
  C   C2815     1.0  0.93826  0.05344  0.90352  1.0000
  H   H2251     1.0  0.98289  0.04665  0.79871  1.0000
  H   H2252     1.0  0.83115  0.12248  0.95929  1.0000
  S   S371      1.0  0.87138  0.01480  0.84731  1.0000
  C   C2816     1.0  0.83827  0.02235  0.90226  1.0000
  P   P93       1.0  0.76593  0.05799  0.97665  1.0000
  C   C2817     1.0  0.98882  0.00430  0.82370  1.0000
  C   C2818     1.0  0.88604  0.06792  0.86727  1.0000
  Fe  Fe183     1.0  0.90094  0.02515  0.82789  1.0000
  C   C2819     1.0  0.91448  0.09044  0.84512  1.0000
  H   H2253     1.0  0.74233  0.09215  0.97229  1.0000
  C   C2820     1.0  0.86816  0.08470  0.79389  1.0000
  H   H2254     1.0  0.69335  0.02271  0.89879  1.0000
  H   H2255     1.0  0.94380  0.05335  0.79114  1.0000
  C   C2821     1.0  0.95114  0.10191  0.80314  1.0000
  C   C2822     1.0  0.86219  0.05506  0.78282  1.0000
  H   H2256     1.0  0.91909  0.08575  0.86636  1.0000
  C   C2823     1.0  0.90743  0.08184  0.86031  1.0000
  H   H2257     1.0  0.69439  0.13218  0.96230  1.0000
  H   H2258     1.0  0.90172  0.10374  0.78890  1.0000
  C   C2824     1.0  0.76513  0.06196  0.95791  1.0000
  C   C2825     1.0  0.97295  0.02120  0.88597  1.0000
  P   P94       1.0  0.87674  0.05619  0.88692  1.0000
  H   H2259     1.0  0.84612  0.08019  0.87727  1.0000
  H   H2260     1.0  0.80460  0.08331  0.86848  1.0000
  C   C2826     1.0  0.89091  0.09004  0.78719  1.0000
  C   C2827     1.0  0.68093  0.05005  0.90220  1.0000
  C   C2828     1.0  0.58688  0.01699  0.94290  1.0000
  H   H2261     1.0  0.92417  0.07790  0.80149  1.0000
  C   C2829     1.0  0.66219  0.01213  0.91526  1.0000
  C   C2830     1.0  0.93849  0.09152  0.79546  1.0000
  C   C2831     1.0  0.85383  0.06714  0.79178  1.0000
  H   H2262     1.0  0.93124  0.10057  0.83986  1.0000
  H   H2263     1.0  0.83631  0.06266  0.79730  1.0000
  S   S372      1.0  0.71251  0.01115  0.96122  1.0000
  S   S373      1.0  0.72742  0.02243  0.91735  1.0000
  H   H2264     1.0  0.78033  0.03402  0.83310  1.0000
  C   C2832     1.0  0.75264  0.04965  0.86093  1.0000
  H   H2265     1.0  0.60413  0.03474  0.97482  1.0000
  C   C2833     1.0  0.68531  0.30729  0.98092  1.0000
  C   C2834     1.0  0.74552  0.06668  0.93932  1.0000
  C   C2835     1.0  0.86427  0.01451  0.88345  1.0000
  H   H2266     1.0  0.99243  0.00360  0.77457  1.0000
  C   C2836     1.0  0.69013  0.13809  0.98346  1.0000
  C   C2837     1.0  0.56664  0.10054  0.97348  1.0000
  C   C2838     1.0  0.78567  0.02389  0.98361  1.0000
  C   C2839     1.0  0.50879  0.10022  0.97800  1.0000
  C   C2840     1.0  0.76598  0.02971  0.98289  1.0000
  S   S374      1.0  0.76339  0.00773  0.93436  1.0000
  H   H2267     1.0  0.53251  0.03778  0.97723  1.0000
  H   H2268     1.0  0.54031  0.15236  0.97330  1.0000
  C   C2841     1.0  0.73500  0.08143  0.98329  1.0000
  C   C2842     1.0  0.50411  0.13206  0.96165  1.0000
  C   C2843     1.0  0.50705  0.05491  0.97655  1.0000
  H   H2269     1.0  0.60127  0.11700  0.96799  1.0000
  H   H2270     1.0  0.51835  0.17786  0.97960  1.0000
  H   H2271     1.0  0.58222  0.01270  0.93372  1.0000
  C   C2844     1.0  0.95667  0.00520  0.88397  1.0000
  Fe  Fe184     1.0  0.87526  0.00332  0.80952  1.0000
  C   C2845     1.0  0.80279  0.09440  0.96671  1.0000
  H   H2272     1.0  0.99943  0.09146  0.79681  1.0000
  C   C2846     1.0  0.82726  0.10382  0.98131  1.0000
  C   C2847     1.0  0.82136  0.10825  0.96824  1.0000
  C   C2848     1.0  0.50595  0.02022  0.97088  1.0000
  H   H2273     1.0  0.99318  0.00590  0.85875  1.0000
  H   H2274     1.0  0.95401  0.00767  0.87326  1.0000
  H   H2275     1.0  0.80130  0.03623  0.98023  1.0000
  H   H2276     1.0  0.68909  0.02137  0.98520  1.0000
  C   C2849     1.0  0.74025  0.01040  0.86541  1.0000
  H   H2277     1.0  0.51360  0.00711  0.96965  1.0000
  H   H2278     1.0  0.80322  0.00672  0.82958  1.0000
  H   H2279     1.0  0.56330  0.10419  0.98384  1.0000
  H   H2280     1.0  0.84168  0.11453  0.98247  1.0000
  C   C2850     1.0  0.80365  0.00653  0.80764  1.0000
  H   H2281     1.0  0.99084  0.03067  0.90069  1.0000
  H   H2282     1.0  0.79925  0.00407  0.78681  1.0000
  C   C2851     1.0  0.79337  0.00234  0.82249  1.0000
  H   H2283     1.0  0.73092  0.01719  0.98573  1.0000
  Fe  Fe185     1.0  0.55069  0.37477  0.15549  1.0000
  C   C2852     1.0  0.80031  0.46840  0.21284  1.0000
  S   S375      1.0  0.58444  0.37780  0.15929  1.0000
  Fe  Fe186     1.0  0.52844  0.37660  0.13054  1.0000
  S   S376      1.0  0.53645  0.38444  0.10584  1.0000
  S   S377      1.0  0.53941  0.40106  0.14233  1.0000
  C   C2853     1.0  0.58418  0.37745  0.02430  1.0000
  Fe  Fe187     1.0  0.70540  0.39591  0.19559  1.0000
  S   S378      1.0  0.69342  0.41957  0.20688  1.0000
  S   S379      1.0  0.70067  0.35971  0.20585  1.0000
  Fe  Fe188     1.0  0.71953  0.42889  0.16536  1.0000
  S   S380      1.0  0.70876  0.45495  0.17450  1.0000
  S   S381      1.0  0.73313  0.43480  0.14084  1.0000
  Fe  Fe189     1.0  0.72508  0.44445  0.19225  1.0000
  S   S382      1.0  0.74444  0.47235  0.19941  1.0000
  Fe  Fe190     1.0  0.67843  0.42806  0.18826  1.0000
  S   S383      1.0  0.64304  0.43093  0.19115  1.0000
  S   S384      1.0  0.73789  0.41998  0.18204  1.0000
  S   S385      1.0  0.68857  0.40295  0.17809  1.0000
  Fe  Fe191     1.0  0.68041  0.39599  0.08225  1.0000
  S   S386      1.0  0.71304  0.39139  0.07177  1.0000
  S   S387      1.0  0.66980  0.39499  0.10609  1.0000
  Fe  Fe192     1.0  0.66421  0.39748  0.05478  1.0000
  S   S388      1.0  0.69598  0.39296  0.04229  1.0000
  S   S389      1.0  0.63811  0.40668  0.04398  1.0000
  Fe  Fe193     1.0  0.69327  0.36754  0.06289  1.0000
  H   H2284     1.0  0.50263  0.40072  0.21921  1.0000
  Fe  Fe194     1.0  0.71283  0.41722  0.05233  1.0000
  S   S390      1.0  0.74287  0.44488  0.03843  1.0000
  S   S391      1.0  0.66039  0.37038  0.07464  1.0000
  S   S392      1.0  0.68141  0.42357  0.06341  1.0000
  C   C2854     1.0  0.92922  0.60725  0.05506  1.0000
  H   H2285     1.0  0.74939  0.36126  0.05108  1.0000
  C   C2855     1.0  0.57969  0.47679  0.15226  1.0000
  H   H2286     1.0  0.85441  0.64844  0.05015  1.0000
  H   H2287     1.0  0.68575  0.34051  0.03964  1.0000
  C   C2856     1.0  0.68621  0.46911  0.08899  1.0000
  H   H2288     1.0  0.52088  0.35721  0.06526  1.0000
  C   C2857     1.0  0.74648  0.53650  0.05660  1.0000
  C   C2858     1.0  0.74954  0.50901  0.09113  1.0000
  H   H2289     1.0  0.89611  0.58939  0.05717  1.0000
  H   H2290     1.0  0.71209  0.48706  0.05976  1.0000
  C   C2859     1.0  0.87062  0.66066  0.21633  1.0000
  C   C2860     1.0  0.65389  0.37766  0.98820  1.0000
  C   C2861     1.0  0.91375  0.65332  0.98709  1.0000
  H   H2291     1.0  0.70081  0.46414  0.09056  1.0000
  H   H2292     1.0  0.61665  0.41242  0.07333  1.0000
  C   C2862     1.0  0.78013  0.63292  0.03064  1.0000
  C   C2863     1.0  0.87127  0.59008  0.13596  1.0000
  C   C2864     1.0  0.86897  0.64048  0.21326  1.0000
  C   C2865     1.0  0.91128  0.58867  0.06011  1.0000
  Fe  Fe195     1.0  0.83429  0.58142  0.02822  1.0000
  S   S393      1.0  0.86229  0.59886  0.03508  1.0000
  Fe  Fe196     1.0  0.82158  0.54046  0.05398  1.0000
  S   S394      1.0  0.84848  0.55465  0.06322  1.0000
  S   S395      1.0  0.79720  0.50777  0.06712  1.0000
  Fe  Fe197     1.0  0.83888  0.58605  0.05766  1.0000
  S   S396      1.0  0.83331  0.60786  0.07235  1.0000
  Fe  Fe198     1.0  0.86967  0.56610  0.03996  1.0000
  S   S397      1.0  0.90424  0.56216  0.03595  1.0000
  S   S398      1.0  0.81010  0.57104  0.05043  1.0000
  S   S399      1.0  0.84356  0.54947  0.03112  1.0000
  C   C2866     1.0  0.87768  0.55395  0.13947  1.0000
  H   H2293     1.0  0.89970  0.58844  0.00928  1.0000
  C   C2867     1.0  0.91701  0.59215  0.00896  1.0000
  C   C2868     1.0  0.92368  0.58184  0.02074  1.0000
  C   C2869     1.0  0.94621  0.58652  0.02010  1.0000
  C   C2870     1.0  0.96207  0.60159  0.00774  1.0000
  C   C2871     1.0  0.68675  0.49137  0.08472  1.0000
  H   H2294     1.0  0.78744  0.41413  0.99448  1.0000
  H   H2295     1.0  0.95131  0.57820  0.02913  1.0000
  H   H2296     1.0  0.97945  0.60492  0.00719  1.0000
  C   C2872     1.0  0.85662  0.62026  0.07711  1.0000
  H   H2297     1.0  0.98898  0.65852  0.22197  1.0000
  H   H2298     1.0  0.69148  0.59128  0.08777  1.0000
  C   C2873     1.0  0.75939  0.54071  0.04226  1.0000
  C   C2874     1.0  0.95115  0.58632  0.06643  1.0000
  C   C2875     1.0  0.53468  0.39976  0.22268  1.0000
  H   H2299     1.0  0.82127  0.61902  0.16159  1.0000
  C   C2876     1.0  0.67796  0.41751  0.01058  1.0000
  C   C2877     1.0  0.54624  0.45296  0.17023  1.0000
  H   H2300     1.0  0.77918  0.44960  0.20293  1.0000
  H   H2301     1.0  0.65044  0.36656  0.01673  1.0000
  C   C2878     1.0  0.66680  0.45301  0.09112  1.0000
  C   C2879     1.0  0.75547  0.40485  0.02233  1.0000
  C   C2880     1.0  0.90026  0.58353  0.11826  1.0000
  C   C2881     1.0  0.75761  0.46228  0.04661  1.0000
  C   C2882     1.0  0.77638  0.47906  0.03780  1.0000
  C   C2883     1.0  0.78835  0.49345  0.04390  1.0000
  C   C2884     1.0  0.78173  0.49100  0.05890  1.0000
  C   C2885     1.0  0.76288  0.47426  0.06770  1.0000
  C   C2886     1.0  0.75083  0.45995  0.06159  1.0000
  H   H2302     1.0  0.78167  0.48101  0.02621  1.0000
  H   H2303     1.0  0.80286  0.50624  0.03704  1.0000
  H   H2304     1.0  0.75769  0.47219  0.07933  1.0000
  H   H2305     1.0  0.73636  0.44712  0.06847  1.0000
  C   C2887     1.0  0.61788  0.39391  0.03653  1.0000
  C   C2888     1.0  0.60361  0.37273  0.04321  1.0000
  H   H2306     1.0  0.85955  0.63140  0.00680  1.0000
  H   H2307     1.0  0.76550  0.40166  0.04211  1.0000
  C   C2889     1.0  0.59858  0.39840  0.01771  1.0000
  C   C2890     1.0  0.61500  0.40664  0.02387  1.0000
  H   H2308     1.0  0.60530  0.36289  0.05317  1.0000
  C   C2891     1.0  0.69659  0.36022  0.15646  1.0000
  H   H2309     1.0  0.59669  0.40857  0.00792  1.0000
  H   H2310     1.0  0.62544  0.42316  0.01881  1.0000
  C   C2892     1.0  0.78957  0.49958  0.21855  1.0000
  C   C2893     1.0  0.56231  0.43495  0.21384  1.0000
  H   H2311     1.0  0.66807  0.44276  0.01924  1.0000
  P   P95       1.0  0.74020  0.40991  0.99763  1.0000
  H   H2312     1.0  0.75930  0.51880  0.08029  1.0000
  C   C2894     1.0  0.76743  0.47690  0.20699  1.0000
  C   C2895     1.0  0.78198  0.46357  0.20719  1.0000
  H   H2313     1.0  0.73757  0.44813  0.00836  1.0000
  H   H2314     1.0  0.57417  0.42351  0.15238  1.0000
  H   H2315     1.0  0.97943  0.63510  0.01987  1.0000
  C   C2896     1.0  0.77152  0.49502  0.21262  1.0000
  P   P96       1.0  0.52657  0.37090  0.23218  1.0000
  C   C2897     1.0  0.66781  0.49716  0.08209  1.0000
  H   H2316     1.0  0.72978  0.34206  0.03659  1.0000
  H   H2317     1.0  0.76049  0.50551  0.21253  1.0000
  C   C2898     1.0  0.71537  0.42405  0.13110  1.0000
  C   C2899     1.0  0.69437  0.40991  0.13838  1.0000
  C   C2900     1.0  0.68063  0.40132  0.13053  1.0000
  C   C2901     1.0  0.68777  0.40659  0.11528  1.0000
  C   C2902     1.0  0.70869  0.42090  0.10787  1.0000
  C   C2903     1.0  0.72230  0.42981  0.11576  1.0000
  H   H2318     1.0  0.68856  0.40549  0.15006  1.0000
  H   H2319     1.0  0.66442  0.39037  0.13635  1.0000
  H   H2320     1.0  0.71435  0.42519  0.09608  1.0000
  H   H2321     1.0  0.73823  0.44123  0.10996  1.0000
  H   H2322     1.0  0.71606  0.47344  0.13025  1.0000
  C   C2904     1.0  0.80422  0.48634  0.21867  1.0000
  S   S400      1.0  0.82185  0.59466  0.00917  1.0000
  H   H2323     1.0  0.54309  0.38086  0.07655  1.0000
  C   C2905     1.0  0.59997  0.39388  0.16782  1.0000
  C   C2906     1.0  0.59066  0.40453  0.17752  1.0000
  C   C2907     1.0  0.60397  0.41610  0.18454  1.0000
  C   C2908     1.0  0.62660  0.41706  0.18187  1.0000
  C   C2909     1.0  0.63582  0.40705  0.17175  1.0000
  C   C2910     1.0  0.62260  0.39536  0.16491  1.0000
  H   H2324     1.0  0.57318  0.40335  0.17991  1.0000
  H   H2325     1.0  0.59668  0.42401  0.19220  1.0000
  H   H2326     1.0  0.65322  0.40845  0.16897  1.0000
  H   H2327     1.0  0.63004  0.38742  0.15729  1.0000
  C   C2911     1.0  0.73779  0.50666  0.04066  1.0000
  C   C2912     1.0  0.77825  0.34937  0.10703  1.0000
  C   C2913     1.0  0.65926  0.35434  0.20198  1.0000
  C   C2914     1.0  0.52726  0.36977  0.08305  1.0000
  H   H2328     1.0  0.66001  0.37022  0.20384  1.0000
  C   C2915     1.0  0.76047  0.50156  0.10135  1.0000
  H   H2329     1.0  0.76218  0.42248  0.01877  1.0000
  C   C2916     1.0  0.56062  0.47386  0.16343  1.0000
  C   C2917     1.0  0.83128  0.62247  0.99882  1.0000
  H   H2330     1.0  0.66649  0.43593  0.09444  1.0000
  H   H2331     1.0  0.88841  0.63609  0.04599  1.0000
  C   C2918     1.0  0.70334  0.54218  0.09700  1.0000
  H   H2332     1.0  0.92728  0.62226  0.04866  1.0000
  C   C2919     1.0  0.76468  0.43199  0.98779  1.0000
  C   C2920     1.0  0.69824  0.56161  0.09848  1.0000
  C   C2921     1.0  0.74834  0.48865  0.11540  1.0000
  C   C2922     1.0  0.87159  0.63635  0.13425  1.0000
  H   H2333     1.0  0.66839  0.37270  0.98996  1.0000
  C   C2923     1.0  0.69529  0.57617  0.08663  1.0000
  C   C2924     1.0  0.83032  0.61056  0.16801  1.0000
  H   H2334     1.0  0.53105  0.45066  0.17851  1.0000
  C   C2925     1.0  0.86223  0.65281  0.12844  1.0000
  C   C2926     1.0  0.70290  0.35623  0.10788  1.0000
  P   P97       1.0  0.73949  0.35989  0.11876  1.0000
  C   C2927     1.0  0.72804  0.36189  0.13685  1.0000
  C   C2928     1.0  0.86754  0.65661  0.04021  1.0000
  C   C2929     1.0  0.99066  0.66277  0.06277  1.0000
  C   C2930     1.0  0.60245  0.33811  0.13695  1.0000
  C   C2931     1.0  0.64223  0.35123  0.02498  1.0000
  C   C2932     1.0  0.51969  0.36842  0.09790  1.0000
  H   H2335     1.0  0.59478  0.36537  0.19956  1.0000
  C   C2933     1.0  0.74197  0.36570  0.14577  1.0000
  C   C2934     1.0  0.73322  0.36667  0.15992  1.0000
  C   C2935     1.0  0.71057  0.36381  0.16524  1.0000
  H   H2336     1.0  0.70390  0.36475  0.17611  1.0000
  C   C2936     1.0  0.54730  0.44482  0.20841  1.0000
  C   C2937     1.0  0.75260  0.38688  0.10619  1.0000
  C   C2938     1.0  0.75399  0.39052  0.09127  1.0000
  C   C2939     1.0  0.76509  0.41110  0.08139  1.0000
  C   C2940     1.0  0.77519  0.42807  0.08629  1.0000
  C   C2941     1.0  0.77384  0.42462  0.10110  1.0000
  C   C2942     1.0  0.76247  0.40417  0.11104  1.0000
  H   H2337     1.0  0.81829  0.61111  0.10242  1.0000
  H   H2338     1.0  0.67906  0.35852  0.16061  1.0000
  H   H2339     1.0  0.70472  0.37331  0.10736  1.0000
  H   H2340     1.0  0.91023  0.57698  0.21291  1.0000
  H   H2341     1.0  0.92772  0.61367  0.98713  1.0000
  S   S401      1.0  0.86477  0.59674  0.21959  1.0000
  H   H2342     1.0  0.55229  0.46214  0.20270  1.0000
  C   C2943     1.0  0.74416  0.39411  0.01408  1.0000
  H   H2343     1.0  0.75960  0.36808  0.14178  1.0000
  H   H2344     1.0  0.74391  0.36986  0.16679  1.0000
  C   C2944     1.0  0.94431  0.64747  0.22421  1.0000
  C   C2945     1.0  0.87239  0.66268  0.22998  1.0000
  C   C2946     1.0  0.89504  0.56173  0.12660  1.0000
  H   H2345     1.0  0.74657  0.37747  0.08723  1.0000
  H   H2346     1.0  0.76576  0.41400  0.06993  1.0000
  H   H2347     1.0  0.78391  0.44398  0.07863  1.0000
  H   H2348     1.0  0.78115  0.43799  0.10493  1.0000
  H   H2349     1.0  0.76124  0.40215  0.12249  1.0000
  C   C2947     1.0  0.64783  0.45885  0.08893  1.0000
  H   H2350     1.0  0.69215  0.39368  0.00301  1.0000
  C   C2948     1.0  0.58431  0.45881  0.14771  1.0000
  H   H2351     1.0  0.84295  0.56118  0.99175  1.0000
  P   P98       1.0  0.60769  0.46261  0.13238  1.0000
  C   C2949     1.0  0.63189  0.46071  0.13851  1.0000
  C   C2950     1.0  0.60065  0.44133  0.12372  1.0000
  C   C2951     1.0  0.60531  0.42116  0.12840  1.0000
  C   C2952     1.0  0.59823  0.40391  0.12279  1.0000
  C   C2953     1.0  0.58624  0.40651  0.11256  1.0000
  C   C2954     1.0  0.58173  0.42654  0.10765  1.0000
  C   C2955     1.0  0.58885  0.44391  0.11322  1.0000
  C   C2956     1.0  0.64886  0.45426  0.13030  1.0000
  C   C2957     1.0  0.66729  0.45205  0.13521  1.0000
  C   C2958     1.0  0.66930  0.45694  0.14811  1.0000
  C   C2959     1.0  0.65295  0.46429  0.15602  1.0000
  C   C2960     1.0  0.63414  0.46590  0.15136  1.0000
  C   C2961     1.0  0.61280  0.48918  0.11962  1.0000
  C   C2962     1.0  0.63446  0.50257  0.11297  1.0000
  C   C2963     1.0  0.63821  0.52328  0.10332  1.0000
  C   C2964     1.0  0.62043  0.53070  0.10016  1.0000
  C   C2965     1.0  0.59884  0.51750  0.10673  1.0000
  C   C2966     1.0  0.59502  0.49687  0.11647  1.0000
  H   H2352     1.0  0.69408  0.35700  0.13564  1.0000
  H   H2353     1.0  0.79987  0.60997  0.03214  1.0000
  H   H2354     1.0  0.59057  0.49310  0.14703  1.0000
  H   H2355     1.0  0.61363  0.41829  0.13686  1.0000
  H   H2356     1.0  0.60140  0.38824  0.12682  1.0000
  H   H2357     1.0  0.58008  0.39282  0.10863  1.0000
  H   H2358     1.0  0.57195  0.42819  0.09994  1.0000
  H   H2359     1.0  0.58445  0.45893  0.10959  1.0000
  H   H2360     1.0  0.64760  0.45029  0.12032  1.0000
  H   H2361     1.0  0.67986  0.44627  0.12908  1.0000
  H   H2362     1.0  0.68325  0.45451  0.15217  1.0000
  H   H2363     1.0  0.65441  0.46779  0.16613  1.0000
  H   H2364     1.0  0.62125  0.47073  0.15799  1.0000
  H   H2365     1.0  0.64849  0.49709  0.11517  1.0000
  H   H2366     1.0  0.65493  0.53354  0.09825  1.0000
  H   H2367     1.0  0.62336  0.54671  0.09264  1.0000
  H   H2368     1.0  0.58501  0.52323  0.10432  1.0000
  H   H2369     1.0  0.57815  0.48688  0.12156  1.0000
  C   C2967     1.0  0.61746  0.37148  0.10172  1.0000
  C   C2968     1.0  0.95539  0.61150  0.99581  1.0000
  C   C2969     1.0  0.85434  0.59029  0.18485  1.0000
  H   H2370     1.0  0.96354  0.63901  0.20627  1.0000
  C   C2970     1.0  0.97259  0.64795  0.02264  1.0000
  H   H2371     1.0  0.96658  0.58522  0.06889  1.0000
  H   H2372     1.0  0.83218  0.59464  0.20325  1.0000
  H   H2373     1.0  0.62827  0.35181  0.19681  1.0000
  C   C2971     1.0  0.51467  0.35642  0.07662  1.0000
  H   H2374     1.0  0.82166  0.61982  0.22983  1.0000
  H   H2375     1.0  0.76624  0.62139  0.02957  1.0000
  C   C2972     1.0  0.94943  0.60611  0.05797  1.0000
  C   C2973     1.0  0.93311  0.56774  0.07148  1.0000
  H   H2376     1.0  0.63369  0.48545  0.08249  1.0000
  C   C2974     1.0  0.59735  0.37895  0.07918  1.0000
  H   H2377     1.0  0.85206  0.56163  0.15391  1.0000
  C   C2975     1.0  0.93117  0.56187  0.22395  1.0000
  C   C2976     1.0  0.58670  0.36453  0.03712  1.0000
  C   C2977     1.0  0.70561  0.53722  0.08359  1.0000
  H   H2378     1.0  0.69515  0.58259  0.06407  1.0000
  H   H2379     1.0  0.93470  0.55232  0.07758  1.0000
  C   C2978     1.0  0.89352  0.64217  0.13494  1.0000
  S   S402      1.0  0.56436  0.36822  0.01542  1.0000
  C   C2979     1.0  0.89291  0.64003  0.08568  1.0000
  H   H2380     1.0  0.63281  0.44622  0.09066  1.0000
  H   H2381     1.0  0.73479  0.49480  0.03462  1.0000
  H   H2382     1.0  0.90099  0.62979  0.13955  1.0000
  C   C2980     1.0  0.76014  0.34486  0.11928  1.0000
  C   C2981     1.0  0.50224  0.35716  0.22814  1.0000
  S   S403      1.0  0.91496  0.65156  0.09190  1.0000
  C   C2982     1.0  0.51945  0.40996  0.21763  1.0000
  H   H2383     1.0  0.86778  0.63920  0.20261  1.0000
  C   C2983     1.0  0.72496  0.50228  0.05502  1.0000
  H   H2384     1.0  0.60840  0.34847  0.15554  1.0000
  H   H2385     1.0  0.70631  0.46214  0.01779  1.0000
  C   C2984     1.0  0.56509  0.36781  0.21366  1.0000
  C   C2985     1.0  0.93185  0.66175  0.22799  1.0000
  C   C2986     1.0  0.68186  0.43681  0.01475  1.0000
  C   C2987     1.0  0.81110  0.58937  0.14396  1.0000
  C   C2988     1.0  0.72914  0.51723  0.06311  1.0000
  C   C2989     1.0  0.79911  0.62646  0.03208  1.0000
  C   C2990     1.0  0.62282  0.39240  0.09200  1.0000
  C   C2991     1.0  0.57045  0.43776  0.15519  1.0000
  H   H2386     1.0  0.58837  0.34480  0.13696  1.0000
  C   C2992     1.0  0.64835  0.48094  0.08436  1.0000
  H   H2387     1.0  0.70554  0.53118  0.10633  1.0000
  Fe  Fe199     1.0  0.53128  0.34331  0.02687  1.0000
  H   H2388     1.0  0.69667  0.56542  0.10882  1.0000
  H   H2389     1.0  0.77729  0.57401  0.14544  1.0000
  H   H2390     1.0  0.75025  0.54815  0.06265  1.0000
  C   C2993     1.0  0.85886  0.64121  0.07908  1.0000
  H   H2391     1.0  0.84653  0.64979  0.07732  1.0000
  C   C2994     1.0  0.79312  0.58438  0.13829  1.0000
  H   H2392     1.0  0.66796  0.51413  0.07825  1.0000
  C   C2995     1.0  0.72531  0.48355  0.11934  1.0000
  C   C2996     1.0  0.79426  0.33777  0.10751  1.0000
  H   H2393     1.0  0.78012  0.36187  0.09711  1.0000
  C   C2997     1.0  0.55592  0.41257  0.22116  1.0000
  H   H2394     1.0  0.55676  0.48782  0.16665  1.0000
  H   H2395     1.0  0.77304  0.55537  0.03735  1.0000
  C   C2998     1.0  0.69737  0.57128  0.07328  1.0000
  H   H2396     1.0  0.57571  0.34829  0.04225  1.0000
  H   H2397     1.0  0.62567  0.36906  0.11026  1.0000
  H   H2398     1.0  0.87057  0.59285  0.07826  1.0000
  C   C2999     1.0  0.70248  0.55188  0.07176  1.0000
  C   C3000     1.0  0.72109  0.43977  0.00850  1.0000
  H   H2399     1.0  0.90425  0.55082  0.12301  1.0000
  H   H2400     1.0  0.90257  0.61016  0.08598  1.0000
  C   C3001     1.0  0.71433  0.49083  0.10911  1.0000
  H   H2401     1.0  0.65103  0.36426  0.04194  1.0000
  H   H2402     1.0  0.56614  0.38371  0.20680  1.0000
  C   C3002     1.0  0.74089  0.51303  0.15994  1.0000
  C   C3003     1.0  0.73717  0.52132  0.14649  1.0000
  C   C3004     1.0  0.75439  0.52725  0.13364  1.0000
  C   C3005     1.0  0.77534  0.52489  0.13423  1.0000
  C   C3006     1.0  0.77934  0.51711  0.14776  1.0000
  C   C3007     1.0  0.76181  0.51075  0.16056  1.0000
  P   P99       1.0  0.80538  0.51148  0.14877  1.0000
  C   C3008     1.0  0.81448  0.51973  0.16342  1.0000
  C   C3009     1.0  0.79978  0.48230  0.15153  1.0000
  C   C3010     1.0  0.79700  0.46800  0.16529  1.0000
  C   C3011     1.0  0.79196  0.44538  0.16732  1.0000
  C   C3012     1.0  0.78866  0.43683  0.15584  1.0000
  C   C3013     1.0  0.79055  0.45091  0.14228  1.0000
  C   C3014     1.0  0.79615  0.47357  0.14010  1.0000
  C   C3015     1.0  0.83068  0.51138  0.16857  1.0000
  C   C3016     1.0  0.83715  0.51695  0.18030  1.0000
  C   C3017     1.0  0.82796  0.53132  0.18673  1.0000
  C   C3018     1.0  0.81238  0.54028  0.18138  1.0000
  C   C3019     1.0  0.80567  0.53456  0.16975  1.0000
  C   C3020     1.0  0.82711  0.52600  0.13213  1.0000
  C   C3021     1.0  0.84210  0.51552  0.12585  1.0000
  C   C3022     1.0  0.85846  0.52679  0.11273  1.0000
  C   C3023     1.0  0.86012  0.54864  0.10593  1.0000
  C   C3024     1.0  0.84566  0.55933  0.11233  1.0000
  C   C3025     1.0  0.82935  0.54812  0.12544  1.0000
  H   H2403     1.0  0.72745  0.50772  0.16992  1.0000
  H   H2404     1.0  0.72080  0.52258  0.14603  1.0000
  H   H2405     1.0  0.75135  0.53301  0.12316  1.0000
  H   H2406     1.0  0.78808  0.52854  0.12410  1.0000
  H   H2407     1.0  0.76416  0.50349  0.17104  1.0000
  H   H2408     1.0  0.79801  0.47409  0.17461  1.0000
  H   H2409     1.0  0.78964  0.43445  0.17801  1.0000
  H   H2410     1.0  0.78379  0.41926  0.15763  1.0000
  H   H2411     1.0  0.78695  0.44422  0.13361  1.0000
  H   H2412     1.0  0.79711  0.48424  0.12961  1.0000
  H   H2413     1.0  0.83781  0.50002  0.16382  1.0000
  H   H2414     1.0  0.84879  0.50960  0.18478  1.0000
  H   H2415     1.0  0.83249  0.53500  0.19615  1.0000
  H   H2416     1.0  0.80505  0.55115  0.18657  1.0000
  H   H2417     1.0  0.79332  0.54141  0.16595  1.0000
  H   H2418     1.0  0.84115  0.49864  0.13098  1.0000
  H   H2419     1.0  0.86974  0.51854  0.10777  1.0000
  H   H2420     1.0  0.87265  0.55735  0.09571  1.0000
  H   H2421     1.0  0.84703  0.57629  0.10705  1.0000
  H   H2422     1.0  0.81826  0.55656  0.13024  1.0000
  H   H2423     1.0  0.69647  0.48659  0.11231  1.0000
  H   H2424     1.0  0.51540  0.37136  0.20471  1.0000
  C   C3026     1.0  0.61261  0.39619  0.08083  1.0000
  C   C3027     1.0  0.78569  0.42930  0.98812  1.0000
  H   H2425     1.0  0.63482  0.40568  0.09323  1.0000
  C   C3028     1.0  0.86814  0.62182  0.22401  1.0000
  H   H2426     1.0  0.76541  0.52884  0.02333  1.0000
  C   C3029     1.0  0.77925  0.65429  0.03037  1.0000
  H   H2427     1.0  0.97907  0.59405  0.03848  1.0000
  C   C3030     1.0  0.87249  0.60916  0.07951  1.0000
  C   C3031     1.0  0.72639  0.50332  0.09482  1.0000
  H   H2428     1.0  0.95195  0.61530  0.08316  1.0000
  H   H2429     1.0  0.84525  0.64886  0.12803  1.0000
  H   H2430     1.0  0.70400  0.54832  0.06134  1.0000
  C   C3032     1.0  0.92669  0.59801  0.22358  1.0000
  H   H2431     1.0  0.77837  0.50543  0.09818  1.0000
  H   H2432     1.0  0.75671  0.48236  0.12325  1.0000
  P   P100      1.0  0.71211  0.51215  0.08151  1.0000
  C   C3033     1.0  0.61450  0.36922  0.99090  1.0000
  C   C3034     1.0  0.75505  0.52580  0.03431  1.0000
  C   C3035     1.0  0.71737  0.42068  0.00394  1.0000
  H   H2433     1.0  0.72460  0.36284  0.01380  1.0000
  H   H2434     1.0  0.58940  0.38199  0.07053  1.0000
  C   C3036     1.0  0.97640  0.64182  0.06590  1.0000
  C   C3037     1.0  0.91323  0.56889  0.06821  1.0000
  H   H2435     1.0  0.54017  0.41865  0.17156  1.0000
  H   H2436     1.0  0.91838  0.61049  0.22047  1.0000
  S   S404      1.0  0.51856  0.35982  0.17282  1.0000
  C   C3038     1.0  0.60210  0.35405  0.10016  1.0000
  C   C3039     1.0  0.64262  0.35002  0.03935  1.0000
  H   H2437     1.0  0.91347  0.58958  0.10815  1.0000
  C   C3040     1.0  0.70527  0.35939  0.14227  1.0000
  C   C3041     1.0  0.70338  0.44779  0.01387  1.0000
  C   C3042     1.0  0.52581  0.43237  0.21045  1.0000
  C   C3043     1.0  0.59259  0.35786  0.08854  1.0000
  H   H2438     1.0  0.87343  0.53697  0.14583  1.0000
  Fe  Fe200     1.0  0.50656  0.38472  0.15904  1.0000
  C   C3044     1.0  0.55131  0.43489  0.16626  1.0000
  H   H2439     1.0  0.90242  0.65058  0.99765  1.0000
  C   C3045     1.0  0.89045  0.61890  0.08399  1.0000
  H   H2440     1.0  0.89952  0.55433  0.07147  1.0000
  H   H2441     1.0  0.66112  0.40856  0.01193  1.0000
  P   P101      1.0  0.97292  0.62989  0.05124  1.0000
  C   C3046     1.0  0.92185  0.57888  0.21934  1.0000
  H   H2442     1.0  0.80894  0.58246  0.15547  1.0000
  C   C3047     1.0  0.81622  0.60525  0.11406  1.0000
  C   C3048     1.0  0.61391  0.34056  0.14736  1.0000
  C   C3049     1.0  0.86568  0.56800  0.14406  1.0000
  C   C3050     1.0  0.81740  0.64136  0.03303  1.0000
  C   C3051     1.0  0.88835  0.59761  0.12287  1.0000
  C   C3052     1.0  0.83171  0.60266  0.13472  1.0000
  C   C3053     1.0  0.64108  0.34373  0.19819  1.0000
  C   C3054     1.0  0.68509  0.34483  0.10417  1.0000
  H   H2443     1.0  0.80831  0.34150  0.09805  1.0000
  H   H2444     1.0  0.76461  0.65937  0.02913  1.0000
  H   H2445     1.0  0.83199  0.63593  0.03380  1.0000
  C   C3055     1.0  0.73456  0.37141  0.01942  1.0000
  C   C3056     1.0  0.85023  0.63701  0.99947  1.0000
  H   H2446     1.0  0.67322  0.35309  0.10093  1.0000
  Fe  Fe201     1.0  0.50922  0.33931  0.15846  1.0000
  H   H2447     1.0  0.81104  0.61294  0.18834  1.0000
  H   H2448     1.0  0.86390  0.58291  0.19143  1.0000
  H   H2449     1.0  0.85016  0.61989  0.11227  1.0000
  C   C3057     1.0  0.87717  0.65126  0.08309  1.0000
  C   C3058     1.0  0.50150  0.36059  0.21358  1.0000
  C   C3059     1.0  0.73717  0.35958  0.03246  1.0000
  C   C3060     1.0  0.84770  0.60304  0.16125  1.0000
  S   S405      1.0  0.87222  0.53913  0.23181  1.0000
  C   C3061     1.0  0.83421  0.61029  0.11969  1.0000
  C   C3062     1.0  0.86014  0.59351  0.16973  1.0000
  H   H2450     1.0  0.87446  0.58876  0.16475  1.0000
  C   C3063     1.0  0.96384  0.63100  0.08040  1.0000
  H   H2451     1.0  0.81147  0.45803  0.21283  1.0000
  H   H2452     1.0  0.56770  0.40522  0.22542  1.0000
  C   C3064     1.0  0.71795  0.34551  0.11259  1.0000
  C   C3065     1.0  0.83647  0.59702  0.19155  1.0000
  C   C3066     1.0  0.54756  0.35753  0.22638  1.0000
  H   H2453     1.0  0.89240  0.61433  0.11614  1.0000
  C   C3067     1.0  0.95405  0.65000  0.20940  1.0000
  C   C3068     1.0  0.79569  0.59234  0.12334  1.0000
  H   H2454     1.0  0.55599  0.34293  0.11070  1.0000
  C   C3069     1.0  0.63305  0.36232  0.99318  1.0000
  C   C3070     1.0  0.82456  0.60729  0.18313  1.0000
  P   P102      1.0  0.85546  0.60812  0.14165  1.0000
  H   H2455     1.0  0.78189  0.58827  0.11887  1.0000
  H   H2456     1.0  0.79227  0.51346  0.22291  1.0000
  H   H2457     1.0  0.80095  0.58224  0.23161  1.0000
  C   C3071     1.0  0.93289  0.60653  0.99643  1.0000
  C   C3072     1.0  0.96790  0.64957  0.03699  1.0000
  C   C3073     1.0  0.75746  0.39306  0.03558  1.0000
  H   H2458     1.0  0.57896  0.44457  0.21234  1.0000
  H   H2459     1.0  0.59817  0.35796  0.99473  1.0000
  H   H2460     1.0  0.92666  0.54663  0.22121  1.0000
  C   C3074     1.0  0.58134  0.35735  0.20945  1.0000
  S   S406      1.0  0.54257  0.35165  0.14232  1.0000
  C   C3075     1.0  0.69560  0.40925  0.00542  1.0000
  H   H2461     1.0  0.95558  0.63275  0.10258  1.0000
  H   H2462     1.0  0.51400  0.44001  0.20645  1.0000
  C   C3076     1.0  0.74839  0.37040  0.04063  1.0000
  C   C3077     1.0  0.67648  0.34467  0.20318  1.0000
  H   H2463     1.0  0.58135  0.34455  0.08684  1.0000
  H   H2464     1.0  0.54425  0.34809  0.19405  1.0000
  H   H2465     1.0  0.91840  0.65407  0.02311  1.0000
  C   C3078     1.0  0.96585  0.64086  0.09153  1.0000
  H   H2466     1.0  0.80467  0.61885  0.98877  1.0000
  C   C3079     1.0  0.57995  0.33634  0.21772  1.0000
  H   H2467     1.0  0.97136  0.66108  0.00075  1.0000
  C   C3080     1.0  0.98031  0.66160  0.08830  1.0000
  C   C3081     1.0  0.81676  0.66294  0.03262  1.0000
  C   C3082     1.0  0.81933  0.62991  0.98931  1.0000
  C   C3083     1.0  0.88680  0.64965  0.03788  1.0000
  C   C3084     1.0  0.90383  0.66002  0.02507  1.0000
  C   C3085     1.0  0.99518  0.60435  0.03731  1.0000
  H   H2468     1.0  0.75602  0.37327  0.99058  1.0000
  C   C3086     1.0  0.99129  0.64813  0.23148  1.0000
  C   C3087     1.0  0.94556  0.56414  0.23265  1.0000
  H   H2469     1.0  0.80259  0.66780  0.06006  1.0000
  C   C3088     1.0  0.99734  0.62259  0.04286  1.0000
  C   C3089     1.0  0.96830  0.66293  0.01167  1.0000
  S   S407      1.0  0.82804  0.49192  0.22536  1.0000
  C   C3090     1.0  0.94138  0.60056  0.23220  1.0000
  C   C3091     1.0  0.85731  0.65883  0.99034  1.0000
  H   H2470     1.0  0.88163  0.55840  0.98729  1.0000
  C   C3092     1.0  0.90608  0.66403  0.12951  1.0000
  C   C3093     1.0  0.95109  0.66635  0.19854  1.0000
  H   H2471     1.0  0.95335  0.66673  0.05140  1.0000
  C   C3094     1.0  0.95811  0.66588  0.04028  1.0000
  H   H2472     1.0  0.87887  0.66749  0.08448  1.0000
  H   H2473     1.0  0.95828  0.66795  0.18714  1.0000
  H   H2474     1.0  0.92315  0.66838  0.12976  1.0000
  C   C3095     1.0  0.54601  0.33622  0.23445  1.0000
  Fe  Fe202     1.0  0.82633  0.57375  0.37310  1.0000
  S   S408      1.0  0.79672  0.58720  0.37659  1.0000
  S   S409      1.0  0.85265  0.58278  0.38413  1.0000
  Fe  Fe203     1.0  0.80813  0.54497  0.35556  1.0000
  S   S410      1.0  0.77725  0.55613  0.35757  1.0000
  S   S411      1.0  0.81593  0.51980  0.34426  1.0000
  Fe  Fe204     1.0  0.79984  0.58973  0.35293  1.0000
  S   S412      1.0  0.79566  0.61842  0.33683  1.0000
  Fe  Fe205     1.0  0.77717  0.55248  0.38095  1.0000
  S   S413      1.0  0.74564  0.53770  0.39931  1.0000
  S   S414      1.0  0.83077  0.57873  0.34920  1.0000
  S   S415      1.0  0.80658  0.53886  0.37927  1.0000
  H   H2475     1.0  0.52674  0.38059  0.41416  1.0000
  Fe  Fe206     1.0  0.82429  0.53233  0.26499  1.0000
  S   S416      1.0  0.79448  0.52837  0.28353  1.0000
  S   S417      1.0  0.94768  0.57001  0.36131  1.0000
  C   C3096     1.0  0.75854  0.36167  0.47629  1.0000
  H   H2476     1.0  0.60553  0.48571  0.45499  1.0000
  H   H2477     1.0  0.74165  0.40564  0.46154  1.0000
  C   C3097     1.0  0.73269  0.58974  0.30097  1.0000
  Fe  Fe207     1.0  0.66484  0.37844  0.46672  1.0000
  S   S418      1.0  0.66742  0.39360  0.44328  1.0000
  C   C3098     1.0  0.94660  0.64531  0.35647  1.0000
  C   C3099     1.0  0.95014  0.52299  0.34541  1.0000
  S   S419      1.0  0.66887  0.43969  0.45199  1.0000
  H   H2478     1.0  0.93123  0.52614  0.31022  1.0000
  Fe  Fe208     1.0  0.64293  0.41038  0.45238  1.0000
  S   S420      1.0  0.61488  0.41422  0.44243  1.0000
  Fe  Fe209     1.0  0.69302  0.42120  0.44489  1.0000
  S   S421      1.0  0.72526  0.43557  0.42731  1.0000
  H   H2479     1.0  0.86773  0.53029  0.28890  1.0000
  S   S422      1.0  0.69308  0.40445  0.46758  1.0000
  H   H2480     1.0  0.86734  0.55942  0.34099  1.0000
  C   C3100     1.0  0.92513  0.64737  0.36146  1.0000
  S   S423      1.0  0.97673  0.57150  0.29040  1.0000
  C   C3101     1.0  0.72417  0.50812  0.45372  1.0000
  C   C3102     1.0  0.79948  0.60102  0.26675  1.0000
  S   S424      1.0  0.96270  0.60535  0.31921  1.0000
  C   C3103     1.0  0.59715  0.46964  0.46250  1.0000
  C   C3104     1.0  0.99804  0.62221  0.25624  1.0000
  H   H2481     1.0  0.87425  0.65890  0.32309  1.0000
  H   H2482     1.0  0.87794  0.54700  0.30751  1.0000
  H   H2483     1.0  0.91947  0.52866  0.35492  1.0000
  H   H2484     1.0  0.94211  0.63924  0.30835  1.0000
  C   C3105     1.0  0.56695  0.37238  0.43350  1.0000
  C   C3106     1.0  0.57999  0.39117  0.43535  1.0000
  C   C3107     1.0  0.59854  0.39019  0.44054  1.0000
  C   C3108     1.0  0.60409  0.37029  0.44374  1.0000
  H   H2485     1.0  0.87848  0.62711  0.36256  1.0000
  H   H2486     1.0  0.55276  0.37329  0.42944  1.0000
  H   H2487     1.0  0.57578  0.40651  0.43260  1.0000
  H   H2488     1.0  0.61827  0.36930  0.44781  1.0000
  C   C3109     1.0  0.84882  0.63726  0.36333  1.0000
  C   C3110     1.0  0.92267  0.54058  0.27046  1.0000
  C   C3111     1.0  0.94065  0.53210  0.27200  1.0000
  C   C3112     1.0  0.87282  0.52096  0.29761  1.0000
  C   C3113     1.0  0.92096  0.55916  0.27524  1.0000
  H   H2489     1.0  0.94236  0.51787  0.26835  1.0000
  H   H2490     1.0  0.90730  0.56602  0.27411  1.0000
  C   C3114     1.0  0.74022  0.50942  0.40735  1.0000
  C   C3115     1.0  0.75737  0.49925  0.40725  1.0000
  C   C3116     1.0  0.75266  0.47657  0.41340  1.0000
  C   C3117     1.0  0.73077  0.46396  0.41971  1.0000
  C   C3118     1.0  0.71360  0.47412  0.41992  1.0000
  C   C3119     1.0  0.71832  0.49682  0.41383  1.0000
  H   H2491     1.0  0.77428  0.50885  0.40267  1.0000
  H   H2492     1.0  0.76601  0.46886  0.41345  1.0000
  H   H2493     1.0  0.69665  0.46451  0.42442  1.0000
  H   H2494     1.0  0.70496  0.50454  0.41382  1.0000
  C   C3120     1.0  0.87864  0.57884  0.37702  1.0000
  C   C3121     1.0  0.89015  0.58742  0.36217  1.0000
  C   C3122     1.0  0.91170  0.58538  0.35710  1.0000
  C   C3123     1.0  0.92132  0.57407  0.36686  1.0000
  C   C3124     1.0  0.90956  0.56521  0.38161  1.0000
  C   C3125     1.0  0.88852  0.56796  0.38671  1.0000
  H   H2495     1.0  0.88266  0.59603  0.35468  1.0000
  H   H2496     1.0  0.92066  0.59215  0.34567  1.0000
  H   H2497     1.0  0.91694  0.55651  0.38918  1.0000
  H   H2498     1.0  0.87984  0.56151  0.39821  1.0000
  C   C3126     1.0  0.80899  0.52147  0.32772  1.0000
  C   C3127     1.0  0.81930  0.51163  0.31782  1.0000
  C   C3128     1.0  0.81485  0.51358  0.30423  1.0000
  C   C3129     1.0  0.79942  0.52470  0.30076  1.0000
  C   C3130     1.0  0.78824  0.53357  0.31098  1.0000
  C   C3131     1.0  0.79332  0.53231  0.32434  1.0000
  H   H2499     1.0  0.83116  0.50294  0.32052  1.0000
  H   H2500     1.0  0.82337  0.50654  0.29644  1.0000
  H   H2501     1.0  0.77636  0.54225  0.30830  1.0000
  H   H2502     1.0  0.78517  0.53980  0.33195  1.0000
  C   C3132     1.0  0.81944  0.63974  0.32630  1.0000
  C   C3133     1.0  0.84011  0.64037  0.32884  1.0000
  Fe  Fe210     1.0  0.85476  0.56420  0.23682  1.0000
  C   C3134     1.0  0.68209  0.50330  0.44898  1.0000
  C   C3135     1.0  0.63235  0.34169  0.40454  1.0000
  H   H2503     1.0  0.74304  0.36428  0.40163  1.0000
  H   H2504     1.0  0.84176  0.62761  0.33740  1.0000
  C   C3136     1.0  0.95660  0.54179  0.27812  1.0000
  H   H2505     1.0  0.70871  0.47770  0.47094  1.0000
  H   H2506     1.0  0.98020  0.51878  0.33297  1.0000
  H   H2507     1.0  0.96401  0.60487  0.26136  1.0000
  H   H2508     1.0  0.94640  0.64482  0.26208  1.0000
  C   C3137     1.0  0.53675  0.36407  0.25893  1.0000
  C   C3138     1.0  0.83100  0.64932  0.27372  1.0000
  C   C3139     1.0  0.51243  0.38407  0.42042  1.0000
  C   C3140     1.0  0.91377  0.63191  0.27670  1.0000
  H   H2509     1.0  0.87375  0.64562  0.25124  1.0000
  C   C3141     1.0  0.65291  0.33755  0.40423  1.0000
  C   C3142     1.0  0.81190  0.60876  0.24037  1.0000
  C   C3143     1.0  0.91218  0.63497  0.37559  1.0000
  C   C3144     1.0  0.73748  0.37127  0.39241  1.0000
  C   C3145     1.0  0.77220  0.55457  0.44039  1.0000
  H   H2510     1.0  0.96784  0.52093  0.31050  1.0000
  C   C3146     1.0  0.89270  0.61812  0.27954  1.0000
  C   C3147     1.0  0.93600  0.52472  0.32026  1.0000
  C   C3148     1.0  0.92615  0.62092  0.25488  1.0000
  H   H2511     1.0  0.81042  0.53869  0.41027  1.0000
  C   C3149     1.0  0.77271  0.59895  0.29608  1.0000
  H   H2512     1.0  0.80168  0.65596  0.31299  1.0000
  H   H2513     1.0  0.83835  0.62067  0.36768  1.0000
  C   C3150     1.0  0.75879  0.48599  0.45886  1.0000
  Fe  Fe211     1.0  0.97107  0.58911  0.33923  1.0000
  C   C3151     1.0  0.93041  0.63344  0.26439  1.0000
  H   H2514     1.0  0.76627  0.34950  0.47315  1.0000
  H   H2515     1.0  0.74174  0.47586  0.44376  1.0000
  C   C3152     1.0  0.88836  0.60554  0.27017  1.0000
  H   H2516     1.0  0.50838  0.36203  0.29313  1.0000
  C   C3153     1.0  0.77023  0.59489  0.31113  1.0000
  H   H2517     1.0  0.62467  0.45608  0.45669  1.0000
  C   C3154     1.0  0.74922  0.58854  0.32098  1.0000
  H   H2518     1.0  0.61111  0.36207  0.40987  1.0000
  C   C3155     1.0  0.90499  0.60690  0.25788  1.0000
  C   C3156     1.0  0.95500  0.56015  0.28311  1.0000
  H   H2519     1.0  0.90950  0.60940  0.39472  1.0000
  H   H2520     1.0  0.97032  0.53487  0.27904  1.0000
  H   H2521     1.0  0.82023  0.57244  0.28054  1.0000
  C   C3157     1.0  0.77254  0.48069  0.46770  1.0000
  S   S425      1.0  0.99280  0.57182  0.32769  1.0000
  P   P103      1.0  0.89514  0.53103  0.33239  1.0000
  C   C3158     1.0  0.89827  0.56012  0.32642  1.0000
  C   C3159     1.0  0.88608  0.51859  0.31918  1.0000
  C   C3160     1.0  0.88738  0.49722  0.31942  1.0000
  C   C3161     1.0  0.88138  0.48781  0.30886  1.0000
  C   C3162     1.0  0.87412  0.49970  0.29795  1.0000
  C   C3163     1.0  0.91650  0.57347  0.31492  1.0000
  C   C3164     1.0  0.91769  0.59547  0.30887  1.0000
  C   C3165     1.0  0.90117  0.60448  0.31467  1.0000
  C   C3166     1.0  0.88366  0.59168  0.32658  1.0000
  C   C3167     1.0  0.88176  0.56938  0.33224  1.0000
  C   C3168     1.0  0.87557  0.51878  0.35026  1.0000
  C   C3169     1.0  0.87671  0.52885  0.36144  1.0000
  C   C3170     1.0  0.86150  0.51980  0.37522  1.0000
  C   C3171     1.0  0.84509  0.50045  0.37801  1.0000
  C   C3172     1.0  0.84383  0.49024  0.36697  1.0000
  C   C3173     1.0  0.85886  0.49943  0.35313  1.0000
  H   H2522     1.0  0.89336  0.48798  0.32767  1.0000
  H   H2523     1.0  0.88277  0.47149  0.30892  1.0000
  H   H2524     1.0  0.87003  0.49272  0.28949  1.0000
  H   H2525     1.0  0.92972  0.56683  0.31053  1.0000
  H   H2526     1.0  0.93167  0.60561  0.29982  1.0000
  H   H2527     1.0  0.90186  0.62144  0.31007  1.0000
  H   H2528     1.0  0.87159  0.59927  0.33125  1.0000
  H   H2529     1.0  0.86234  0.52802  0.38364  1.0000
  H   H2530     1.0  0.83314  0.49363  0.38864  1.0000
  H   H2531     1.0  0.83084  0.47556  0.36892  1.0000
  H   H2532     1.0  0.85687  0.49168  0.34467  1.0000
  H   H2533     1.0  0.75514  0.44293  0.44436  1.0000
  H   H2534     1.0  0.94669  0.60456  0.38515  1.0000
  C   C3174     1.0  0.96381  0.52053  0.33301  1.0000
  H   H2535     1.0  0.95600  0.52336  0.35496  1.0000
  C   C3175     1.0  0.66321  0.36837  0.41365  1.0000
  C   C3176     1.0  0.80846  0.63826  0.27913  1.0000
  C   C3177     1.0  0.95683  0.52165  0.32039  1.0000
  S   S426      1.0  0.82100  0.54123  0.24212  1.0000
  C   C3178     1.0  0.53211  0.36169  0.27394  1.0000
  S   S427      1.0  0.84003  0.50525  0.26209  1.0000
  C   C3179     1.0  0.68540  0.48812  0.46033  1.0000
  C   C3180     1.0  0.87874  0.53040  0.30817  1.0000
  H   H2536     1.0  0.87200  0.59505  0.27223  1.0000
  H   H2537     1.0  0.55230  0.36198  0.25330  1.0000
  C   C3181     1.0  0.75228  0.47202  0.45066  1.0000
  C   C3182     1.0  0.71177  0.37090  0.42553  1.0000
  C   C3183     1.0  0.87169  0.64100  0.36055  1.0000
  C   C3184     1.0  0.82694  0.60671  0.30184  1.0000
  S   S428      1.0  0.63871  0.39356  0.47590  1.0000
  Fe  Fe212     1.0  0.99329  0.63195  0.31591  1.0000
  C   C3185     1.0  0.83868  0.56984  0.29628  1.0000
  C   C3186     1.0  0.97733  0.61799  0.25360  1.0000
  C   C3187     1.0  0.92184  0.52654  0.33283  1.0000
  H   H2538     1.0  0.84328  0.55556  0.29410  1.0000
  C   C3188     1.0  0.92931  0.52611  0.34532  1.0000
  C   C3189     1.0  0.78807  0.57317  0.25501  1.0000
  Fe  Fe213     1.0  0.87233  0.53181  0.25548  1.0000
  H   H2539     1.0  0.87971  0.61748  0.28887  1.0000
  Fe  Fe214     1.0  0.98573  0.58956  0.30720  1.0000
  C   C3190     1.0  0.79285  0.65035  0.28111  1.0000
  Fe  Fe215     1.0  0.66731  0.42121  0.47471  1.0000
  P   P104      1.0  0.75108  0.51138  0.45710  1.0000
  H   H2540     1.0  0.91702  0.64190  0.28380  1.0000
  H   H2541     1.0  0.98388  0.65743  0.26361  1.0000
  C   C3191     1.0  0.78775  0.57982  0.26765  1.0000
  C   C3192     1.0  0.84517  0.57807  0.30711  1.0000
  C   C3193     1.0  0.83960  0.59675  0.30972  1.0000
  H   H2542     1.0  0.99410  0.64714  0.28668  1.0000
  C   C3194     1.0  0.94092  0.61697  0.37878  1.0000
  C   C3195     1.0  0.52138  0.36902  0.25138  1.0000
  C   C3196     1.0  0.54034  0.35495  0.46874  1.0000
  H   H2543     1.0  0.85433  0.56985  0.31353  1.0000
  H   H2544     1.0  0.84473  0.60344  0.31797  1.0000
  H   H2545     1.0  0.90112  0.59721  0.25067  1.0000
  C   C3197     1.0  0.72762  0.53031  0.34510  1.0000
  C   C3198     1.0  0.72344  0.53989  0.35649  1.0000
  C   C3199     1.0  0.72096  0.52792  0.37079  1.0000
  C   C3200     1.0  0.72274  0.50641  0.37372  1.0000
  C   C3201     1.0  0.72682  0.49661  0.36239  1.0000
  C   C3202     1.0  0.72907  0.50867  0.34803  1.0000
  P   P105      1.0  0.72752  0.46833  0.36678  1.0000
  C   C3203     1.0  0.73505  0.46033  0.35025  1.0000
  C   C3204     1.0  0.74923  0.46486  0.37526  1.0000
  C   C3205     1.0  0.74912  0.44387  0.38308  1.0000
  C   C3206     1.0  0.76629  0.44095  0.38929  1.0000
  C   C3207     1.0  0.78405  0.45884  0.38729  1.0000
  C   C3208     1.0  0.78454  0.47965  0.37916  1.0000
  C   C3209     1.0  0.76720  0.48271  0.37319  1.0000
  C   C3210     1.0  0.72120  0.44294  0.34753  1.0000
  C   C3211     1.0  0.72737  0.43754  0.33443  1.0000
  C   C3212     1.0  0.74749  0.44926  0.32408  1.0000
  C   C3213     1.0  0.76160  0.46620  0.32690  1.0000
  C   C3214     1.0  0.75553  0.47159  0.33997  1.0000
  C   C3215     1.0  0.70044  0.45329  0.37894  1.0000
  C   C3216     1.0  0.68180  0.45138  0.37358  1.0000
  C   C3217     1.0  0.66060  0.44123  0.38311  1.0000
  C   C3218     1.0  0.65781  0.43343  0.39810  1.0000
  C   C3219     1.0  0.67620  0.43580  0.40357  1.0000
  C   C3220     1.0  0.69738  0.44582  0.39408  1.0000
  H   H2546     1.0  0.72992  0.53966  0.33397  1.0000
  H   H2547     1.0  0.72251  0.55670  0.35427  1.0000
  H   H2548     1.0  0.71811  0.53545  0.37960  1.0000
  H   H2549     1.0  0.72096  0.49740  0.38484  1.0000
  H   H2550     1.0  0.73197  0.50160  0.33904  1.0000
  H   H2551     1.0  0.73563  0.42980  0.38454  1.0000
  H   H2552     1.0  0.76572  0.42487  0.39576  1.0000
  H   H2553     1.0  0.79732  0.45665  0.39214  1.0000
  H   H2554     1.0  0.79836  0.49356  0.37738  1.0000
  H   H2555     1.0  0.76812  0.49899  0.36680  1.0000
  H   H2556     1.0  0.70573  0.43347  0.35544  1.0000
  H   H2557     1.0  0.71651  0.42437  0.33221  1.0000
  H   H2558     1.0  0.75219  0.44532  0.31385  1.0000
  H   H2559     1.0  0.77719  0.47537  0.31888  1.0000
  H   H2560     1.0  0.76670  0.48487  0.34192  1.0000
  H   H2561     1.0  0.68361  0.45818  0.36208  1.0000
  H   H2562     1.0  0.64628  0.43981  0.37892  1.0000
  H   H2563     1.0  0.64137  0.42600  0.40556  1.0000
  H   H2564     1.0  0.67401  0.43036  0.41524  1.0000
  H   H2565     1.0  0.71116  0.44830  0.39871  1.0000
  C   C3221     1.0  0.60801  0.45306  0.46352  1.0000
  C   C3222     1.0  0.93707  0.56891  0.28147  1.0000
  S   S429      1.0  0.90355  0.52715  0.26224  1.0000
  C   C3223     1.0  0.56720  0.37010  0.48017  1.0000
  C   C3224     1.0  0.80018  0.58762  0.24137  1.0000
  C   C3225     1.0  0.52745  0.36854  0.47280  1.0000
  H   H2566     1.0  0.53170  0.40644  0.42878  1.0000
  H   H2567     1.0  0.71814  0.58779  0.29702  1.0000
  H   H2568     1.0  0.71496  0.38502  0.41627  1.0000
  C   C3226     1.0  0.70642  0.49021  0.46248  1.0000
  C   C3227     1.0  0.92963  0.65050  0.32676  1.0000
  S   S430      1.0  0.66196  0.34290  0.47631  1.0000
  H   H2569     1.0  0.75789  0.40801  0.35864  1.0000
  C   C3228     1.0  0.54342  0.42860  0.44780  1.0000
  C   C3229     1.0  0.56561  0.44022  0.44411  1.0000
  C   C3230     1.0  0.57283  0.46164  0.43500  1.0000
  C   C3231     1.0  0.55775  0.47159  0.42971  1.0000
  H   H2570     1.0  0.97057  0.62790  0.36096  1.0000
  H   H2571     1.0  0.56340  0.48824  0.42264  1.0000
  H   H2572     1.0  0.88922  0.54389  0.35942  1.0000
  H   H2573     1.0  0.93600  0.58367  0.28445  1.0000
  H   H2574     1.0  0.78440  0.59691  0.31540  1.0000
  H   H2575     1.0  0.69134  0.36919  0.38040  1.0000
  C   C3232     1.0  0.75985  0.45330  0.45102  1.0000
  H   H2576     1.0  0.96132  0.58434  0.24387  1.0000
  C   C3233     1.0  0.81170  0.61544  0.25300  1.0000
  H   H2577     1.0  0.53829  0.41183  0.45455  1.0000
  H   H2578     1.0  0.57729  0.43243  0.44819  1.0000
  H   H2579     1.0  0.59016  0.47042  0.43200  1.0000
  H   H2580     1.0  0.52413  0.46808  0.42922  1.0000
  H   H2581     1.0  0.71333  0.43793  0.48379  1.0000
  S   S431      1.0  0.85637  0.55809  0.26000  1.0000
  H   H2582     1.0  0.82244  0.62092  0.30416  1.0000
  P   P106      1.0  0.69507  0.34559  0.40876  1.0000
  C   C3234     1.0  0.86964  0.62363  0.23778  1.0000
  C   C3235     1.0  0.79983  0.54303  0.41877  1.0000
  H   H2583     1.0  0.56966  0.34451  0.46982  1.0000
  C   C3236     1.0  0.85856  0.65801  0.32061  1.0000
  H   H2584     1.0  0.63872  0.38606  0.41762  1.0000
  H   H2585     1.0  0.77884  0.56817  0.27817  1.0000
  C   C3237     1.0  0.91996  0.61962  0.38412  1.0000
  C   C3238     1.0  0.52816  0.43835  0.44249  1.0000
  C   C3239     1.0  0.80089  0.56506  0.41752  1.0000
  C   C3240     1.0  0.77986  0.46181  0.46816  1.0000
  H   H2586     1.0  0.89600  0.63688  0.38005  1.0000
  C   C3241     1.0  0.72074  0.52314  0.44217  1.0000
  C   C3242     1.0  0.70844  0.37399  0.38051  1.0000
  H   H2587     1.0  0.64660  0.34990  0.45027  1.0000
  H   H2588     1.0  0.74776  0.58604  0.33252  1.0000
  C   C3243     1.0  0.78706  0.57083  0.42831  1.0000
  C   C3244     1.0  0.77110  0.53235  0.44179  1.0000
  P   P107      1.0  0.79995  0.60883  0.28327  1.0000
  C   C3245     1.0  0.97380  0.63072  0.24113  1.0000
  H   H2589     1.0  0.76125  0.55926  0.44850  1.0000
  H   H2590     1.0  0.77970  0.43382  0.45988  1.0000
  H   H2591     1.0  0.73413  0.53655  0.43467  1.0000
  H   H2592     1.0  0.69750  0.53219  0.43076  1.0000
  C   C3246     1.0  0.73043  0.58585  0.31593  1.0000
  C   C3247     1.0  0.77367  0.44821  0.45973  1.0000
  C   C3248     1.0  0.75374  0.59645  0.29105  1.0000
  C   C3249     1.0  0.64274  0.37260  0.41379  1.0000
  C   C3250     1.0  0.75498  0.37783  0.46567  1.0000
  H   H2593     1.0  0.95203  0.55059  0.23673  1.0000
  H   H2594     1.0  0.78403  0.50976  0.43129  1.0000
  H   H2595     1.0  0.81230  0.57762  0.40808  1.0000
  C   C3251     1.0  0.73861  0.39310  0.48442  1.0000
  H   H2596     1.0  0.86848  0.60916  0.24618  1.0000
  H   H2597     1.0  0.78768  0.58792  0.42716  1.0000
  C   C3252     1.0  0.59731  0.43234  0.47326  1.0000
  C   C3253     1.0  0.78491  0.52670  0.43079  1.0000
  C   C3254     1.0  0.87234  0.64420  0.24068  1.0000
  H   H2598     1.0  0.77537  0.64225  0.28536  1.0000
  C   C3255     1.0  0.95432  0.62999  0.36505  1.0000
  C   C3256     1.0  0.57269  0.35257  0.43648  1.0000
  H   H2599     1.0  0.82138  0.63172  0.25193  1.0000
  C   C3257     1.0  0.72386  0.38937  0.36825  1.0000
  H   H2600     1.0  0.71415  0.58095  0.32360  1.0000
  C   C3258     1.0  0.69980  0.52072  0.43985  1.0000
  H   H2601     1.0  0.71864  0.39616  0.35883  1.0000
  C   C3259     1.0  0.82563  0.57956  0.28855  1.0000
  H   H2602     1.0  0.82189  0.65166  0.36157  1.0000
  C   C3260     1.0  0.66828  0.35048  0.40922  1.0000
  H   H2603     1.0  0.75521  0.59991  0.27948  1.0000
  C   C3261     1.0  0.81920  0.59775  0.29157  1.0000
  C   C3262     1.0  0.55999  0.35548  0.47264  1.0000
  H   H2604     1.0  0.84333  0.64034  0.27215  1.0000
  C   C3263     1.0  0.71510  0.36496  0.39274  1.0000
  H   H2605     1.0  0.79045  0.45783  0.47500  1.0000
  Fe  Fe216     1.0  0.83826  0.51549  0.23870  1.0000
  H   H2606     1.0  0.53490  0.34363  0.46284  1.0000
  H   H2607     1.0  0.75984  0.37818  0.45427  1.0000
  C   C3264     1.0  0.98929  0.66214  0.28374  1.0000
  H   H2608     1.0  0.67172  0.47454  0.46741  1.0000
  C   C3265     1.0  0.74485  0.39339  0.46975  1.0000
  C   C3266     1.0  0.59145  0.35164  0.44143  1.0000
  C   C3267     1.0  0.50195  0.37286  0.25888  1.0000
  C   C3268     1.0  0.56463  0.44457  0.48074  1.0000
  H   H2609     1.0  0.56686  0.47809  0.47006  1.0000
  C   C3269     1.0  0.51512  0.39861  0.42888  1.0000
  C   C3270     1.0  0.93527  0.65158  0.31196  1.0000
  H   H2610     1.0  0.72352  0.39063  0.43865  1.0000
  C   C3271     1.0  0.62722  0.35914  0.40937  1.0000
  C   C3272     1.0  0.74601  0.39592  0.36811  1.0000
  C   C3273     1.0  0.75283  0.38681  0.38016  1.0000
  C   C3274     1.0  0.83959  0.65475  0.35997  1.0000
  H   H2611     1.0  0.93110  0.63650  0.33452  1.0000
  H   H2612     1.0  0.67496  0.37903  0.41706  1.0000
  C   C3275     1.0  0.53425  0.38271  0.48076  1.0000
  C   C3276     1.0  0.57539  0.46534  0.47101  1.0000
  H   H2613     1.0  0.66590  0.50135  0.44715  1.0000
  C   C3277     1.0  0.53546  0.46003  0.43345  1.0000
  H   H2614     1.0  0.77005  0.39180  0.38000  1.0000
  C   C3278     1.0  0.88557  0.66237  0.35493  1.0000
  H   H2615     1.0  0.77950  0.55652  0.25589  1.0000
  C   C3279     1.0  0.71672  0.37420  0.43821  1.0000
  H   H2616     1.0  0.95732  0.65526  0.34584  1.0000
  H   H2617     1.0  0.54387  0.35755  0.27976  1.0000
  S   S432      1.0  0.99918  0.61741  0.33728  1.0000
  C   C3280     1.0  0.51221  0.36445  0.28146  1.0000
  C   C3281     1.0  0.81756  0.65638  0.31508  1.0000
  C   C3282     1.0  0.95068  0.58339  0.23677  1.0000
  P   P108      1.0  0.94674  0.62512  0.23803  1.0000
  H   H2618     1.0  0.77774  0.49114  0.47418  1.0000
  H   H2619     1.0  0.58294  0.37075  0.48254  1.0000
  H   H2620     1.0  0.60584  0.41958  0.47382  1.0000
  C   C3283     1.0  0.57577  0.42810  0.48218  1.0000
  H   H2621     1.0  0.92408  0.66026  0.23929  1.0000
  C   C3284     1.0  0.75079  0.51860  0.47398  1.0000
  H   H2622     1.0  0.78390  0.54057  0.46584  1.0000
  H   H2623     1.0  0.51187  0.36750  0.47015  1.0000
  C   C3285     1.0  0.76955  0.53287  0.47515  1.0000
  H   H2624     1.0  0.50846  0.43880  0.47171  1.0000
  C   C3286     1.0  0.71199  0.35646  0.45053  1.0000
  H   H2625     1.0  0.71461  0.35914  0.46058  1.0000
  C   C3287     1.0  0.70212  0.34970  0.42505  1.0000
  H   H2626     1.0  0.52401  0.39293  0.48400  1.0000
  H   H2627     1.0  0.59611  0.33641  0.44361  1.0000
  P   P109      1.0  0.91523  0.66702  0.35018  1.0000
  C   C3288     1.0  0.55402  0.38340  0.48468  1.0000
  C   C3289     1.0  0.92240  0.66748  0.33125  1.0000
  S   S433      1.0  0.99369  0.66751  0.31002  1.0000
  H   H2628     1.0  0.00048  0.61225  0.26596  1.0000
  C   C3290     1.0  0.98343  0.66791  0.27071  1.0000
  Fe  Fe217     1.0  0.56831  0.37238  0.55991  1.0000
  S   S434      1.0  0.60186  0.39706  0.55037  1.0000
  Fe  Fe218     1.0  0.73667  0.41491  0.57186  1.0000
  S   S435      1.0  0.72468  0.43245  0.58805  1.0000
  S   S436      1.0  0.74630  0.38342  0.57861  1.0000
  Fe  Fe219     1.0  0.73686  0.45094  0.54611  1.0000
  S   S437      1.0  0.72491  0.47137  0.56033  1.0000
  S   S438      1.0  0.74550  0.45956  0.52135  1.0000
  Fe  Fe220     1.0  0.74954  0.46312  0.57276  1.0000
  S   S439      1.0  0.77004  0.49064  0.57996  1.0000
  Fe  Fe221     1.0  0.70143  0.43919  0.57459  1.0000
  S   S440      1.0  0.66520  0.43204  0.58636  1.0000
  S   S441      1.0  0.76307  0.44496  0.55732  1.0000
  S   S442      1.0  0.71181  0.41945  0.55956  1.0000
  C   C3291     1.0  0.89259  0.62556  0.69220  1.0000
  H   H2629     1.0  0.75593  0.34284  0.58606  1.0000
  C   C3292     1.0  0.98979  0.56030  0.63192  1.0000
  S   S443      1.0  0.54216  0.37467  0.54812  1.0000
  Fe  Fe222     1.0  0.86367  0.54375  0.61979  1.0000
  S   S444      1.0  0.86944  0.57924  0.60799  1.0000
  S   S445      1.0  0.84392  0.51443  0.61369  1.0000
  Fe  Fe223     1.0  0.89402  0.55657  0.63965  1.0000
  S   S446      1.0  0.90082  0.59253  0.62928  1.0000
  S   S447      1.0  0.90878  0.54297  0.65797  1.0000
  Fe  Fe224     1.0  0.86513  0.58541  0.63006  1.0000
  S   S448      1.0  0.84387  0.60732  0.63626  1.0000
  Fe  Fe225     1.0  0.90487  0.58324  0.60831  1.0000
  S   S449      1.0  0.93382  0.60351  0.58921  1.0000
  S   S450      1.0  0.85713  0.54962  0.64216  1.0000
  S   S451      1.0  0.90002  0.54747  0.61848  1.0000
  C   C3293     1.0  0.85327  0.63286  0.63949  1.0000
  C   C3294     1.0  0.87402  0.64000  0.64183  1.0000
  H   H2630     1.0  0.81626  0.45509  0.54485  1.0000
  C   C3295     1.0  0.90690  0.52156  0.51905  1.0000
  H   H2631     1.0  0.56302  0.35783  0.51060  1.0000
  C   C3296     1.0  0.83885  0.64625  0.63997  1.0000
  H   H2632     1.0  0.88514  0.62961  0.64168  1.0000
  C   C3297     1.0  0.78364  0.42381  0.52654  1.0000
  C   C3298     1.0  0.92531  0.62893  0.72566  1.0000
  H   H2633     1.0  0.82281  0.64087  0.63825  1.0000
  C   C3299     1.0  0.96285  0.56284  0.68078  1.0000
  H   H2634     1.0  0.67744  0.38634  0.68996  1.0000
  C   C3300     1.0  0.93256  0.53637  0.67768  1.0000
  C   C3301     1.0  0.93034  0.55184  0.66595  1.0000
  C   C3302     1.0  0.94469  0.57312  0.66153  1.0000
  C   C3303     1.0  0.96080  0.57867  0.66901  1.0000
  H   H2635     1.0  0.92175  0.51992  0.68123  1.0000
  H   H2636     1.0  0.94335  0.58527  0.65243  1.0000
  H   H2637     1.0  0.97142  0.59515  0.66577  1.0000
  H   H2638     1.0  0.52407  0.35473  0.62472  1.0000
  H   H2639     1.0  0.88998  0.55316  0.68504  1.0000
  H   H2640     1.0  0.52176  0.41345  0.59540  1.0000
  C   C3304     1.0  0.96716  0.64962  0.69120  1.0000
  C   C3305     1.0  0.72755  0.34797  0.52571  1.0000
  H   H2641     1.0  0.95660  0.63466  0.69075  1.0000
  H   H2642     1.0  0.62251  0.34639  0.63241  1.0000
  C   C3306     1.0  0.84994  0.65172  0.67907  1.0000
  C   C3307     1.0  0.60874  0.34634  0.62772  1.0000
  C   C3308     1.0  0.97465  0.63015  0.58616  1.0000
  C   C3309     1.0  0.95659  0.61308  0.59544  1.0000
  C   C3310     1.0  0.95658  0.60401  0.60982  1.0000
  C   C3311     1.0  0.97387  0.61274  0.61517  1.0000
  C   C3312     1.0  0.88585  0.51955  0.52781  1.0000
  H   H2643     1.0  0.97489  0.63700  0.57497  1.0000
  H   H2644     1.0  0.94321  0.59028  0.61686  1.0000
  H   H2645     1.0  0.97341  0.60600  0.62643  1.0000
  C   C3313     1.0  0.88866  0.63998  0.59512  1.0000
  H   H2646     1.0  0.64479  0.37831  0.55490  1.0000
  C   C3314     1.0  0.79014  0.49650  0.58981  1.0000
  C   C3315     1.0  0.80208  0.48181  0.59439  1.0000
  C   C3316     1.0  0.81843  0.48766  0.60152  1.0000
  C   C3317     1.0  0.82311  0.50821  0.60438  1.0000
  C   C3318     1.0  0.81073  0.52267  0.60015  1.0000
  C   C3319     1.0  0.79448  0.51686  0.59293  1.0000
  H   H2647     1.0  0.79891  0.46604  0.59228  1.0000
  H   H2648     1.0  0.82756  0.47613  0.60486  1.0000
  H   H2649     1.0  0.81379  0.53842  0.60233  1.0000
  H   H2650     1.0  0.78536  0.52840  0.58959  1.0000
  H   H2651     1.0  0.70556  0.36640  0.57012  1.0000
  C   C3320     1.0  0.61858  0.40672  0.56089  1.0000
  C   C3321     1.0  0.63969  0.42079  0.55355  1.0000
  C   C3322     1.0  0.65414  0.42817  0.56134  1.0000
  C   C3323     1.0  0.64730  0.42215  0.57657  1.0000
  C   C3324     1.0  0.62599  0.40839  0.58399  1.0000
  C   C3325     1.0  0.61175  0.40040  0.57617  1.0000
  H   H2652     1.0  0.64494  0.42595  0.54176  1.0000
  H   H2653     1.0  0.67041  0.43894  0.55552  1.0000
  H   H2654     1.0  0.62057  0.40371  0.59579  1.0000
  H   H2655     1.0  0.59552  0.38947  0.58191  1.0000
  C   C3326     1.0  0.68902  0.44378  0.50035  1.0000
  C   C3327     1.0  0.71018  0.44241  0.49388  1.0000
  C   C3328     1.0  0.72742  0.44732  0.50037  1.0000
  C   C3329     1.0  0.72349  0.45293  0.51358  1.0000
  C   C3330     1.0  0.70232  0.45417  0.52005  1.0000
  C   C3331     1.0  0.68531  0.45004  0.51331  1.0000
  H   H2656     1.0  0.74378  0.44660  0.49522  1.0000
  H   H2657     1.0  0.69911  0.45869  0.53014  1.0000
  H   H2658     1.0  0.66906  0.45132  0.51831  1.0000
  C   C3332     1.0  0.52052  0.38546  0.51487  1.0000
  C   C3333     1.0  0.67692  0.34412  0.60822  1.0000
  C   C3334     1.0  0.51452  0.36560  0.62103  1.0000
  H   H2659     1.0  0.53265  0.35083  0.66796  1.0000
  H   H2660     1.0  0.88344  0.63772  0.69216  1.0000
  C   C3335     1.0  0.95644  0.53035  0.64043  1.0000
  H   H2661     1.0  0.91818  0.53765  0.51357  1.0000
  C   C3336     1.0  0.59014  0.35165  0.63493  1.0000
  C   C3337     1.0  0.98849  0.52614  0.64878  1.0000
  C   C3338     1.0  0.90843  0.59892  0.70475  1.0000
  H   H2662     1.0  0.92906  0.58499  0.69110  1.0000
  H   H2663     1.0  0.82597  0.51107  0.49839  1.0000
  H   H2664     1.0  0.52903  0.43154  0.53389  1.0000
  C   C3339     1.0  0.96666  0.51760  0.64883  1.0000
  C   C3340     1.0  0.78000  0.57166  0.72944  1.0000
  H   H2665     1.0  0.67777  0.37277  0.66818  1.0000
  C   C3341     1.0  0.96802  0.55163  0.63194  1.0000
  H   H2666     1.0  0.80274  0.41795  0.56195  1.0000
  C   C3342     1.0  0.81297  0.43101  0.56469  1.0000
  C   C3343     1.0  0.82046  0.45218  0.55510  1.0000
  C   C3344     1.0  0.73394  0.51178  0.49997  1.0000
  H   H2667     1.0  0.71885  0.49599  0.48640  1.0000
  C   C3345     1.0  0.85839  0.59556  0.73248  1.0000
  C   C3346     1.0  0.82572  0.49983  0.53425  1.0000
  H   H2668     1.0  0.93029  0.63694  0.71409  1.0000
  H   H2669     1.0  0.55781  0.35570  0.63456  1.0000
  H   H2670     1.0  0.75303  0.52910  0.51137  1.0000
  H   H2671     1.0  0.72038  0.50306  0.50967  1.0000
  H   H2672     1.0  0.85255  0.56186  0.57609  1.0000
  C   C3347     1.0  0.63375  0.33799  0.58643  1.0000
  H   H2673     1.0  0.88803  0.62513  0.59180  1.0000
  H   H2674     1.0  0.79084  0.44397  0.50451  1.0000
  C   C3348     1.0  0.85102  0.54970  0.57013  1.0000
  C   C3349     1.0  0.52547  0.38516  0.61006  1.0000
  C   C3350     1.0  0.96314  0.64969  0.63457  1.0000
  H   H2675     1.0  0.90155  0.63269  0.66873  1.0000
  H   H2676     1.0  0.93343  0.62382  0.63949  1.0000
  H   H2677     1.0  0.81260  0.41029  0.58532  1.0000
  C   C3351     1.0  0.99132  0.63057  0.60615  1.0000
  H   H2678     1.0  0.75467  0.34827  0.49900  1.0000
  H   H2679     1.0  0.62588  0.34737  0.54744  1.0000
  H   H2680     1.0  0.79401  0.61166  0.66665  1.0000
  H   H2681     1.0  0.64566  0.38046  0.60481  1.0000
  H   H2682     1.0  0.64997  0.37279  0.57944  1.0000
  C   C3352     1.0  0.83400  0.50578  0.51896  1.0000
  C   C3353     1.0  0.71632  0.47898  0.60282  1.0000
  C   C3354     1.0  0.69469  0.46763  0.60425  1.0000
  C   C3355     1.0  0.68468  0.44785  0.61513  1.0000
  C   C3356     1.0  0.69633  0.43926  0.62451  1.0000
  C   C3357     1.0  0.71814  0.45056  0.62316  1.0000
  C   C3358     1.0  0.72802  0.47047  0.61217  1.0000
  P   P110      1.0  0.73429  0.43852  0.63414  1.0000
  C   C3359     1.0  0.74902  0.40131  0.63191  1.0000
  C   C3360     1.0  0.75516  0.45996  0.63624  1.0000
  C   C3361     1.0  0.75033  0.47943  0.63813  1.0000
  C   C3362     1.0  0.76671  0.49632  0.63924  1.0000
  C   C3363     1.0  0.78787  0.49374  0.63872  1.0000
  C   C3364     1.0  0.79262  0.47423  0.63721  1.0000
  C   C3365     1.0  0.77639  0.45741  0.63592  1.0000
  H   H2683     1.0  0.72435  0.49405  0.59412  1.0000
  H   H2684     1.0  0.68586  0.47381  0.59668  1.0000
  H   H2685     1.0  0.66805  0.43888  0.61594  1.0000
  H   H2686     1.0  0.74503  0.47921  0.61047  1.0000
  H   H2687     1.0  0.74302  0.39519  0.64367  1.0000
  H   H2688     1.0  0.70232  0.39521  0.64404  1.0000
  H   H2689     1.0  0.73405  0.48173  0.63845  1.0000
  H   H2690     1.0  0.76316  0.51158  0.64021  1.0000
  H   H2691     1.0  0.80084  0.50703  0.63910  1.0000
  H   H2692     1.0  0.80924  0.47257  0.63645  1.0000
  H   H2693     1.0  0.78064  0.44266  0.63440  1.0000
  C   C3366     1.0  0.75724  0.43003  0.60939  1.0000
  C   C3367     1.0  0.94853  0.54176  0.68495  1.0000
  S   S452      1.0  0.66677  0.43817  0.49260  1.0000
  C   C3368     1.0  0.65847  0.35191  0.60663  1.0000
  C   C3369     1.0  0.86929  0.64603  0.59979  1.0000
  C   C3370     1.0  0.76650  0.41351  0.50849  1.0000
  H   H2694     1.0  0.99251  0.63454  0.69570  1.0000
  H   H2695     1.0  0.90290  0.66118  0.72549  1.0000
  H   H2696     1.0  0.95755  0.50115  0.65546  1.0000
  C   C3371     1.0  0.83121  0.44357  0.58160  1.0000
  H   H2697     1.0  0.99623  0.51591  0.65519  1.0000
  H   H2698     1.0  0.79610  0.49036  0.55225  1.0000
  C   C3372     1.0  0.86371  0.52082  0.56196  1.0000
  S   S453      1.0  0.54486  0.36596  0.58193  1.0000
  C   C3373     1.0  0.81845  0.42669  0.57790  1.0000
  H   H2699     1.0  0.95997  0.56145  0.62549  1.0000
  C   C3374     1.0  0.78841  0.57251  0.64896  1.0000
  C   C3375     1.0  0.79817  0.55809  0.65649  1.0000
  C   C3376     1.0  0.80631  0.56280  0.66789  1.0000
  C   C3377     1.0  0.80499  0.58217  0.67172  1.0000
  C   C3378     1.0  0.79490  0.59644  0.66420  1.0000
  P   P111      1.0  0.81538  0.58787  0.68660  1.0000
  C   C3379     1.0  0.79442  0.57468  0.70374  1.0000
  C   C3380     1.0  0.83937  0.57743  0.68639  1.0000
  C   C3381     1.0  0.84119  0.56349  0.69906  1.0000
  C   C3382     1.0  0.85940  0.55475  0.69855  1.0000
  C   C3383     1.0  0.87590  0.55996  0.68545  1.0000
  C   C3384     1.0  0.87418  0.57376  0.67282  1.0000
  C   C3385     1.0  0.85594  0.58236  0.67324  1.0000
  C   C3386     1.0  0.79625  0.58159  0.71613  1.0000
  C   C3387     1.0  0.69614  0.37932  0.60965  1.0000
  H   H2700     1.0  0.71085  0.38994  0.61053  1.0000
  H   H2701     1.0  0.77969  0.60308  0.64673  1.0000
  C   C3388     1.0  0.77629  0.55752  0.70490  1.0000
  C   C3389     1.0  0.82255  0.61696  0.68468  1.0000
  C   C3390     1.0  0.98751  0.64956  0.69399  1.0000
  P   P112      1.0  0.84379  0.49642  0.54591  1.0000
  H   H2702     1.0  0.78548  0.50202  0.50976  1.0000
  C   C3391     1.0  0.80286  0.49518  0.54050  1.0000
  C   C3392     1.0  0.84469  0.62938  0.68013  1.0000
  H   H2703     1.0  0.55858  0.43174  0.51289  1.0000
  H   H2704     1.0  0.78278  0.56922  0.63981  1.0000
  H   H2705     1.0  0.80007  0.54360  0.65320  1.0000
  H   H2706     1.0  0.81410  0.55156  0.67344  1.0000
  C   C3393     1.0  0.83861  0.46480  0.57207  1.0000
  H   H2707     1.0  0.82850  0.55902  0.70927  1.0000
  H   H2708     1.0  0.68828  0.42367  0.63252  1.0000
  H   H2709     1.0  0.88694  0.57760  0.66265  1.0000
  H   H2710     1.0  0.85472  0.59277  0.66327  1.0000
  H   H2711     1.0  0.81025  0.59467  0.71548  1.0000
  H   H2712     1.0  0.58967  0.35590  0.64504  1.0000
  H   H2713     1.0  0.77084  0.49240  0.53656  1.0000
  H   H2714     1.0  0.77453  0.55180  0.69554  1.0000
  C   C3394     1.0  0.91337  0.50285  0.51731  1.0000
  C   C3395     1.0  0.75242  0.52634  0.50094  1.0000
  C   C3396     1.0  0.71599  0.42957  0.66428  1.0000
  C   C3397     1.0  0.87515  0.64328  0.71991  1.0000
  H   H2715     1.0  0.85799  0.62210  0.67711  1.0000
  C   C3398     1.0  0.67797  0.38727  0.60806  1.0000
  C   C3399     1.0  0.78851  0.49629  0.53165  1.0000
  C   C3400     1.0  0.74100  0.33990  0.58259  1.0000
  H   H2716     1.0  0.92969  0.50443  0.51051  1.0000
  C   C3401     1.0  0.65932  0.37375  0.60640  1.0000
  H   H2717     1.0  0.62656  0.41049  0.51548  1.0000
  H   H2718     1.0  0.74610  0.53438  0.71906  1.0000
  C   C3402     1.0  0.84618  0.51707  0.55561  1.0000
  H   H2719     1.0  0.84827  0.47754  0.57530  1.0000
  C   C3403     1.0  0.81956  0.50674  0.51015  1.0000
  C   C3404     1.0  0.71630  0.42202  0.65189  1.0000
  H   H2720     1.0  0.75820  0.37187  0.62972  1.0000
  C   C3405     1.0  0.69564  0.35781  0.60965  1.0000
  Fe  Fe226     1.0  0.51814  0.36507  0.57046  1.0000
  C   C3406     1.0  0.73213  0.35728  0.57806  1.0000
  H   H2721     1.0  0.94976  0.52936  0.69396  1.0000
  C   C3407     1.0  0.71267  0.35311  0.57359  1.0000
  H   H2722     1.0  0.75737  0.44631  0.60351  1.0000
  C   C3408     1.0  0.79680  0.50183  0.51651  1.0000
  C   C3409     1.0  0.68844  0.38863  0.66710  1.0000
  C   C3410     1.0  0.90897  0.65287  0.59497  1.0000
  C   C3411     1.0  0.61311  0.39892  0.51402  1.0000
  H   H2723     1.0  0.93941  0.52387  0.64061  1.0000
  H   H2724     1.0  0.77204  0.38520  0.60268  1.0000
  C   C3412     1.0  0.81109  0.64983  0.68669  1.0000
  C   C3413     1.0  0.76596  0.41677  0.60157  1.0000
  H   H2725     1.0  0.92454  0.60652  0.66807  1.0000
  H   H2726     1.0  0.70188  0.42263  0.68746  1.0000
  C   C3414     1.0  0.91620  0.60831  0.67844  1.0000
  H   H2727     1.0  0.86658  0.46383  0.53830  1.0000
  H   H2728     1.0  0.67096  0.33861  0.50857  1.0000
  H   H2729     1.0  0.96989  0.64048  0.64233  1.0000
  H   H2730     1.0  0.78857  0.61810  0.69168  1.0000
  H   H2731     1.0  0.85345  0.63557  0.60042  1.0000
  C   C3415     1.0  0.68283  0.39928  0.53300  1.0000
  C   C3416     1.0  0.66768  0.39586  0.52495  1.0000
  C   C3417     1.0  0.67238  0.38677  0.51338  1.0000
  C   C3418     1.0  0.69224  0.38101  0.50992  1.0000
  C   C3419     1.0  0.70758  0.38440  0.51798  1.0000
  C   C3420     1.0  0.70259  0.39338  0.52965  1.0000
  P   P113      1.0  0.73255  0.37555  0.51433  1.0000
  C   C3421     1.0  0.73312  0.50786  0.48660  1.0000
  C   C3422     1.0  0.75346  0.39385  0.51885  1.0000
  H   H2732     1.0  0.86916  0.57169  0.72245  1.0000
  C   C3423     1.0  0.77023  0.53689  0.48853  1.0000
  C   C3424     1.0  0.76011  0.54756  0.71824  1.0000
  C   C3425     1.0  0.77077  0.40426  0.53691  1.0000
  C   C3426     1.0  0.75564  0.38938  0.53313  1.0000
  C   C3427     1.0  0.51342  0.39884  0.60441  1.0000
  H   H2733     1.0  0.71004  0.35187  0.61036  1.0000
  H   H2734     1.0  0.66083  0.38470  0.50690  1.0000
  C   C3428     1.0  0.63929  0.36208  0.56236  1.0000
  C   C3429     1.0  0.52638  0.41911  0.52825  1.0000
  H   H2735     1.0  0.91873  0.64382  0.62107  1.0000
  C   C3430     1.0  0.78153  0.42841  0.51234  1.0000
  C   C3431     1.0  0.59106  0.36171  0.51915  1.0000
  C   C3432     1.0  0.86593  0.53688  0.56933  1.0000
  C   C3433     1.0  0.76193  0.55465  0.73050  1.0000
  C   C3434     1.0  0.75193  0.36106  0.49101  1.0000
  H   H2736     1.0  0.67940  0.40684  0.54173  1.0000
  H   H2737     1.0  0.65253  0.40078  0.52748  1.0000
  H   H2738     1.0  0.69178  0.34071  0.53117  1.0000
  H   H2739     1.0  0.73101  0.40551  0.48733  1.0000
  H   H2740     1.0  0.71394  0.39608  0.53613  1.0000
  C   C3435     1.0  0.62837  0.34465  0.55821  1.0000
  C   C3436     1.0  0.00002  0.54776  0.64061  1.0000
  C   C3437     1.0  0.90305  0.62290  0.67883  1.0000
  H   H2741     1.0  0.77196  0.40089  0.54802  1.0000
  H   H2742     1.0  0.74516  0.37479  0.54154  1.0000
  H   H2743     1.0  0.82192  0.55600  0.56457  1.0000
  H   H2744     1.0  0.54324  0.38934  0.60552  1.0000
  H   H2745     1.0  0.51844  0.37178  0.51031  1.0000
  H   H2746     1.0  0.60241  0.42410  0.50162  1.0000
  H   H2747     1.0  0.77209  0.42266  0.58978  1.0000
  H   H2748     1.0  0.69557  0.37413  0.50088  1.0000
  H   H2749     1.0  0.95855  0.63722  0.72747  1.0000
  C   C3438     1.0  0.64206  0.35884  0.57638  1.0000
  C   C3439     1.0  0.93449  0.65159  0.62227  1.0000
  H   H2750     1.0  0.91105  0.58974  0.71463  1.0000
  H   H2751     1.0  0.92377  0.64762  0.59163  1.0000
  H   H2752     1.0  0.81740  0.52752  0.55194  1.0000
  H   H2753     1.0  0.83522  0.44031  0.59193  1.0000
  C   C3440     1.0  0.54304  0.41918  0.51632  1.0000
  C   C3441     1.0  0.54003  0.40259  0.50934  1.0000
  C   C3442     1.0  0.50681  0.40221  0.53349  1.0000
  C   C3443     1.0  0.94267  0.64022  0.63288  1.0000
  C   C3444     1.0  0.58137  0.39184  0.50455  1.0000
  C   C3445     1.0  0.60905  0.37649  0.52050  1.0000
  H   H2754     1.0  0.98966  0.65789  0.65719  1.0000
  C   C3446     1.0  0.57717  0.36939  0.51129  1.0000
  H   H2755     1.0  0.76457  0.41775  0.49760  1.0000
  C   C3447     1.0  0.78666  0.59160  0.65286  1.0000
  H   H2756     1.0  0.67852  0.40412  0.60774  1.0000
  C   C3448     1.0  0.91876  0.59622  0.69140  1.0000
  H   H2757     1.0  0.90375  0.46761  0.52289  1.0000
  H   H2758     1.0  0.87902  0.53921  0.57464  1.0000
  C   C3449     1.0  0.80578  0.62733  0.68814  1.0000
  P   P114      1.0  0.56263  0.40152  0.49511  1.0000
  C   C3450     1.0  0.89537  0.61376  0.70526  1.0000
  C   C3451     1.0  0.88018  0.66060  0.64454  1.0000
  C   C3452     1.0  0.83121  0.53001  0.55653  1.0000
  C   C3453     1.0  0.99208  0.63881  0.59150  1.0000
  S   S454      1.0  0.98221  0.56760  0.69119  1.0000
  H   H2759     1.0  0.54773  0.44143  0.48713  1.0000
  C   C3454     1.0  0.83323  0.46933  0.55875  1.0000
  C   C3455     1.0  0.87119  0.49875  0.53504  1.0000
  H   H2760     1.0  0.87559  0.51121  0.56135  1.0000
  C   C3456     1.0  0.74177  0.37670  0.49524  1.0000
  H   H2761     1.0  0.85150  0.50938  0.51378  1.0000
  C   C3457     1.0  0.83377  0.54636  0.56366  1.0000
  C   C3458     1.0  0.70202  0.41672  0.67795  1.0000
  H   H2762     1.0  0.79472  0.43571  0.52962  1.0000
  C   C3459     1.0  0.76594  0.39568  0.60886  1.0000
  H   H2763     1.0  0.86070  0.54373  0.70822  1.0000
  C   C3460     1.0  0.59927  0.40662  0.50615  1.0000
  C   C3461     1.0  0.87769  0.48003  0.53308  1.0000
  C   C3462     1.0  0.70238  0.40142  0.65343  1.0000
  H   H2764     1.0  0.55886  0.34577  0.61143  1.0000
  H   H2765     1.0  0.72648  0.44533  0.66349  1.0000
  H   H2766     1.0  0.88100  0.53422  0.52894  1.0000
  C   C3463     1.0  0.68826  0.39627  0.67936  1.0000
  C   C3464     1.0  0.74781  0.42206  0.62453  1.0000
  C   C3465     1.0  0.75786  0.38810  0.62406  1.0000
  C   C3466     1.0  0.89875  0.48211  0.52429  1.0000
  P   P115      1.0  0.88285  0.61772  0.72258  1.0000
  H   H2767     1.0  0.84605  0.63092  0.71340  1.0000
  H   H2768     1.0  0.61941  0.37069  0.52695  1.0000
  H   H2769     1.0  0.58744  0.34434  0.52447  1.0000
  C   C3467     1.0  0.60955  0.34103  0.61451  1.0000
  H   H2770     1.0  0.86705  0.66134  0.67527  1.0000
  C   C3468     1.0  0.85626  0.57477  0.73021  1.0000
  H   H2771     1.0  0.78470  0.54795  0.48934  1.0000
  C   C3469     1.0  0.74541  0.33967  0.52799  1.0000
  H   H2772     1.0  0.99850  0.57684  0.62522  1.0000
  C   C3470     1.0  0.59132  0.34072  0.60877  1.0000
  C   C3471     1.0  0.85586  0.64472  0.71568  1.0000
  C   C3472     1.0  0.57280  0.34605  0.61599  1.0000
  C   C3473     1.0  0.90301  0.61830  0.73288  1.0000
  H   H2773     1.0  0.83442  0.66519  0.71089  1.0000
  C   C3474     1.0  0.57220  0.35156  0.62904  1.0000
  H   H2774     1.0  0.79811  0.65792  0.68888  1.0000
  C   C3475     1.0  0.50827  0.34341  0.65655  1.0000
  C   C3476     1.0  0.94130  0.62922  0.73329  1.0000
  H   H2775     1.0  0.76222  0.34991  0.52332  1.0000
  C   C3477     1.0  0.87034  0.66537  0.60389  1.0000
  C   C3478     1.0  0.83319  0.66204  0.68206  1.0000
  H   H2776     1.0  0.50472  0.35920  0.65537  1.0000
  H   H2777     1.0  0.89610  0.66604  0.64640  1.0000
  C   C3479     1.0  0.88781  0.66164  0.72245  1.0000
  S   S455      1.0  0.56505  0.33687  0.56141  1.0000
  Fe  Fe227     1.0  0.53679  0.33859  0.55141  1.0000
  C   C3480     1.0  0.52419  0.33877  0.66359  1.0000
  C   C3481     1.0  0.50391  0.38538  0.52682  1.0000
  C   C3482     1.0  0.84505  0.66673  0.64241  1.0000
  C   C3483     1.0  0.84920  0.66409  0.71424  1.0000
  H   H2778     1.0  0.70257  0.34735  0.48666  1.0000
  S   S456      1.0  0.93406  0.66783  0.68696  1.0000
  H   H2779     1.0  0.59116  0.33634  0.59875  1.0000
  C   C3484     1.0  0.74510  0.37716  0.98398  1.0000
  C   C3485     1.0  0.85610  0.57382  0.98333  1.0000
  H   H2780     1.0  0.74930  0.54699  0.74081  1.0000
  C   C3486     1.0  0.73503  0.39415  0.98514  1.0000
  C   C3487     1.0  0.93566  0.66557  0.98374  1.0000
  C   C3488     1.0  0.80280  0.46606  0.97205  1.0000
  H   H2781     1.0  0.98819  0.60776  0.92347  1.0000
  C   C3489     1.0  0.76300  0.45153  0.97900  1.0000
  H   H2782     1.0  0.96311  0.61977  0.90920  1.0000
  H   H2783     1.0  0.78057  0.48381  0.96477  1.0000
  C   C3490     1.0  0.86841  0.60925  0.96528  1.0000
  C   C3491     1.0  0.87788  0.57231  0.98083  1.0000
  C   C3492     1.0  0.71814  0.38756  0.96604  1.0000
  P   P116      1.0  0.91273  0.63134  0.95126  1.0000
  H   H2784     1.0  0.65822  0.34610  0.97277  1.0000
  C   C3493     1.0  0.93606  0.62299  0.94244  1.0000
  C   C3494     1.0  0.72766  0.37022  0.96529  1.0000
  H   H2785     1.0  0.81750  0.47936  0.96618  1.0000
  H   H2786     1.0  0.74884  0.35185  0.97349  1.0000
  C   C3495     1.0  0.92120  0.64633  0.96342  1.0000
  H   H2787     1.0  0.91175  0.58804  0.96921  1.0000
  H   H2788     1.0  0.80615  0.54770  0.75454  1.0000
  C   C3496     1.0  0.90645  0.64397  0.97692  1.0000
  C   C3497     1.0  0.82608  0.65159  0.98052  1.0000
  C   C3498     1.0  0.89496  0.58921  0.97049  1.0000
  C   C3499     1.0  0.89681  0.60819  0.74797  1.0000
  H   H2789     1.0  0.63881  0.42343  0.97426  1.0000
  H   H2790     1.0  0.98338  0.57290  0.79270  1.0000
  C   C3500     1.0  0.94304  0.65922  0.95995  1.0000
  C   C3501     1.0  0.91283  0.60857  0.75564  1.0000
  S   S457      1.0  0.97458  0.62872  0.97947  1.0000
  H   H2791     1.0  0.70794  0.39179  0.95896  1.0000
  H   H2792     1.0  0.94752  0.61912  0.75417  1.0000
  C   C3502     1.0  0.63736  0.40636  0.97928  1.0000
  H   H2793     1.0  0.72482  0.36097  0.95765  1.0000
  C   C3503     1.0  0.85137  0.59218  0.97546  1.0000
  H   H2794     1.0  0.94722  0.61524  0.96186  1.0000
  C   C3504     1.0  0.97361  0.61188  0.92874  1.0000
  H   H2795     1.0  0.87972  0.59995  0.75384  1.0000
  H   H2796     1.0  0.98008  0.60579  0.94985  1.0000
  C   C3505     1.0  0.82272  0.58166  0.75079  1.0000
  C   C3506     1.0  0.90350  0.64847  0.93788  1.0000
  C   C3507     1.0  0.72202  0.39966  0.97581  1.0000
  C   C3508     1.0  0.84153  0.59884  0.74292  1.0000
  H   H2797     1.0  0.93025  0.62976  0.92110  1.0000
  C   C3509     1.0  0.65600  0.39961  0.98132  1.0000
  H   H2798     1.0  0.80984  0.58429  0.75888  1.0000
  C   C3510     1.0  0.94077  0.62422  0.92753  1.0000
  C   C3511     1.0  0.61667  0.39114  0.98398  1.0000
  C   C3512     1.0  0.89038  0.60784  0.96261  1.0000
  H   H2799     1.0  0.83596  0.54157  0.73634  1.0000
  C   C3513     1.0  0.96903  0.61064  0.94357  1.0000
  C   C3514     1.0  0.95030  0.61606  0.95039  1.0000
  H   H2800     1.0  0.60203  0.39634  0.98276  1.0000
  C   C3515     1.0  0.80465  0.44638  0.98039  1.0000
  C   C3516     1.0  0.74121  0.36509  0.97420  1.0000
  C   C3517     1.0  0.93508  0.61901  0.74829  1.0000
  H   H2801     1.0  0.87079  0.64484  0.91491  1.0000
  H   H2802     1.0  0.88345  0.62133  0.93318  1.0000
  C   C3518     1.0  0.95946  0.61863  0.92073  1.0000
  C   C3519     1.0  0.88924  0.63897  0.93064  1.0000
  C   C3520     1.0  0.88215  0.65223  0.92023  1.0000
  H   H2803     1.0  0.71501  0.41341  0.97599  1.0000
  C   C3521     1.0  0.82065  0.56106  0.74837  1.0000
  H   H2804     1.0  0.74701  0.45371  0.97824  1.0000
  H   H2805     1.0  0.90803  0.60064  0.76727  1.0000
  H   H2806     1.0  0.82080  0.44441  0.98095  1.0000
  H   H2807     1.0  0.88948  0.63436  0.97990  1.0000
  H   H2808     1.0  0.81651  0.65711  0.97332  1.0000
  C   C3522     1.0  0.78199  0.46858  0.97128  1.0000
  C   C3523     1.0  0.83744  0.55761  0.73811  1.0000
  H   H2809     1.0  0.99717  0.59000  0.76588  1.0000
  C   C3524     1.0  0.84516  0.66610  0.98083  1.0000
  H   H2810     1.0  0.86449  0.62400  0.96015  1.0000
  H   H2811     1.0  0.67197  0.41151  0.97784  1.0000
  H   H2812     1.0  0.83458  0.59369  0.97784  1.0000
  H   H2813     1.0  0.78137  0.57722  0.73892  1.0000
  H   H2814     1.0  0.84303  0.61462  0.74510  1.0000
  H   H2815     1.0  0.95474  0.66155  0.94957  1.0000
  C   C3525     1.0  0.95024  0.66861  0.97017  1.0000
  H   H2816     1.0  0.94464  0.85518  0.19493  1.0000
  C   C3526     1.0  0.56467  0.92520  0.02231  1.0000
  H   H2817     1.0  0.76512  0.96849  0.99656  1.0000
  H   H2818     1.0  0.93597  0.69289  0.19405  1.0000
  C   C3527     1.0  0.94164  0.80590  0.15234  1.0000
  C   C3528     1.0  0.62866  0.97881  0.99735  1.0000
  S   S458      1.0  0.79254  0.95633  0.13944  1.0000
  S   S459      1.0  0.79005  0.97903  0.09649  1.0000
  Fe  Fe228     1.0  0.82294  0.94379  0.13677  1.0000
  S   S460      1.0  0.82408  0.90964  0.14747  1.0000
  Fe  Fe229     1.0  0.95408  0.87475  0.14055  1.0000
  S   S461      1.0  0.94618  0.85945  0.16478  1.0000
  Fe  Fe230     1.0  0.93168  0.88431  0.11657  1.0000
  S   S462      1.0  0.96379  0.89531  0.09913  1.0000
  S   S463      1.0  0.90124  0.88359  0.10879  1.0000
  Fe  Fe231     1.0  0.97180  0.86614  0.11169  1.0000
  H   H2819     1.0  0.99197  0.88054  0.07329  1.0000
  Fe  Fe232     1.0  0.97686  0.91343  0.11384  1.0000
  S   S464      1.0  0.93868  0.85388  0.12815  1.0000
  S   S465      1.0  0.94384  0.90434  0.13052  1.0000
  H   H2820     1.0  0.97010  0.87460  0.20653  1.0000
  C   C3529     1.0  0.99724  0.79517  0.06003  1.0000
  H   H2821     1.0  0.62066  0.83781  0.98628  1.0000
  Fe  Fe233     1.0  0.93576  0.73218  0.09073  1.0000
  S   S466      1.0  0.95200  0.75098  0.06736  1.0000
  S   S467      1.0  0.92748  0.74917  0.10814  1.0000
  Fe  Fe234     1.0  0.92704  0.68838  0.08371  1.0000
  S   S468      1.0  0.94220  0.70375  0.05972  1.0000
  C   C3530     1.0  0.55992  0.97921  0.98835  1.0000
  Fe  Fe235     1.0  0.96870  0.72415  0.06617  1.0000
  H   H2822     1.0  0.67705  0.92897  0.99297  1.0000
  Fe  Fe236     1.0  0.92429  0.72921  0.06284  1.0000
  S   S469      1.0  0.90648  0.74374  0.04750  1.0000
  S   S470      1.0  0.95498  0.70700  0.09024  1.0000
  S   S471      1.0  0.90653  0.71199  0.08628  1.0000
  Fe  Fe237     1.0  0.85427  0.00012  0.22944  1.0000
  Fe  Fe238     1.0  0.71083  0.92686  0.05255  1.0000
  S   S472      1.0  0.73377  0.95238  0.03262  1.0000
  S   S473      1.0  0.71756  0.92076  0.07500  1.0000
  Fe  Fe239     1.0  0.67885  0.91051  0.03487  1.0000
  S   S474      1.0  0.69965  0.93542  0.01413  1.0000
  S   S475      1.0  0.64876  0.88397  0.03569  1.0000
  Fe  Fe240     1.0  0.72856  0.92680  0.02078  1.0000
  S   S476      1.0  0.75654  0.91976  0.00577  1.0000
  Fe  Fe241     1.0  0.70257  0.95847  0.02795  1.0000
  H   H2823     1.0  0.51373  0.92648  0.01790  1.0000
  S   S477      1.0  0.70787  0.90049  0.04106  1.0000
  S   S478      1.0  0.67949  0.93430  0.04847  1.0000
  P   P117      1.0  0.58330  0.93304  0.03277  1.0000
  H   H2824     1.0  0.53170  0.93768  0.07665  1.0000
  C   C3531     1.0  0.54435  0.94688  0.06660  1.0000
  C   C3532     1.0  0.86504  0.67382  0.02969  1.0000
  H   H2825     1.0  0.99771  0.78326  0.06961  1.0000
  Fe  Fe242     1.0  0.97511  0.93739  0.23236  1.0000
  C   C3533     1.0  0.92808  0.82249  0.01543  1.0000
  H   H2826     1.0  0.87058  0.67481  0.20805  1.0000
  C   C3534     1.0  0.90610  0.74082  0.02013  1.0000
  C   C3535     1.0  0.88243  0.68453  0.01699  1.0000
  H   H2827     1.0  0.91068  0.77815  0.99144  1.0000
  C   C3536     1.0  0.85318  0.70053  0.06881  1.0000
  C   C3537     1.0  0.84621  0.72816  0.02319  1.0000
  H   H2828     1.0  0.83160  0.69315  0.09045  1.0000
  H   H2829     1.0  0.97603  0.91084  0.06434  1.0000
  C   C3538     1.0  0.58783  0.90947  0.04441  1.0000
  H   H2830     1.0  0.96403  0.80546  0.00770  1.0000
  C   C3539     1.0  0.63322  0.87965  0.02306  1.0000
  C   C3540     1.0  0.63207  0.89641  0.01156  1.0000
  C   C3541     1.0  0.61830  0.89165  0.00250  1.0000
  C   C3542     1.0  0.60530  0.87017  0.00504  1.0000
  C   C3543     1.0  0.60686  0.85363  0.01641  1.0000
  C   C3544     1.0  0.62061  0.85828  0.02528  1.0000
  H   H2831     1.0  0.64129  0.91305  0.00991  1.0000
  C   C3545     1.0  0.97256  0.77619  0.19541  1.0000
  H   H2832     1.0  0.59709  0.83699  0.01854  1.0000
  H   H2833     1.0  0.62117  0.84518  0.03412  1.0000
  S   S479      1.0  0.98816  0.88510  0.12491  1.0000
  H   H2834     1.0  0.94867  0.78042  0.18339  1.0000
  C   C3546     1.0  0.68421  0.91999  0.98603  1.0000
  H   H2835     1.0  0.93479  0.75505  0.14718  1.0000
  H   H2836     1.0  0.76703  0.99155  0.19073  1.0000
  C   C3547     1.0  0.84849  0.74746  0.01249  1.0000
  C   C3548     1.0  0.93068  0.78445  0.15316  1.0000
  C   C3549     1.0  0.99170  0.89642  0.18612  1.0000
  H   H2837     1.0  0.99977  0.67184  0.05166  1.0000
  H   H2838     1.0  0.76557  0.95421  0.18859  1.0000
  C   C3550     1.0  0.95868  0.86866  0.18823  1.0000
  C   C3551     1.0  0.91813  0.74074  0.03040  1.0000
  C   C3552     1.0  0.54387  0.92956  0.02446  1.0000
  H   H2839     1.0  0.87877  0.83277  0.21365  1.0000
  C   C3553     1.0  0.52961  0.92279  0.01643  1.0000
  H   H2840     1.0  0.92119  0.80613  0.03801  1.0000
  C   C3554     1.0  0.93934  0.73775  0.02712  1.0000
  C   C3555     1.0  0.95999  0.68008  0.01481  1.0000
  C   C3556     1.0  0.94846  0.73459  0.01366  1.0000
  H   H2841     1.0  0.94888  0.73817  0.03488  1.0000
  C   C3557     1.0  0.95387  0.87431  0.04788  1.0000
  C   C3558     1.0  0.98578  0.70695  0.21237  1.0000
  C   C3559     1.0  0.98914  0.80801  0.20214  1.0000
  C   C3560     1.0  0.57115  0.94769  0.04456  1.0000
  H   H2842     1.0  0.88978  0.74329  0.02262  1.0000
  H   H2843     1.0  0.94708  0.77906  0.99569  1.0000
  C   C3561     1.0  0.75947  0.96529  0.22655  1.0000
  H   H2844     1.0  0.90871  0.98819  0.14069  1.0000
  H   H2845     1.0  0.98764  0.71488  0.03319  1.0000
  H   H2846     1.0  0.95735  0.69217  0.00623  1.0000
  C   C3562     1.0  0.97055  0.81798  0.10199  1.0000
  C   C3563     1.0  0.94762  0.81265  0.10779  1.0000
  C   C3564     1.0  0.93453  0.79162  0.10947  1.0000
  C   C3565     1.0  0.94418  0.77584  0.10509  1.0000
  C   C3566     1.0  0.96705  0.78125  0.09900  1.0000
  C   C3567     1.0  0.98020  0.80226  0.09745  1.0000
  H   H2847     1.0  0.93992  0.82473  0.11095  1.0000
  H   H2848     1.0  0.91684  0.78771  0.11400  1.0000
  H   H2849     1.0  0.97464  0.76907  0.09577  1.0000
  C   C3568     1.0  0.93592  0.94300  0.20496  1.0000
  H   H2850     1.0  0.95221  0.94125  0.20044  1.0000
  C   C3569     1.0  0.96283  0.87466  0.17301  1.0000
  H   H2851     1.0  0.83951  0.69211  0.00298  1.0000
  H   H2852     1.0  0.99792  0.80627  0.09292  1.0000
  C   C3570     1.0  0.84187  0.70745  0.00581  1.0000
  C   C3571     1.0  0.60910  0.95018  0.01998  1.0000
  H   H2853     1.0  0.99721  0.68981  0.19708  1.0000
  C   C3572     1.0  0.77079  0.96158  0.09058  1.0000
  C   C3573     1.0  0.76953  0.96836  0.07614  1.0000
  C   C3574     1.0  0.75370  0.95596  0.07110  1.0000
  C   C3575     1.0  0.73870  0.93656  0.08051  1.0000
  C   C3576     1.0  0.74016  0.92959  0.09490  1.0000
  C   C3577     1.0  0.75610  0.94196  0.09991  1.0000
  H   H2854     1.0  0.78096  0.98334  0.06882  1.0000
  H   H2855     1.0  0.75297  0.96153  0.05998  1.0000
  H   H2856     1.0  0.72870  0.91462  0.10229  1.0000
  H   H2857     1.0  0.75662  0.93659  0.11108  1.0000
  C   C3578     1.0  0.73822  0.99015  0.10613  1.0000
  C   C3579     1.0  0.88234  0.87857  0.22547  1.0000
  H   H2858     1.0  0.60341  0.92839  0.05681  1.0000
  C   C3580     1.0  0.76423  0.97823  0.20045  1.0000
  H   H2859     1.0  0.62842  0.99079  0.98773  1.0000
  C   C3581     1.0  0.97768  0.99094  0.15799  1.0000
  C   C3582     1.0  0.84547  0.90214  0.13682  1.0000
  C   C3583     1.0  0.85043  0.90865  0.12159  1.0000
  C   C3584     1.0  0.86797  0.90331  0.11313  1.0000
  C   C3585     1.0  0.88049  0.89125  0.11978  1.0000
  C   C3586     1.0  0.87551  0.88450  0.13500  1.0000
  C   C3587     1.0  0.85781  0.88973  0.14354  1.0000
  H   H2860     1.0  0.84053  0.91745  0.11632  1.0000
  H   H2861     1.0  0.87214  0.90878  0.10138  1.0000
  H   H2862     1.0  0.88517  0.87507  0.14012  1.0000
  H   H2863     1.0  0.85388  0.88451  0.15531  1.0000
  C   C3588     1.0  0.83692  0.68654  0.05141  1.0000
  C   C3589     1.0  0.55470  0.93587  0.05760  1.0000
  C   C3590     1.0  0.76793  0.90845  0.06039  1.0000
  C   C3591     1.0  0.77708  0.92249  0.04624  1.0000
  C   C3592     1.0  0.79916  0.93474  0.04188  1.0000
  C   C3593     1.0  0.81211  0.93289  0.05165  1.0000
  C   C3594     1.0  0.80302  0.91878  0.06589  1.0000
  C   C3595     1.0  0.78078  0.90659  0.07020  1.0000
  P   P118      1.0  0.82013  0.91576  0.07821  1.0000
  C   C3596     1.0  0.83738  0.89794  0.07416  1.0000
  C   C3597     1.0  0.83748  0.94238  0.07664  1.0000
  C   C3598     1.0  0.85865  0.94462  0.07876  1.0000
  C   C3599     1.0  0.87129  0.96499  0.07858  1.0000
  S   S480      1.0  0.87302  0.68833  0.23329  1.0000
  C   C3600     1.0  0.84207  0.98129  0.07388  1.0000
  C   C3601     1.0  0.82940  0.96094  0.07406  1.0000
  C   C3602     1.0  0.84591  0.88744  0.08499  1.0000
  C   C3603     1.0  0.86032  0.87467  0.08184  1.0000
  C   C3604     1.0  0.86599  0.87186  0.06790  1.0000
  C   C3605     1.0  0.85727  0.88190  0.05710  1.0000
  C   C3606     1.0  0.84308  0.89498  0.06018  1.0000
  C   C3607     1.0  0.80283  0.90411  0.09680  1.0000
  C   C3608     1.0  0.79755  0.91764  0.10559  1.0000
  C   C3609     1.0  0.78559  0.90850  0.12027  1.0000
  C   C3610     1.0  0.77845  0.88580  0.12622  1.0000
  C   C3611     1.0  0.78288  0.87216  0.11742  1.0000
  C   C3612     1.0  0.79490  0.88126  0.10274  1.0000
  H   H2864     1.0  0.75069  0.89924  0.06384  1.0000
  H   H2865     1.0  0.76701  0.92389  0.03870  1.0000
  H   H2866     1.0  0.80618  0.94564  0.03091  1.0000
  H   H2867     1.0  0.82922  0.94243  0.04810  1.0000
  H   H2868     1.0  0.77316  0.89583  0.08115  1.0000
  H   H2869     1.0  0.86532  0.93068  0.08091  1.0000
  H   H2870     1.0  0.88722  0.96650  0.08082  1.0000
  C   C3613     1.0  0.93180  0.82001  0.02920  1.0000
  C   C3614     1.0  0.96447  0.78121  0.13794  1.0000
  H   H2871     1.0  0.81291  0.95955  0.07281  1.0000
  H   H2872     1.0  0.84164  0.88938  0.09587  1.0000
  H   H2873     1.0  0.86729  0.86720  0.09022  1.0000
  H   H2874     1.0  0.87719  0.86196  0.06549  1.0000
  H   H2875     1.0  0.86165  0.87969  0.04630  1.0000
  H   H2876     1.0  0.83673  0.90278  0.05163  1.0000
  H   H2877     1.0  0.80274  0.93526  0.10122  1.0000
  H   H2878     1.0  0.78206  0.91905  0.12708  1.0000
  H   H2879     1.0  0.76955  0.87884  0.13768  1.0000
  H   H2880     1.0  0.77722  0.85456  0.12203  1.0000
  H   H2881     1.0  0.79830  0.87046  0.09609  1.0000
  H   H2882     1.0  0.58969  0.98025  0.03068  1.0000
  H   H2883     1.0  0.84676  0.70186  0.17575  1.0000
  C   C3615     1.0  0.83019  0.91249  0.19200  1.0000
  C   C3616     1.0  0.85966  0.71456  0.16719  1.0000
  H   H2884     1.0  0.83522  0.99527  0.07262  1.0000
  H   H2885     1.0  0.61407  0.79915  0.99996  1.0000
  H   H2886     1.0  0.98399  0.89709  0.15269  1.0000
  C   C3617     1.0  0.83488  0.90994  0.21621  1.0000
  C   C3618     1.0  0.90287  0.77921  0.20416  1.0000
  C   C3619     1.0  0.90298  0.75822  0.21160  1.0000
  C   C3620     1.0  0.90354  0.74210  0.20433  1.0000
  C   C3621     1.0  0.90344  0.74677  0.18970  1.0000
  C   C3622     1.0  0.90194  0.76741  0.18239  1.0000
  C   C3623     1.0  0.90248  0.78388  0.18956  1.0000
  P   P119      1.0  0.90196  0.77339  0.16346  1.0000
  C   C3624     1.0  0.88770  0.74945  0.15940  1.0000
  H   H2887     1.0  0.54972  0.91813  0.06074  1.0000
  C   C3625     1.0  0.89713  0.78530  0.08734  1.0000
  C   C3626     1.0  0.87052  0.73316  0.17031  1.0000
  C   C3627     1.0  0.88693  0.79341  0.15911  1.0000
  C   C3628     1.0  0.86823  0.79385  0.16948  1.0000
  C   C3629     1.0  0.85666  0.80943  0.16604  1.0000
  C   C3630     1.0  0.86347  0.82442  0.15216  1.0000
  C   C3631     1.0  0.88171  0.82370  0.14167  1.0000
  C   C3632     1.0  0.89329  0.80812  0.14507  1.0000
  H   H2888     1.0  0.90335  0.79185  0.20976  1.0000
  C   C3633     1.0  0.76543  0.98555  0.99266  1.0000
  H   H2889     1.0  0.90398  0.72595  0.21010  1.0000
  H   H2890     1.0  0.90435  0.73416  0.18419  1.0000
  H   H2891     1.0  0.90280  0.80035  0.18388  1.0000
  H   H2892     1.0  0.97184  0.83184  0.14324  1.0000
  H   H2893     1.0  0.86548  0.73474  0.18125  1.0000
  H   H2894     1.0  0.86261  0.78221  0.18023  1.0000
  H   H2895     1.0  0.84239  0.80989  0.17411  1.0000
  H   H2896     1.0  0.85459  0.83657  0.14949  1.0000
  H   H2897     1.0  0.88699  0.83539  0.13090  1.0000
  H   H2898     1.0  0.90728  0.80769  0.13675  1.0000
  S   S481      1.0  0.88959  0.00205  0.10522  1.0000
  H   H2899     1.0  0.98695  0.76349  0.03798  1.0000
  C   C3634     1.0  0.97265  0.89605  0.06092  1.0000
  C   C3635     1.0  0.62953  0.94802  0.02215  1.0000
  H   H2900     1.0  0.73674  0.86877  0.00101  1.0000
  C   C3636     1.0  0.76232  0.98236  0.21402  1.0000
  C   C3637     1.0  0.81481  0.67969  0.07633  1.0000
  C   C3638     1.0  0.89746  0.84067  0.22839  1.0000
  C   C3639     1.0  0.75810  0.94397  0.22530  1.0000
  P   P120      1.0  0.84027  0.68287  0.03340  1.0000
  H   H2901     1.0  0.56180  0.89911  0.99598  1.0000
  H   H2902     1.0  0.67942  0.81326  0.00543  1.0000
  C   C3640     1.0  0.65764  0.96003  0.07983  1.0000
  C   C3641     1.0  0.97512  0.79546  0.00967  1.0000
  C   C3642     1.0  0.87594  0.86332  0.21803  1.0000
  C   C3643     1.0  0.90717  0.77734  0.07624  1.0000
  H   H2903     1.0  0.97318  0.77185  0.13206  1.0000
  C   C3644     1.0  0.89667  0.92671  0.21698  1.0000
  C   C3645     1.0  0.60884  0.96564  0.00746  1.0000
  C   C3646     1.0  0.84736  0.74674  0.99850  1.0000
  C   C3647     1.0  0.64385  0.99478  0.04478  1.0000
  H   H2904     1.0  0.58732  0.91182  0.00965  1.0000
  C   C3648     1.0  0.69758  0.97215  0.07345  1.0000
  C   C3649     1.0  0.91771  0.92463  0.21069  1.0000
  S   S482      1.0  0.84408  0.97967  0.21482  1.0000
  C   C3650     1.0  0.97640  0.81976  0.19548  1.0000
  C   C3651     1.0  0.99340  0.97911  0.15646  1.0000
  C   C3652     1.0  0.98741  0.78617  0.20209  1.0000
  C   C3653     1.0  0.66701  0.81864  0.00073  1.0000
  C   C3654     1.0  0.69672  0.99378  0.07257  1.0000
  H   H2905     1.0  0.85125  0.76298  0.01504  1.0000
  C   C3655     1.0  0.98808  0.77187  0.02684  1.0000
  S   S483      1.0  0.94792  0.72965  0.98694  1.0000
  C   C3656     1.0  0.94902  0.83514  0.03130  1.0000
  H   H2906     1.0  0.79805  0.95720  0.23169  1.0000
  H   H2907     1.0  0.64261  0.94698  0.08261  1.0000
  H   H2908     1.0  0.60063  0.86004  0.06862  1.0000
  C   C3657     1.0  0.92902  0.67811  0.21711  1.0000
  H   H2909     1.0  0.94768  0.97764  0.20180  1.0000
  H   H2910     1.0  0.99593  0.83746  0.02558  1.0000
  H   H2911     1.0  0.97778  0.83651  0.19568  1.0000
  H   H2912     1.0  0.86776  0.68730  0.11829  1.0000
  H   H2913     1.0  0.90661  0.69720  0.11927  1.0000
  H   H2914     1.0  0.90542  0.73655  0.99907  1.0000
  H   H2915     1.0  0.96136  0.78603  0.03303  1.0000
  H   H2916     1.0  0.53860  0.93833  0.03215  1.0000
  H   H2917     1.0  0.96652  0.79995  0.07068  1.0000
  H   H2918     1.0  0.98348  0.84640  0.06643  1.0000
  C   C3658     1.0  0.91840  0.89364  0.18390  1.0000
  C   C3659     1.0  0.90441  0.87782  0.18009  1.0000
  C   C3660     1.0  0.89574  0.88402  0.16841  1.0000
  C   C3661     1.0  0.90129  0.90604  0.16037  1.0000
  C   C3662     1.0  0.91571  0.92201  0.16391  1.0000
  C   C3663     1.0  0.92398  0.91566  0.17590  1.0000
  H   H2919     1.0  0.92530  0.88874  0.19286  1.0000
  H   H2920     1.0  0.90086  0.86068  0.18593  1.0000
  H   H2921     1.0  0.88516  0.87167  0.16535  1.0000
  H   H2922     1.0  0.93504  0.92763  0.17894  1.0000
  S   S484      1.0  0.80476  0.00180  0.16064  1.0000
  H   H2923     1.0  0.87017  0.99915  0.17845  1.0000
  C   C3664     1.0  0.70091  0.85773  0.00853  1.0000
  C   C3665     1.0  0.68258  0.85096  0.02090  1.0000
  C   C3666     1.0  0.68560  0.84804  0.03485  1.0000
  C   C3667     1.0  0.70691  0.85198  0.03657  1.0000
  C   C3668     1.0  0.72524  0.85956  0.02429  1.0000
  C   C3669     1.0  0.72228  0.86248  0.01031  1.0000
  C   C3670     1.0  0.93979  0.95839  0.10914  1.0000
  C   C3671     1.0  0.90160  0.98309  0.15241  1.0000
  C   C3672     1.0  0.92448  0.79141  0.06447  1.0000
  H   H2924     1.0  0.63266  0.98594  0.05543  1.0000
  H   H2925     1.0  0.84715  0.72912  0.03393  1.0000
  H   H2926     1.0  0.66590  0.84828  0.01983  1.0000
  H   H2927     1.0  0.67136  0.84337  0.04430  1.0000
  H   H2928     1.0  0.70922  0.85016  0.04737  1.0000
  H   H2929     1.0  0.74176  0.86378  0.02555  1.0000
  S   S485      1.0  0.96191  0.96662  0.22916  1.0000
  H   H2930     1.0  0.67949  0.89172  0.00380  1.0000
  H   H2931     1.0  0.95732  0.95900  0.12533  1.0000
  C   C3673     1.0  0.63387  0.83238  0.98993  1.0000
  C   C3674     1.0  0.98817  0.95888  0.15358  1.0000
  Fe  Fe243     1.0  0.80632  0.97381  0.11530  1.0000
  C   C3675     1.0  0.99594  0.82562  0.03526  1.0000
  C   C3676     1.0  0.97375  0.78473  0.02404  1.0000
  C   C3677     1.0  0.59655  0.87369  0.06216  1.0000
  C   C3678     1.0  0.91262  0.96573  0.21203  1.0000
  H   H2932     1.0  0.66649  0.97459  0.04619  1.0000
  C   C3679     1.0  0.85518  0.69803  0.05482  1.0000
  H   H2933     1.0  0.79926  0.67231  0.08473  1.0000
  C   C3680     1.0  0.89676  0.68027  0.12356  1.0000
  H   H2934     1.0  0.88614  0.72741  0.13103  1.0000
  H   H2935     1.0  0.97066  0.75929  0.19535  1.0000
  H   H2936     1.0  0.87816  0.94966  0.22210  1.0000
  C   C3681     1.0  0.88363  0.84450  0.21943  1.0000
  C   C3682     1.0  0.52128  0.97823  0.99261  1.0000
  H   H2937     1.0  0.87107  0.70497  0.04667  1.0000
  C   C3683     1.0  0.54218  0.98729  0.99390  1.0000
  C   C3684     1.0  0.82199  0.91259  0.20645  1.0000
  H   H2938     1.0  0.64352  0.78684  0.00952  1.0000
  H   H2939     1.0  0.52484  0.90627  0.00013  1.0000
  C   C3685     1.0  0.88179  0.72892  0.14204  1.0000
  H   H2940     1.0  0.71903  0.97727  0.09328  1.0000
  C   C3686     1.0  0.93336  0.96355  0.20563  1.0000
  C   C3687     1.0  0.97299  0.87970  0.19481  1.0000
  S   S486      1.0  0.70150  0.99295  0.01870  1.0000
  C   C3688     1.0  0.64885  0.97653  0.99963  1.0000
  C   C3689     1.0  0.57703  0.97066  0.04061  1.0000
  S   S487      1.0  0.83512  0.95916  0.11263  1.0000
  H   H2941     1.0  0.67898  0.93858  0.07842  1.0000
  H   H2942     1.0  0.59330  0.96758  0.00558  1.0000
  C   C3690     1.0  0.67812  0.95532  0.07736  1.0000
  S   S488      1.0  0.84392  0.97128  0.14206  1.0000
  Fe  Fe244     1.0  0.81469  0.98520  0.14303  1.0000
  H   H2943     1.0  0.85716  0.69786  0.15068  1.0000
  C   C3691     1.0  0.97502  0.80284  0.13677  1.0000
  C   C3692     1.0  0.55022  0.96975  0.06257  1.0000
  C   C3693     1.0  0.83302  0.69136  0.07958  1.0000
  H   H2944     1.0  0.89477  0.91045  0.15119  1.0000
  H   H2945     1.0  0.96352  0.93491  0.14973  1.0000
  C   C3694     1.0  0.99933  0.76715  0.22915  1.0000
  C   C3695     1.0  0.96728  0.95059  0.15204  1.0000
  C   C3696     1.0  0.65427  0.84737  0.98735  1.0000
  C   C3697     1.0  0.82074  0.97606  0.18005  1.0000
  C   C3698     1.0  0.95132  0.96238  0.15361  1.0000
  C   C3699     1.0  0.83170  0.98616  0.20053  1.0000
  C   C3700     1.0  0.93853  0.68037  0.20241  1.0000
  H   H2946     1.0  0.90039  0.94609  0.18361  1.0000
  H   H2947     1.0  0.90289  0.75449  0.22297  1.0000
  H   H2948     1.0  0.75959  0.92360  0.21069  1.0000
  C   C3701     1.0  0.86296  0.98330  0.07622  1.0000
  C   C3702     1.0  0.82870  0.97125  0.19232  1.0000
  H   H2949     1.0  0.88636  0.94635  0.14046  1.0000
  H   H2950     1.0  0.81897  0.96451  0.17370  1.0000
  P   P121      1.0  0.92360  0.95041  0.15330  1.0000
  H   H2951     1.0  0.00035  0.81594  0.20735  1.0000
  C   C3703     1.0  0.95674  0.98274  0.15647  1.0000
  H   H2952     1.0  0.61150  0.89692  0.07210  1.0000
  C   C3704     1.0  0.74597  0.99123  0.99149  1.0000
  P   P122      1.0  0.69686  0.86004  0.99061  1.0000
  H   H2953     1.0  0.83361  0.95632  0.19505  1.0000
  C   C3705     1.0  0.89690  0.95946  0.17650  1.0000
  C   C3706     1.0  0.90144  0.94967  0.13183  1.0000
  C   C3707     1.0  0.87485  0.67467  0.12304  1.0000
  C   C3708     1.0  0.92206  0.95238  0.13484  1.0000
  H   H2954     1.0  0.87695  0.96725  0.19437  1.0000
  C   C3709     1.0  0.90560  0.96497  0.16131  1.0000
  H   H2955     1.0  0.89675  0.81354  0.09532  1.0000
  C   C3710     1.0  0.94143  0.84008  0.00362  1.0000
  C   C3711     1.0  0.98083  0.89219  0.16442  1.0000
  H   H2956     1.0  0.63050  0.93615  0.03151  1.0000
  C   C3712     1.0  0.53593  0.91155  0.00632  1.0000
  C   C3713     1.0  0.88389  0.97159  0.18266  1.0000
  C   C3714     1.0  0.90009  0.95140  0.11759  1.0000
  H   H2957     1.0  0.88418  0.94973  0.11532  1.0000
  H   H2958     1.0  0.86743  0.70945  0.07127  1.0000
  C   C3715     1.0  0.86399  0.90668  0.19714  1.0000
  H   H2959     1.0  0.97428  0.69244  0.22031  1.0000
  P   P123      1.0  0.95527  0.83142  0.04878  1.0000
  C   C3716     1.0  0.93180  0.81367  0.06357  1.0000
  H   H2960     1.0  0.88122  0.69808  0.00877  1.0000
  H   H2961     1.0  0.87240  0.99884  0.07674  1.0000
  H   H2962     1.0  0.73054  0.97868  0.99441  1.0000
  C   C3717     1.0  0.85584  0.90644  0.21170  1.0000
  H   H2963     1.0  0.73578  0.97419  0.11357  1.0000
  C   C3718     1.0  0.94124  0.95690  0.12336  1.0000
  C   C3719     1.0  0.64666  0.80367  0.00316  1.0000
  H   H2964     1.0  0.96501  0.73252  0.01113  1.0000
  H   H2965     1.0  0.95464  0.96156  0.10038  1.0000
  H   H2966     1.0  0.58115  0.85455  0.04997  1.0000
  H   H2967     1.0  0.91810  0.95694  0.09524  1.0000
  C   C3720     1.0  0.94248  0.77189  0.14631  1.0000
  H   H2968     1.0  0.93306  0.81580  0.15778  1.0000
  H   H2969     1.0  0.90336  0.82605  0.22956  1.0000
  Fe  Fe245     1.0  0.85372  0.98779  0.11807  1.0000
  H   H2970     1.0  0.94245  0.87245  0.04132  1.0000
  H   H2971     1.0  0.66496  0.95971  0.01383  1.0000
  H   H2972     1.0  0.92697  0.83849  0.07470  1.0000
  H   H2973     1.0  0.90184  0.76015  0.07688  1.0000
  C   C3721     1.0  0.95998  0.78810  0.18862  1.0000
  C   C3722     1.0  0.90422  0.80743  0.08657  1.0000
  C   C3723     1.0  0.72876  0.99203  0.09450  1.0000
  C   C3724     1.0  0.55680  0.90769  0.00387  1.0000
  C   C3725     1.0  0.96371  0.81505  0.14416  1.0000
  H   H2974     1.0  0.88031  0.90477  0.19336  1.0000
  H   H2975     1.0  0.91532  0.68649  0.00509  1.0000
  H   H2976     1.0  0.71329  0.96816  0.07135  1.0000
  H   H2977     1.0  0.93232  0.78480  0.05614  1.0000
  H   H2978     1.0  0.57320  0.88548  0.03454  1.0000
  H   H2979     1.0  0.88417  0.77421  0.09667  1.0000
  C   C3726     1.0  0.93618  0.73394  0.00357  1.0000
  C   C3727     1.0  0.81673  0.67723  0.06229  1.0000
  C   C3728     1.0  0.99272  0.67254  0.07393  1.0000
  C   C3729     1.0  0.67106  0.84059  0.99272  1.0000
  H   H2980     1.0  0.86498  0.86575  0.21124  1.0000
  P   P124      1.0  0.87294  0.90310  0.22405  1.0000
  C   C3730     1.0  0.98171  0.87902  0.06592  1.0000
  C   C3731     1.0  0.92149  0.82158  0.07477  1.0000
  H   H2981     1.0  0.92032  0.90889  0.21028  1.0000
  C   C3732     1.0  0.75935  0.92772  0.98685  1.0000
  H   H2982     1.0  0.76352  0.99897  0.21459  1.0000
  C   C3733     1.0  0.84315  0.70804  0.01987  1.0000
  C   C3734     1.0  0.91923  0.95567  0.10625  1.0000
  H   H2983     1.0  0.97726  0.72793  0.22545  1.0000
  C   C3735     1.0  0.68561  0.89887  0.99208  1.0000
  C   C3736     1.0  0.64926  0.96121  0.01201  1.0000
  C   C3737     1.0  0.60273  0.89450  0.06408  1.0000
  C   C3738     1.0  0.56645  0.98158  0.04957  1.0000
  C   C3739     1.0  0.91500  0.73709  0.00678  1.0000
  H   H2984     1.0  0.90514  0.76022  0.13639  1.0000
  C   C3740     1.0  0.65661  0.98159  0.07856  1.0000
  H   H2985     1.0  0.80596  0.91554  0.20992  1.0000
  C   C3741     1.0  0.76016  0.93995  0.21168  1.0000
  H   H2986     1.0  0.95234  0.82570  0.22286  1.0000
  H   H2987     1.0  0.64073  0.98530  0.08028  1.0000
  C   C3742     1.0  0.88861  0.99514  0.15863  1.0000
  H   H2988     1.0  0.57615  0.98607  0.98928  1.0000
  C   C3743     1.0  0.58565  0.87062  0.05160  1.0000
  C   C3744     1.0  0.85125  0.90967  0.18733  1.0000
  H   H2989     1.0  0.91500  0.81051  0.01390  1.0000
  S   S489      1.0  0.58643  0.86240  0.99492  1.0000
  H   H2990     1.0  0.95199  0.81907  0.18351  1.0000
  H   H2991     1.0  0.66423  0.98651  0.99180  1.0000
  C   C3745     1.0  0.90188  0.67786  0.01483  1.0000
  C   C3746     1.0  0.89270  0.74750  0.14514  1.0000
  C   C3747     1.0  0.99045  0.79294  0.99795  1.0000
  C   C3748     1.0  0.59822  0.91228  0.05534  1.0000
  H   H2992     1.0  0.50741  0.98409  0.99699  1.0000
  C   C3749     1.0  0.96187  0.80988  0.18867  1.0000
  C   C3750     1.0  0.58133  0.88841  0.04273  1.0000
  C   C3751     1.0  0.89419  0.94753  0.21737  1.0000
  H   H2993     1.0  0.91105  0.98148  0.21320  1.0000
  C   C3752     1.0  0.97945  0.80451  0.06053  1.0000
  H   H2994     1.0  0.75590  0.93059  0.23483  1.0000
  H   H2995     1.0  0.85772  0.91006  0.17605  1.0000
  C   C3753     1.0  0.95438  0.68120  0.02918  1.0000
  C   C3754     1.0  0.57121  0.91480  0.01167  1.0000
  C   C3755     1.0  0.86544  0.71234  0.15309  1.0000
  C   C3756     1.0  0.97832  0.81936  0.04804  1.0000
  H   H2996     1.0  0.93866  0.84177  0.99292  1.0000
  C   C3757     1.0  0.76338  0.95711  0.19924  1.0000
  H   H2997     1.0  0.99181  0.81030  0.12988  1.0000
  H   H2998     1.0  0.54223  0.97836  0.06949  1.0000
  H   H2999     1.0  0.94694  0.69384  0.03172  1.0000
  H   H3000     1.0  0.82047  0.91509  0.18431  1.0000
  H   H3001     1.0  0.79663  0.68580  0.03104  1.0000
  C   C3758     1.0  0.84387  0.72671  0.99522  1.0000
  H   H3002     1.0  0.91909  0.68882  0.22010  1.0000
  C   C3759     1.0  0.99981  0.98790  0.10894  1.0000
  C   C3760     1.0  0.98766  0.72716  0.21535  1.0000
  S   S490      1.0  0.98756  0.84390  0.10052  1.0000
  H   H3003     1.0  0.98151  0.66943  0.09686  1.0000
  C   C3761     1.0  0.81502  0.99568  0.17605  1.0000
  H   H3004     1.0  0.57097  0.99931  0.04646  1.0000
  C   C3762     1.0  0.79745  0.66922  0.03142  1.0000
  C   C3763     1.0  0.63008  0.81056  0.99778  1.0000
  C   C3764     1.0  0.66280  0.98821  0.03949  1.0000
  S   S491      1.0  0.96388  0.90602  0.22687  1.0000
  H   H3005     1.0  0.73391  0.94470  0.98804  1.0000
  H   H3006     1.0  0.80043  0.99731  0.98917  1.0000
  C   C3765     1.0  0.87989  0.98949  0.17371  1.0000
  H   H3007     1.0  0.94492  0.99236  0.15758  1.0000
  C   C3766     1.0  0.96316  0.85725  0.05272  1.0000
  H   H3008     1.0  0.61733  0.90470  0.99390  1.0000
  H   H3009     1.0  0.84933  0.76167  0.99014  1.0000
  H   H3010     1.0  0.99795  0.83999  0.23557  1.0000
  H   H3011     1.0  0.98841  0.99075  0.10253  1.0000
  S   S492      1.0  0.88578  0.99710  0.23467  1.0000
  H   H3012     1.0  0.97674  0.78771  0.23065  1.0000
  C   C3767     1.0  0.94783  0.82270  0.23458  1.0000
  H   H3013     1.0  0.94142  0.67274  0.99158  1.0000
  H   H3014     1.0  0.96179  0.85634  0.23353  1.0000
  H   H3015     1.0  0.97539  0.86497  0.02069  1.0000
  S   S493      1.0  0.99604  0.94885  0.10216  1.0000
  H   H3016     1.0  0.95128  0.90672  0.04837  1.0000
  C   C3768     1.0  0.89598  0.87441  0.23460  1.0000
  C   C3769     1.0  0.96211  0.85299  0.01937  1.0000
  C   C3770     1.0  0.95837  0.85539  0.00561  1.0000
  C   C3771     1.0  0.95872  0.89369  0.05192  1.0000
  H   H3017     1.0  0.82854  0.91108  0.22711  1.0000
  H   H3018     1.0  0.80366  0.99963  0.23228  1.0000
  C   C3772     1.0  0.97693  0.85965  0.06192  1.0000
  C   C3773     1.0  0.99540  0.90283  0.17095  1.0000
  H   H3019     1.0  0.96866  0.86909  0.99644  1.0000
  C   C3774     1.0  0.78531  0.00186  0.98860  1.0000
  C   C3775     1.0  0.67711  0.99970  0.02564  1.0000
  C   C3776     1.0  0.67603  0.99842  0.07497  1.0000
  H   H3020     1.0  0.74659  0.00193  0.02065  1.0000
  C   C3777     1.0  0.99873  0.70552  0.19934  1.0000
  H   H3021     1.0  0.87196  0.67004  0.99075  1.0000
  H   H3022     1.0  0.00048  0.94984  0.15224  1.0000
  Fe  Fe246     1.0  0.99988  0.91180  0.21610  1.0000
  S   S494      1.0  0.92974  0.78039  0.23563  1.0000
  C   C3778     1.0  0.94597  0.79104  0.98644  1.0000
  Fe  Fe247     1.0  0.89505  0.70719  0.27688  1.0000
  Fe  Fe248     1.0  0.93581  0.70455  0.25588  1.0000
  S   S495      1.0  0.92997  0.72908  0.26808  1.0000
  S   S496      1.0  0.54557  0.91423  0.37399  1.0000
  C   C3779     1.0  0.83781  0.67211  0.27018  1.0000
  H   H3023     1.0  0.54571  0.86190  0.29774  1.0000
  H   H3024     1.0  0.91431  0.69817  0.32397  1.0000
  C   C3780     1.0  0.95963  0.89869  0.29373  1.0000
  C   C3781     1.0  0.98525  0.98483  0.27518  1.0000
  H   H3025     1.0  0.52524  0.93433  0.42471  1.0000
  Fe  Fe249     1.0  0.65074  0.98838  0.31408  1.0000
  S   S497      1.0  0.62009  0.96354  0.31467  1.0000
  C   C3782     1.0  0.77655  0.95684  0.25225  1.0000
  S   S498      1.0  0.67267  0.98359  0.32870  1.0000
  C   C3783     1.0  0.51966  0.80890  0.31708  1.0000
  H   H3026     1.0  0.82314  0.93988  0.24282  1.0000
  P   P125      1.0  0.97700  0.96379  0.29228  1.0000
  C   C3784     1.0  0.57529  0.98337  0.35711  1.0000
  H   H3027     1.0  0.76054  0.95562  0.27450  1.0000
  S   S499      1.0  0.87516  0.96418  0.27370  1.0000
  H   H3028     1.0  0.84624  0.68956  0.35081  1.0000
  H   H3029     1.0  0.57075  0.89080  0.40909  1.0000
  C   C3785     1.0  0.98957  0.75912  0.25962  1.0000
  C   C3786     1.0  0.51767  0.88827  0.41343  1.0000
  H   H3030     1.0  0.56934  0.95837  0.39261  1.0000
  H   H3031     1.0  0.85520  0.68046  0.26590  1.0000
  H   H3032     1.0  0.67074  0.94232  0.28164  1.0000
  C   C3787     1.0  0.57765  0.96697  0.38129  1.0000
  H   H3033     1.0  0.91391  0.85250  0.24318  1.0000
  H   H3034     1.0  0.89785  0.95676  0.29669  1.0000
  C   C3788     1.0  0.98473  0.77707  0.23646  1.0000
  C   C3789     1.0  0.90196  0.96474  0.26439  1.0000
  C   C3790     1.0  0.91594  0.98468  0.25514  1.0000
  H   H3035     1.0  0.78774  0.68250  0.27926  1.0000
  H   H3036     1.0  0.60624  0.99753  0.34045  1.0000
  C   C3791     1.0  0.92756  0.94584  0.25406  1.0000
  C   C3792     1.0  0.90831  0.94536  0.26440  1.0000
  C   C3793     1.0  0.54622  0.91304  0.31565  1.0000
  C   C3794     1.0  0.90349  0.85557  0.23604  1.0000
  H   H3037     1.0  0.93187  0.93078  0.25346  1.0000
  H   H3038     1.0  0.89778  0.92990  0.27171  1.0000
  H   H3039     1.0  0.54712  0.96695  0.37574  1.0000
  H   H3040     1.0  0.96003  0.98071  0.31686  1.0000
  H   H3041     1.0  0.54713  0.82403  0.29780  1.0000
  C   C3795     1.0  0.92519  0.68558  0.30611  1.0000
  H   H3042     1.0  0.52035  0.79237  0.31714  1.0000
  C   C3796     1.0  0.80574  0.93749  0.26482  1.0000
  C   C3797     1.0  0.82226  0.68409  0.27208  1.0000
  H   H3043     1.0  0.77155  0.97683  0.29353  1.0000
  C   C3798     1.0  0.98556  0.97966  0.26201  1.0000
  C   C3799     1.0  0.51545  0.85895  0.37638  1.0000
  H   H3044     1.0  0.52835  0.86087  0.34059  1.0000
  C   C3800     1.0  0.56638  0.92855  0.35763  1.0000
  C   C3801     1.0  0.56126  0.94069  0.34569  1.0000
  C   C3802     1.0  0.57806  0.95224  0.33279  1.0000
  C   C3803     1.0  0.59997  0.95149  0.33162  1.0000
  C   C3804     1.0  0.60509  0.93933  0.34353  1.0000
  C   C3805     1.0  0.58832  0.92788  0.35652  1.0000
  H   H3045     1.0  0.54442  0.94133  0.34640  1.0000
  H   H3046     1.0  0.57409  0.96188  0.32371  1.0000
  H   H3047     1.0  0.62188  0.93828  0.34255  1.0000
  H   H3048     1.0  0.59233  0.91828  0.36562  1.0000
  H   H3049     1.0  0.62888  0.98935  0.35726  1.0000
  C   C3806     1.0  0.93058  0.79780  0.25881  1.0000
  C   C3807     1.0  0.93568  0.81527  0.26483  1.0000
  C   C3808     1.0  0.94690  0.83645  0.25574  1.0000
  H   H3050     1.0  0.96898  0.71426  0.27404  1.0000
  H   H3051     1.0  0.92176  0.78154  0.26587  1.0000
  C   C3809     1.0  0.99083  0.99642  0.24902  1.0000
  H   H3052     1.0  0.59197  0.92409  0.38916  1.0000
  C   C3810     1.0  0.97587  0.68656  0.26725  1.0000
  C   C3811     1.0  0.92014  0.68499  0.32081  1.0000
  H   H3053     1.0  0.91153  0.99980  0.25527  1.0000
  H   H3054     1.0  0.88658  0.69647  0.34638  1.0000
  S   S500      1.0  0.95234  0.85832  0.26340  1.0000
  S   S501      1.0  0.73005  0.98563  0.30356  1.0000
  C   C3812     1.0  0.80891  0.94255  0.24975  1.0000
  C   C3813     1.0  0.99640  0.96882  0.30276  1.0000
  C   C3814     1.0  0.67890  0.94669  0.36887  1.0000
  C   C3815     1.0  0.86550  0.91377  0.25068  1.0000
  C   C3816     1.0  0.82650  0.87991  0.26364  1.0000
  C   C3817     1.0  0.95841  0.91940  0.29513  1.0000
  C   C3818     1.0  0.55884  0.99928  0.30645  1.0000
  H   H3055     1.0  0.62915  0.94981  0.36360  1.0000
  H   H3056     1.0  0.94445  0.00054  0.23691  1.0000
  C   C3819     1.0  0.96005  0.72553  0.34312  1.0000
  C   C3820     1.0  0.51780  0.91786  0.42460  1.0000
  C   C3821     1.0  0.52900  0.92288  0.31476  1.0000
  C   C3822     1.0  0.99788  0.93353  0.28388  1.0000
  H   H3057     1.0  0.97496  0.94542  0.32280  1.0000
  H   H3058     1.0  0.82527  0.89097  0.28290  1.0000
  H   H3059     1.0  0.99164  0.99236  0.23885  1.0000
  S   S502      1.0  0.96586  0.69182  0.25190  1.0000
  H   H3060     1.0  0.58846  0.98647  0.40634  1.0000
  C   C3823     1.0  0.51800  0.85153  0.31697  1.0000
  C   C3824     1.0  0.60755  0.00063  0.28676  1.0000
  H   H3061     1.0  0.96822  0.78040  0.25718  1.0000
  H   H3062     1.0  0.60780  0.95678  0.42082  1.0000
  C   C3825     1.0  0.73081  0.96138  0.25592  1.0000
  C   C3826     1.0  0.71388  0.94779  0.25252  1.0000
  C   C3827     1.0  0.68744  0.94751  0.27448  1.0000
  C   C3828     1.0  0.70417  0.96098  0.27794  1.0000
  C   C3829     1.0  0.72568  0.96802  0.26869  1.0000
  H   H3063     1.0  0.69106  0.95501  0.38628  1.0000
  H   H3064     1.0  0.53981  0.96901  0.40525  1.0000
  C   C3830     1.0  0.54349  0.98852  0.32013  1.0000
  H   H3065     1.0  0.92355  0.69917  0.29810  1.0000
  C   C3831     1.0  0.97752  0.93709  0.28999  1.0000
  H   H3066     1.0  0.89174  0.97193  0.31783  1.0000
  H   H3067     1.0  0.83429  0.68697  0.29846  1.0000
  C   C3832     1.0  0.53368  0.94474  0.30664  1.0000
  C   C3833     1.0  0.83424  0.89353  0.27164  1.0000
  C   C3834     1.0  0.55563  0.95703  0.29952  1.0000
  C   C3835     1.0  0.98854  0.67561  0.29304  1.0000
  Fe  Fe250     1.0  0.86752  0.99082  0.25807  1.0000
  C   C3836     1.0  0.57272  0.94674  0.30003  1.0000
  C   C3837     1.0  0.92553  0.97684  0.31883  1.0000
  P   P126      1.0  0.56190  0.98637  0.29184  1.0000
  H   H3068     1.0  0.70049  0.96613  0.28780  1.0000
  H   H3069     1.0  0.73823  0.97889  0.27148  1.0000
  H   H3070     1.0  0.97596  0.73474  0.33553  1.0000
  C   C3838     1.0  0.52557  0.97542  0.40560  1.0000
  H   H3071     1.0  0.92301  0.98402  0.32781  1.0000
  H   H3072     1.0  0.54748  0.00021  0.44523  1.0000
  C   C3839     1.0  0.97981  0.77297  0.25162  1.0000
  C   C3840     1.0  0.85761  0.90037  0.24247  1.0000
  H   H3073     1.0  0.90362  0.69194  0.37077  1.0000
  C   C3841     1.0  0.79457  0.95243  0.24346  1.0000
  H   H3074     1.0  0.52493  0.88205  0.40468  1.0000
  C   C3842     1.0  0.52613  0.99549  0.40867  1.0000
  C   C3843     1.0  0.97995  0.89533  0.28760  1.0000
  C   C3844     1.0  0.93240  0.66873  0.30173  1.0000
  H   H3075     1.0  0.54176  0.91966  0.40487  1.0000
  Fe  Fe251     1.0  0.91851  0.74494  0.24928  1.0000
  C   C3845     1.0  0.91922  0.70135  0.36289  1.0000
  H   H3076     1.0  0.54282  0.89654  0.32252  1.0000
  C   C3846     1.0  0.99910  0.91270  0.28282  1.0000
  H   H3077     1.0  0.54514  0.87316  0.35865  1.0000
  H   H3078     1.0  0.52290  0.86474  0.38419  1.0000
  S   S503      1.0  0.97981  0.92148  0.25373  1.0000
  H   H3079     1.0  0.65771  0.96528  0.39720  1.0000
  C   C3847     1.0  0.85367  0.91045  0.26515  1.0000
  H   H3080     1.0  0.52025  0.95241  0.30658  1.0000
  C   C3848     1.0  0.77362  0.95177  0.26740  1.0000
  H   H3081     1.0  0.81747  0.93091  0.26961  1.0000
  H   H3082     1.0  0.94478  0.88523  0.29724  1.0000
  C   C3849     1.0  0.77312  0.99368  0.28796  1.0000
  S   S504      1.0  0.83519  0.99084  0.25302  1.0000
  C   C3850     1.0  0.59007  0.99725  0.28038  1.0000
  H   H3083     1.0  0.58149  0.91754  0.30913  1.0000
  H   H3084     1.0  0.69360  0.94233  0.36401  1.0000
  C   C3851     1.0  0.52800  0.86367  0.36194  1.0000
  H   H3085     1.0  0.82773  0.70179  0.26937  1.0000
  C   C3852     1.0  0.85331  0.67608  0.35395  1.0000
  C   C3853     1.0  0.83820  0.88321  0.24915  1.0000
  H   H3086     1.0  0.58985  0.95582  0.29498  1.0000
  C   C3854     1.0  0.85659  0.67480  0.30952  1.0000
  S   S505      1.0  0.90199  0.68130  0.26611  1.0000
  C   C3855     1.0  0.94647  0.97468  0.31269  1.0000
  C   C3856     1.0  0.56496  0.97216  0.37178  1.0000
  C   C3857     1.0  0.52725  0.90953  0.41354  1.0000
  C   C3858     1.0  0.94934  0.70535  0.34183  1.0000
  Fe  Fe252     1.0  0.89279  0.70086  0.24753  1.0000
  S   S506      1.0  0.88308  0.72525  0.25900  1.0000
  C   C3859     1.0  0.53394  0.84805  0.30614  1.0000
  H   H3087     1.0  0.81154  0.86665  0.26871  1.0000
  H   H3088     1.0  0.94257  0.92132  0.30025  1.0000
  H   H3089     1.0  0.53280  0.96159  0.27819  1.0000
  C   C3860     1.0  0.94023  0.96569  0.24381  1.0000
  Fe  Fe253     1.0  0.97250  0.89045  0.24709  1.0000
  C   C3861     1.0  0.51809  0.98446  0.26707  1.0000
  H   H3090     1.0  0.53316  0.97217  0.32245  1.0000
  H   H3091     1.0  0.78605  0.93882  0.28528  1.0000
  C   C3862     1.0  0.97535  0.70017  0.27645  1.0000
  H   H3092     1.0  0.66234  0.93939  0.35295  1.0000
  C   C3863     1.0  0.59830  0.98936  0.35192  1.0000
  C   C3864     1.0  0.83608  0.67379  0.30669  1.0000
  H   H3093     1.0  0.95730  0.69909  0.33329  1.0000
  H   H3094     1.0  0.60435  0.99635  0.29852  1.0000
  H   H3095     1.0  0.90091  0.88582  0.24061  1.0000
  H   H3096     1.0  0.98552  0.75575  0.27139  1.0000
  H   H3097     1.0  0.56738  0.89047  0.43491  1.0000
  H   H3098     1.0  0.58597  0.92358  0.44066  1.0000
  C   C3865     1.0  0.54379  0.99378  0.28101  1.0000
  C   C3866     1.0  0.92997  0.72156  0.36415  1.0000
  C   C3867     1.0  0.78812  0.94211  0.27364  1.0000
  C   C3868     1.0  0.95032  0.73369  0.35423  1.0000
  H   H3099     1.0  0.92255  0.72775  0.37286  1.0000
  H   H3100     1.0  0.95865  0.74934  0.35520  1.0000
  C   C3869     1.0  0.79977  0.67321  0.27763  1.0000
  C   C3870     1.0  0.93227  0.95943  0.29509  1.0000
  C   C3871     1.0  0.98225  0.69501  0.28916  1.0000
  S   S507      1.0  0.87866  0.69867  0.30110  1.0000
  C   C3872     1.0  0.69229  0.94093  0.26176  1.0000
  H   H3101     1.0  0.67926  0.93057  0.25905  1.0000
  H   H3102     1.0  0.93075  0.81241  0.27654  1.0000
  H   H3103     1.0  0.85963  0.92098  0.27140  1.0000
  S   S508      1.0  0.92720  0.72196  0.23638  1.0000
  C   C3873     1.0  0.91133  0.96142  0.30134  1.0000
  H   H3104     1.0  0.52863  0.99100  0.34144  1.0000
  C   C3874     1.0  0.50683  0.96377  0.40281  1.0000
  C   C3875     1.0  0.94982  0.96530  0.30106  1.0000
  C   C3876     1.0  0.99106  0.95692  0.31750  1.0000
  C   C3877     1.0  0.93650  0.80155  0.24366  1.0000
  C   C3878     1.0  0.93476  0.98512  0.24470  1.0000
  C   C3879     1.0  0.56802  0.92486  0.30811  1.0000
  H   H3105     1.0  0.93483  0.95355  0.28549  1.0000
  H   H3106     1.0  0.56549  0.98681  0.34965  1.0000
  C   C3880     1.0  0.92860  0.69339  0.35151  1.0000
  H   H3107     1.0  0.51209  0.91399  0.32086  1.0000
  C   C3881     1.0  0.51829  0.85684  0.35168  1.0000
  C   C3882     1.0  0.60529  0.99653  0.40352  1.0000
  Fe  Fe254     1.0  0.51182  0.91816  0.37307  1.0000
  C   C3883     1.0  0.60078  0.97267  0.37615  1.0000
  C   C3884     1.0  0.61105  0.98429  0.36143  1.0000
  P   P127      1.0  0.61702  0.96696  0.38874  1.0000
  C   C3885     1.0  0.62280  0.99090  0.39516  1.0000
  C   C3886     1.0  0.60112  0.94300  0.40353  1.0000
  C   C3887     1.0  0.59954  0.94262  0.41812  1.0000
  C   C3888     1.0  0.58729  0.92375  0.42941  1.0000
  C   C3889     1.0  0.57688  0.90508  0.42618  1.0000
  C   C3890     1.0  0.57879  0.90523  0.41165  1.0000
  C   C3891     1.0  0.59082  0.92412  0.40037  1.0000
  C   C3892     1.0  0.87621  0.67991  0.35146  1.0000
  C   C3893     1.0  0.90792  0.97005  0.31323  1.0000
  C   C3894     1.0  0.76966  0.99984  0.24075  1.0000
  C   C3895     1.0  0.53168  0.97832  0.27573  1.0000
  C   C3896     1.0  0.50263  0.83371  0.32791  1.0000
  C   C3897     1.0  0.64142  0.95945  0.38075  1.0000
  C   C3898     1.0  0.65868  0.95998  0.38741  1.0000
  C   C3899     1.0  0.67749  0.95392  0.38136  1.0000
  C   C3900     1.0  0.66133  0.94511  0.36260  1.0000
  C   C3901     1.0  0.64261  0.95132  0.36856  1.0000
  H   H3108     1.0  0.98132  0.70526  0.29645  1.0000
  H   H3109     1.0  0.88085  0.92659  0.24613  1.0000
  H   H3110     1.0  0.50858  0.97244  0.26317  1.0000
  C   C3902     1.0  0.53475  0.82673  0.30618  1.0000
  H   H3111     1.0  0.98174  0.96282  0.26170  1.0000
  C   C3903     1.0  0.95317  0.84007  0.24060  1.0000
  H   H3112     1.0  0.93652  0.66944  0.29031  1.0000
  H   H3113     1.0  0.83223  0.87227  0.24314  1.0000
  H   H3114     1.0  0.98076  0.87940  0.28622  1.0000
  P   P128      1.0  0.75877  0.97076  0.24396  1.0000
  H   H3115     1.0  0.51767  0.86816  0.31681  1.0000
  C   C3904     1.0  0.54089  0.99913  0.33107  1.0000
  H   H3116     1.0  0.71714  0.94260  0.24271  1.0000
  H   H3117     1.0  0.52398  0.99172  0.37317  1.0000
  C   C3905     1.0  0.50371  0.81234  0.32795  1.0000
  H   H3118     1.0  0.80724  0.99974  0.27625  1.0000
  S   S509      1.0  0.50448  0.95047  0.36583  1.0000
  H   H3119     1.0  0.50673  0.94845  0.40021  1.0000
  Fe  Fe255     1.0  0.70109  0.00010  0.30847  1.0000
  H   H3120     1.0  0.58160  0.00133  0.25985  1.0000
  S   S510      1.0  0.67906  0.00192  0.29367  1.0000
  Fe  Fe256     1.0  0.84110  0.95472  0.70734  1.0000
  S   S511      1.0  0.85700  0.93066  0.69894  1.0000
  S   S512      1.0  0.80624  0.94718  0.72102  1.0000
  C   C3906     1.0  0.63919  0.91910  0.54108  1.0000
  H   H3121     1.0  0.66941  0.95352  0.55533  1.0000
  S   S513      1.0  0.94228  0.87670  0.71961  1.0000
  H   H3122     1.0  0.89100  0.95394  0.71783  1.0000
  C   C3907     1.0  0.57313  0.98857  0.50872  1.0000
  S   S514      1.0  0.96375  0.82675  0.71219  1.0000
  H   H3123     1.0  0.55029  0.85911  0.72333  1.0000
  C   C3908     1.0  0.53597  0.94657  0.68635  1.0000
  Fe  Fe257     1.0  0.53883  0.86509  0.59408  1.0000
  S   S515      1.0  0.52683  0.89536  0.59273  1.0000
  S   S516      1.0  0.55686  0.85587  0.61156  1.0000
  Fe  Fe258     1.0  0.51632  0.85283  0.57054  1.0000
  C   C3909     1.0  0.94312  0.96309  0.68621  1.0000
  C   C3910     1.0  0.86389  0.82279  0.72357  1.0000
  Fe  Fe259     1.0  0.53722  0.90083  0.56848  1.0000
  S   S517      1.0  0.55747  0.93424  0.55337  1.0000
  H   H3124     1.0  0.51911  0.83215  0.68751  1.0000
  C   C3911     1.0  0.95427  0.69235  0.58135  1.0000
  S   S518      1.0  0.55088  0.87136  0.56968  1.0000
  H   H3125     1.0  0.52860  0.94019  0.58893  1.0000
  C   C3912     1.0  0.95902  0.95477  0.63119  1.0000
  C   C3913     1.0  0.95390  0.74195  0.71841  1.0000
  C   C3914     1.0  0.51511  0.81328  0.65959  1.0000
  C   C3915     1.0  0.97505  0.87655  0.68513  1.0000
  H   H3126     1.0  0.54734  0.80513  0.70936  1.0000
  H   H3127     1.0  0.89222  0.91002  0.69720  1.0000
  C   C3916     1.0  0.88540  0.96579  0.66598  1.0000
  S   S519      1.0  0.51905  0.87635  0.66922  1.0000
  C   C3917     1.0  0.55228  0.84383  0.72932  1.0000
  H   H3128     1.0  0.96896  0.98695  0.61594  1.0000
  H   H3129     1.0  0.74241  0.95498  0.73090  1.0000
  Fe  Fe260     1.0  0.68432  0.93267  0.65803  1.0000
  S   S520      1.0  0.66048  0.94629  0.67136  1.0000
  S   S521      1.0  0.71687  0.92872  0.66311  1.0000
  Fe  Fe261     1.0  0.65293  0.92285  0.63856  1.0000
  S   S522      1.0  0.62806  0.93655  0.65071  1.0000
  S   S523      1.0  0.64696  0.91095  0.61889  1.0000
  Fe  Fe262     1.0  0.65653  0.96362  0.64976  1.0000
  C   C3918     1.0  0.51836  0.92819  0.64368  1.0000
  Fe  Fe263     1.0  0.63415  0.91798  0.67089  1.0000
  S   S524      1.0  0.60490  0.89851  0.69032  1.0000
  S   S525      1.0  0.68172  0.95148  0.63624  1.0000
  S   S526      1.0  0.65794  0.90285  0.65897  1.0000
  Fe  Fe264     1.0  0.92915  0.69935  0.67551  1.0000
  S   S527      1.0  0.89445  0.70174  0.68209  1.0000
  C   C3919     1.0  0.59592  0.93697  0.58639  1.0000
  Fe  Fe265     1.0  0.94434  0.74233  0.65220  1.0000
  S   S528      1.0  0.91052  0.74784  0.65682  1.0000
  S   S529      1.0  0.97087  0.77022  0.63562  1.0000
  Fe  Fe266     1.0  0.91004  0.73684  0.68036  1.0000
  S   S530      1.0  0.89731  0.75262  0.69785  1.0000
  Fe  Fe267     1.0  0.89874  0.71221  0.65802  1.0000
  S   S531      1.0  0.87151  0.69989  0.64831  1.0000
  S   S532      1.0  0.94455  0.73337  0.67569  1.0000
  S   S533      1.0  0.93266  0.70770  0.65147  1.0000
  H   H3130     1.0  0.96153  0.92465  0.68338  1.0000
  H   H3131     1.0  0.91191  0.73538  0.62870  1.0000
  H   H3132     1.0  0.96895  0.70317  0.68784  1.0000
  C   C3920     1.0  0.94095  0.97460  0.65189  1.0000
  H   H3133     1.0  0.52705  0.97696  0.61895  1.0000
  H   H3134     1.0  0.94037  0.76903  0.61274  1.0000
  H   H3135     1.0  0.97992  0.72946  0.63144  1.0000
  H   H3136     1.0  0.84411  0.98226  0.65387  1.0000
  C   C3921     1.0  0.97085  0.73610  0.72399  1.0000
  C   C3922     1.0  0.52912  0.93551  0.65333  1.0000
  H   H3137     1.0  0.56845  0.91131  0.60162  1.0000
  C   C3923     1.0  0.93924  0.75373  0.60992  1.0000
  C   C3924     1.0  0.53889  0.99455  0.56372  1.0000
  H   H3138     1.0  0.57433  0.97460  0.51674  1.0000
  C   C3925     1.0  0.95324  0.73289  0.59416  1.0000
  H   H3139     1.0  0.96701  0.76734  0.59075  1.0000
  C   C3926     1.0  0.99772  0.78716  0.66370  1.0000
  C   C3927     1.0  0.94281  0.70595  0.71503  1.0000
  C   C3928     1.0  0.51756  0.96590  0.59605  1.0000
  H   H3140     1.0  0.91089  0.70006  0.62337  1.0000
  H   H3141     1.0  0.99424  0.80069  0.71020  1.0000
  C   C3929     1.0  0.58277  0.95634  0.64626  1.0000
  H   H3142     1.0  0.54702  0.92723  0.71856  1.0000
  C   C3930     1.0  0.54222  0.88025  0.67603  1.0000
  C   C3931     1.0  0.56260  0.88000  0.66741  1.0000
  C   C3932     1.0  0.58195  0.88590  0.67164  1.0000
  C   C3933     1.0  0.58073  0.89036  0.68506  1.0000
  C   C3934     1.0  0.56004  0.88851  0.69431  1.0000
  C   C3935     1.0  0.54088  0.88414  0.68963  1.0000
  H   H3143     1.0  0.56362  0.87667  0.65698  1.0000
  H   H3144     1.0  0.59784  0.88720  0.66445  1.0000
  H   H3145     1.0  0.55897  0.89171  0.70476  1.0000
  H   H3146     1.0  0.52515  0.88394  0.69648  1.0000
  H   H3147     1.0  0.89094  0.69333  0.60680  1.0000
  H   H3148     1.0  0.50781  0.98164  0.55980  1.0000
  H   H3149     1.0  0.53800  0.99736  0.65904  1.0000
  H   H3150     1.0  0.92077  0.93715  0.72246  1.0000
  C   C3936     1.0  0.54995  0.95715  0.55762  1.0000
  C   C3937     1.0  0.52936  0.96058  0.55705  1.0000
  C   C3938     1.0  0.99084  0.96950  0.71887  1.0000
  C   C3939     1.0  0.65522  0.94554  0.55242  1.0000
  C   C3940     1.0  0.59116  0.00115  0.65991  1.0000
  C   C3941     1.0  0.56519  0.97278  0.56086  1.0000
  H   H3151     1.0  0.93555  0.97707  0.73004  1.0000
  H   H3152     1.0  0.89370  0.97584  0.69300  1.0000
  C   C3942     1.0  0.97530  0.67068  0.62579  1.0000
  H   H3153     1.0  0.60981  0.93512  0.61466  1.0000
  Fe  Fe268     1.0  0.82054  0.96964  0.73310  1.0000
  H   H3154     1.0  0.60413  0.99121  0.58422  1.0000
  H   H3155     1.0  0.50953  0.99799  0.63228  1.0000
  H   H3156     1.0  0.83956  0.81866  0.71169  1.0000
  C   C3943     1.0  0.98897  0.74272  0.62176  1.0000
  H   H3157     1.0  0.85245  0.94884  0.66684  1.0000
  C   C3944     1.0  0.58205  0.87140  0.61336  1.0000
  C   C3945     1.0  0.58548  0.86907  0.62730  1.0000
  C   C3946     1.0  0.60506  0.88114  0.62919  1.0000
  C   C3947     1.0  0.62179  0.89545  0.61712  1.0000
  C   C3948     1.0  0.61885  0.89696  0.60312  1.0000
  C   C3949     1.0  0.59910  0.88515  0.60125  1.0000
  H   H3158     1.0  0.57287  0.85799  0.63673  1.0000
  H   H3159     1.0  0.60725  0.87932  0.64001  1.0000
  H   H3160     1.0  0.63187  0.90748  0.59364  1.0000
  H   H3161     1.0  0.59714  0.88647  0.59042  1.0000
  C   C3950     1.0  0.94489  0.80633  0.70835  1.0000
  C   C3951     1.0  0.95230  0.79835  0.69649  1.0000
  C   C3952     1.0  0.93790  0.78199  0.69313  1.0000
  C   C3953     1.0  0.91588  0.77345  0.70162  1.0000
  C   C3954     1.0  0.90848  0.78145  0.71347  1.0000
  C   C3955     1.0  0.92295  0.79771  0.71688  1.0000
  H   H3162     1.0  0.96924  0.80490  0.68985  1.0000
  H   H3163     1.0  0.94379  0.77611  0.68392  1.0000
  H   H3164     1.0  0.89151  0.77494  0.72011  1.0000
  C   C3956     1.0  0.52395  0.97935  0.55994  1.0000
  C   C3957     1.0  0.75740  0.96451  0.68887  1.0000
  C   C3958     1.0  0.76391  0.94802  0.68335  1.0000
  C   C3959     1.0  0.75128  0.93721  0.67559  1.0000
  C   C3960     1.0  0.73195  0.94261  0.67326  1.0000
  C   C3961     1.0  0.72529  0.95885  0.67897  1.0000
  C   C3962     1.0  0.73793  0.96969  0.68669  1.0000
  H   H3165     1.0  0.77879  0.94379  0.68491  1.0000
  H   H3166     1.0  0.75666  0.92471  0.67123  1.0000
  H   H3167     1.0  0.71053  0.96328  0.67731  1.0000
  C   C3963     1.0  0.86498  0.91416  0.71250  1.0000
  H   H3168     1.0  0.67300  0.92599  0.54196  1.0000
  C   C3964     1.0  0.57357  0.84118  0.72792  1.0000
  C   C3965     1.0  0.94678  0.67256  0.61328  1.0000
  C   C3966     1.0  0.88850  0.89111  0.71912  1.0000
  C   C3967     1.0  0.88271  0.90539  0.70849  1.0000
  C   C3968     1.0  0.98060  0.69955  0.55288  1.0000
  C   C3969     1.0  0.96135  0.70662  0.55510  1.0000
  H   H3169     1.0  0.90190  0.88405  0.71592  1.0000
  H   H3170     1.0  0.98778  0.86877  0.68738  1.0000
  P   P129      1.0  0.92796  0.98695  0.66497  1.0000
  H   H3171     1.0  0.96560  0.73250  0.58481  1.0000
  C   C3970     1.0  0.50274  0.78188  0.59316  1.0000
  H   H3172     1.0  0.98203  0.76014  0.68306  1.0000
  H   H3173     1.0  0.93254  0.69462  0.71104  1.0000
  S   S534      1.0  0.85568  0.97378  0.72098  1.0000
  H   H3174     1.0  0.60318  0.92557  0.58187  1.0000
  C   C3971     1.0  0.95966  0.70001  0.72054  1.0000
  C   C3972     1.0  0.95421  0.75278  0.59753  1.0000
  H   H3175     1.0  0.85702  0.69744  0.71541  1.0000
  H   H3176     1.0  0.79062  0.90188  0.71942  1.0000
  C   C3973     1.0  0.65303  0.96208  0.58828  1.0000
  C   C3974     1.0  0.57676  0.96550  0.59897  1.0000
  H   H3177     1.0  0.89110  0.69528  0.72267  1.0000
  H   H3178     1.0  0.92702  0.73156  0.70957  1.0000
  C   C3975     1.0  0.54973  0.93360  0.70693  1.0000
  H   H3179     1.0  0.95175  0.75830  0.71721  1.0000
  S   S535      1.0  0.83904  0.98388  0.69093  1.0000
  C   C3976     1.0  0.53245  0.93839  0.70140  1.0000
  C   C3977     1.0  0.50702  0.82800  0.69803  1.0000
  H   H3180     1.0  0.99083  0.70237  0.54190  1.0000
  H   H3181     1.0  0.95662  0.71491  0.54584  1.0000
  H   H3182     1.0  0.66899  0.95638  0.60543  1.0000
  H   H3183     1.0  0.60471  0.91559  0.54214  1.0000
  H   H3184     1.0  0.97260  0.68889  0.65498  1.0000
  H   H3185     1.0  0.67557  0.00173  0.55580  1.0000
  C   C3978     1.0  0.60681  0.96355  0.62190  1.0000
  C   C3979     1.0  0.67036  0.96630  0.59460  1.0000
  C   C3980     1.0  0.65439  0.97515  0.57443  1.0000
  C   C3981     1.0  0.54008  0.97238  0.63733  1.0000
  C   C3982     1.0  0.93859  0.95191  0.65576  1.0000
  H   H3186     1.0  0.70263  0.98663  0.59208  1.0000
  H   H3187     1.0  0.60340  0.99186  0.65948  1.0000
  C   C3983     1.0  0.60254  0.94111  0.62346  1.0000
  H   H3188     1.0  0.59859  0.98862  0.63133  1.0000
  H   H3189     1.0  0.96605  0.94714  0.62320  1.0000
  H   H3190     1.0  0.61715  0.97488  0.61168  1.0000
  C   C3984     1.0  0.61683  0.93966  0.55242  1.0000
  H   H3191     1.0  0.53416  0.97624  0.59359  1.0000
  H   H3192     1.0  0.92926  0.94171  0.66664  1.0000
  H   H3193     1.0  0.52263  0.95093  0.68225  1.0000
  H   H3194     1.0  0.50067  0.86746  0.48702  1.0000
  C   C3985     1.0  0.54049  0.95764  0.65005  1.0000
  H   H3195     1.0  0.51126  0.91082  0.64561  1.0000
  H   H3196     1.0  0.85209  0.81518  0.73421  1.0000
  H   H3197     1.0  0.94606  0.92461  0.64860  1.0000
  H   H3198     1.0  0.96472  0.99828  0.69455  1.0000
  H   H3199     1.0  0.64075  0.90682  0.53534  1.0000
  C   C3986     1.0  0.59647  0.97378  0.58768  1.0000
  Fe  Fe269     1.0  0.95372  0.84699  0.72747  1.0000
  C   C3987     1.0  0.88114  0.68101  0.72093  1.0000
  C   C3988     1.0  0.68936  0.98333  0.58704  1.0000
  C   C3989     1.0  0.86023  0.98324  0.65576  1.0000
  S   S536      1.0  0.81678  0.99970  0.71845  1.0000
  C   C3990     1.0  0.66241  0.77806  0.67671  1.0000
  C   C3991     1.0  0.66969  0.77327  0.68922  1.0000
  C   C3992     1.0  0.66773  0.78613  0.69887  1.0000
  C   C3993     1.0  0.65859  0.80384  0.69599  1.0000
  C   C3994     1.0  0.65154  0.80893  0.68333  1.0000
  C   C3995     1.0  0.65326  0.79576  0.67379  1.0000
  P   P130      1.0  0.63937  0.83155  0.67986  1.0000
  C   C3996     1.0  0.61031  0.82315  0.68957  1.0000
  C   C3997     1.0  0.65400  0.85349  0.68560  1.0000
  C   C3998     1.0  0.64253  0.86558  0.69318  1.0000
  C   C3999     1.0  0.65409  0.88325  0.69686  1.0000
  C   C4000     1.0  0.67715  0.88887  0.69315  1.0000
  C   C4001     1.0  0.68867  0.87655  0.68599  1.0000
  C   C4002     1.0  0.67718  0.85887  0.68230  1.0000
  C   C4003     1.0  0.59667  0.83650  0.68581  1.0000
  C   C4004     1.0  0.57405  0.82998  0.69289  1.0000
  C   C4005     1.0  0.56486  0.81011  0.70382  1.0000
  C   C4006     1.0  0.57834  0.79677  0.70770  1.0000
  C   C4007     1.0  0.60101  0.80324  0.70062  1.0000
  C   C4008     1.0  0.64214  0.84059  0.66047  1.0000
  C   C4009     1.0  0.62520  0.83174  0.65479  1.0000
  C   C4010     1.0  0.62702  0.83893  0.63988  1.0000
  C   C4011     1.0  0.64581  0.85486  0.63051  1.0000
  C   C4012     1.0  0.66287  0.86345  0.63600  1.0000
  C   C4013     1.0  0.66119  0.85621  0.65087  1.0000
  H   H3200     1.0  0.66392  0.76809  0.66923  1.0000
  C   C4014     1.0  0.62254  0.99584  0.54254  1.0000
  C   C4015     1.0  0.51673  0.94315  0.63159  1.0000
  H   H3201     1.0  0.65711  0.81361  0.70359  1.0000
  H   H3202     1.0  0.64770  0.79917  0.66405  1.0000
  H   H3203     1.0  0.62474  0.86203  0.69588  1.0000
  H   H3204     1.0  0.64516  0.89314  0.70207  1.0000
  H   H3205     1.0  0.68618  0.90318  0.69538  1.0000
  H   H3206     1.0  0.70660  0.88142  0.68277  1.0000
  H   H3207     1.0  0.68647  0.84988  0.67645  1.0000
  H   H3208     1.0  0.60360  0.85202  0.67740  1.0000
  H   H3209     1.0  0.56374  0.84048  0.68987  1.0000
  C   C4016     1.0  0.57057  0.93705  0.69740  1.0000
  H   H3210     1.0  0.91718  0.80346  0.72618  1.0000
  H   H3211     1.0  0.61112  0.79263  0.70374  1.0000
  H   H3212     1.0  0.61043  0.81947  0.66184  1.0000
  H   H3213     1.0  0.61363  0.83266  0.63560  1.0000
  H   H3214     1.0  0.64689  0.86106  0.61905  1.0000
  H   H3215     1.0  0.67711  0.87632  0.62875  1.0000
  H   H3216     1.0  0.67458  0.86339  0.65478  1.0000
  C   C4017     1.0  0.98694  0.76398  0.62094  1.0000
  H   H3217     1.0  0.93968  0.79693  0.64886  1.0000
  C   C4018     1.0  0.97387  0.71510  0.72479  1.0000
  C   C4019     1.0  0.60616  0.95955  0.58121  1.0000
  H   H3218     1.0  0.59040  0.94778  0.67511  1.0000
  C   C4020     1.0  0.50375  0.84453  0.64821  1.0000
  C   C4021     1.0  0.81324  0.88463  0.71157  1.0000
  C   C4022     1.0  0.93455  0.80860  0.65433  1.0000
  C   C4023     1.0  0.86493  0.96442  0.66304  1.0000
  C   C4024     1.0  0.94133  0.95075  0.70029  1.0000
  C   C4025     1.0  0.55679  0.94980  0.67676  1.0000
  C   C4026     1.0  0.93703  0.71377  0.60311  1.0000
  H   H3219     1.0  0.67687  0.75961  0.69142  1.0000
  S   S537      1.0  0.77283  0.97925  0.69846  1.0000
  H   H3220     1.0  0.95101  0.86202  0.65356  1.0000
  H   H3221     1.0  0.58401  0.93323  0.70160  1.0000
  C   C4027     1.0  0.92260  0.71476  0.61580  1.0000
  H   H3222     1.0  0.56969  0.97644  0.60415  1.0000
  H   H3223     1.0  0.59309  0.81968  0.73458  1.0000
  C   C4028     1.0  0.94783  0.94210  0.64549  1.0000
  P   P131      1.0  0.93673  0.68769  0.59949  1.0000
  H   H3224     1.0  0.60096  0.94308  0.55542  1.0000
  H   H3225     1.0  0.97894  0.97167  0.71280  1.0000
  H   H3226     1.0  0.73268  0.98238  0.69088  1.0000
  C   C4029     1.0  0.63484  0.95041  0.55639  1.0000
  C   C4030     1.0  0.69118  0.99600  0.57303  1.0000
  C   C4031     1.0  0.92337  0.73475  0.61900  1.0000
  H   H3227     1.0  0.81678  0.89421  0.70032  1.0000
  Fe  Fe270     1.0  0.96618  0.89421  0.72950  1.0000
  H   H3228     1.0  0.51636  0.93611  0.70872  1.0000
  C   C4032     1.0  0.89069  0.67847  0.60361  1.0000
  H   H3229     1.0  0.50758  0.86197  0.64300  1.0000
  H   H3230     1.0  0.96222  0.68393  0.72098  1.0000
  C   C4033     1.0  0.59662  0.97123  0.63315  1.0000
  C   C4034     1.0  0.99840  0.78097  0.60825  1.0000
  C   C4035     1.0  0.88622  0.83058  0.72255  1.0000
  H   H3231     1.0  0.67337  0.78242  0.70857  1.0000
  H   H3232     1.0  0.99147  0.67780  0.62679  1.0000
  S   S538      1.0  0.98437  0.92846  0.71501  1.0000
  H   H3233     1.0  0.97672  0.69820  0.60836  1.0000
  C   C4036     1.0  0.93988  0.72687  0.71404  1.0000
  H   H3234     1.0  0.95448  0.94370  0.70245  1.0000
  C   C4037     1.0  0.94725  0.83035  0.64985  1.0000
  H   H3235     1.0  0.88882  0.95107  0.67161  1.0000
  H   H3236     1.0  0.58426  0.90902  0.63735  1.0000
  C   C4038     1.0  0.86183  0.68222  0.71687  1.0000
  C   C4039     1.0  0.90561  0.95675  0.70897  1.0000
  C   C4040     1.0  0.99006  0.69180  0.65425  1.0000
  S   S539      1.0  0.50536  0.84386  0.59517  1.0000
  H   H3237     1.0  0.58771  0.85434  0.72079  1.0000
  H   H3238     1.0  0.53634  0.84624  0.65057  1.0000
  C   C4041     1.0  0.86561  0.67406  0.64477  1.0000
  P   P132      1.0  0.63159  0.97016  0.56653  1.0000
  C   C4042     1.0  0.99536  0.94906  0.72249  1.0000
  S   S540      1.0  0.65321  0.99845  0.64565  1.0000
  H   H3239     1.0  0.51758  0.94870  0.55444  1.0000
  C   C4043     1.0  0.57618  0.92878  0.59762  1.0000
  H   H3240     1.0  0.97859  0.67693  0.58811  1.0000
  H   H3241     1.0  0.55162  0.93651  0.61281  1.0000
  C   C4044     1.0  0.96012  0.90798  0.68297  1.0000
  H   H3242     1.0  0.53009  0.92359  0.66270  1.0000
  H   H3243     1.0  0.96218  0.83549  0.64087  1.0000
  C   C4045     1.0  0.52004  0.83561  0.65251  1.0000
  C   C4046     1.0  0.87855  0.90167  0.66846  1.0000
  C   C4047     1.0  0.88508  0.90830  0.65322  1.0000
  C   C4048     1.0  0.89973  0.89890  0.64558  1.0000
  C   C4049     1.0  0.90805  0.88302  0.65318  1.0000
  C   C4050     1.0  0.90155  0.87624  0.66850  1.0000
  C   C4051     1.0  0.88670  0.88570  0.67606  1.0000
  P   P133      1.0  0.91412  0.85779  0.67855  1.0000
  C   C4052     1.0  0.89466  0.84314  0.69614  1.0000
  C   C4053     1.0  0.92158  0.83858  0.66882  1.0000
  C   C4054     1.0  0.90897  0.81665  0.67327  1.0000
  C   C4055     1.0  0.91538  0.80183  0.66597  1.0000
  H   H3244     1.0  0.99138  0.90749  0.68742  1.0000
  C   C4056     1.0  0.55239  0.99161  0.50830  1.0000
  C   C4057     1.0  0.94080  0.84530  0.65704  1.0000
  C   C4058     1.0  0.90160  0.84040  0.70888  1.0000
  H   H3245     1.0  0.89163  0.82911  0.73238  1.0000
  C   C4059     1.0  0.51374  0.83133  0.71020  1.0000
  C   C4060     1.0  0.85687  0.82484  0.71090  1.0000
  C   C4061     1.0  0.87219  0.83502  0.69722  1.0000
  C   C4062     1.0  0.93887  0.87387  0.68089  1.0000
  C   C4063     1.0  0.94097  0.89576  0.68101  1.0000
  C   C4064     1.0  0.61894  0.92402  0.54487  1.0000
  H   H3246     1.0  0.54976  0.98929  0.63410  1.0000
  P   P134      1.0  0.56259  0.96459  0.65795  1.0000
  C   C4065     1.0  0.95603  0.86434  0.68303  1.0000
  H   H3247     1.0  0.86725  0.90899  0.67446  1.0000
  H   H3248     1.0  0.87874  0.92070  0.64735  1.0000
  H   H3249     1.0  0.90470  0.90400  0.63375  1.0000
  H   H3250     1.0  0.91956  0.87616  0.64705  1.0000
  H   H3251     1.0  0.88159  0.88096  0.68786  1.0000
  H   H3252     1.0  0.89444  0.81065  0.68254  1.0000
  H   H3253     1.0  0.90566  0.78491  0.66960  1.0000
  H   H3254     1.0  0.56756  0.92228  0.65751  1.0000
  P   P135      1.0  0.99021  0.75639  0.72819  1.0000
  H   H3255     1.0  0.91887  0.84578  0.70834  1.0000
  C   C4066     1.0  0.95156  0.98708  0.63739  1.0000
  C   C4067     1.0  0.90716  0.96894  0.69486  1.0000
  C   C4068     1.0  0.85348  0.90929  0.72719  1.0000
  H   H3256     1.0  0.86651  0.83668  0.68749  1.0000
  H   H3257     1.0  0.92769  0.90328  0.67996  1.0000
  H   H3258     1.0  0.61786  0.98107  0.53937  1.0000
  C   C4069     1.0  0.92574  0.97172  0.68331  1.0000
  C   C4070     1.0  0.65733  0.92990  0.54482  1.0000
  H   H3259     1.0  0.95446  0.84725  0.68357  1.0000
  H   H3260     1.0  0.52025  0.78500  0.59229  1.0000
  C   C4071     1.0  0.97411  0.68825  0.68955  1.0000
  C   C4072     1.0  0.57896  0.93388  0.64776  1.0000
  C   C4073     1.0  0.97359  0.68527  0.57904  1.0000
  C   C4074     1.0  0.97709  0.89835  0.68512  1.0000
  H   H3261     1.0  0.58108  0.97022  0.56128  1.0000
  Fe  Fe271     1.0  0.80458  0.97751  0.70538  1.0000
  C   C4075     1.0  0.52771  0.96524  0.62841  1.0000
  C   C4076     1.0  0.57408  0.94499  0.68234  1.0000
  H   H3262     1.0  0.63868  0.94856  0.59421  1.0000
  C   C4077     1.0  0.56661  0.94302  0.60390  1.0000
  C   C4078     1.0  0.92246  0.94731  0.71163  1.0000
  H   H3263     1.0  0.53106  0.83800  0.70890  1.0000
  H   H3264     1.0  0.83072  0.84640  0.73261  1.0000
  C   C4079     1.0  0.58827  0.92631  0.63629  1.0000
  H   H3265     1.0  0.83713  0.86663  0.70669  1.0000
  S   S541      1.0  0.50842  0.82665  0.55859  1.0000
  H   H3266     1.0  0.53761  0.97996  0.51596  1.0000
  H   H3267     1.0  0.57121  0.78142  0.71623  1.0000
  C   C4080     1.0  0.79828  0.88896  0.72255  1.0000
  H   H3268     1.0  0.50249  0.98931  0.60328  1.0000
  C   C4081     1.0  0.82108  0.85768  0.72974  1.0000
  C   C4082     1.0  0.91012  0.67205  0.59943  1.0000
  H   H3269     1.0  0.93326  0.70844  0.57088  1.0000
  H   H3270     1.0  0.50612  0.77423  0.57264  1.0000
  H   H3271     1.0  0.52781  0.80656  0.66302  1.0000
  C   C4083     1.0  0.82473  0.86910  0.71516  1.0000
  C   C4084     1.0  0.51440  0.94544  0.59351  1.0000
  C   C4085     1.0  0.57043  0.99259  0.65812  1.0000
  H   H3272     1.0  0.83746  0.67961  0.68047  1.0000
  H   H3273     1.0  0.75123  0.89157  0.73031  1.0000
  C   C4086     1.0  0.94819  0.70297  0.56928  1.0000
  H   H3274     1.0  0.85531  0.66999  0.60760  1.0000
  H   H3275     1.0  0.83986  0.91617  0.73027  1.0000
  C   C4087     1.0  0.67384  0.99183  0.56668  1.0000
  C   C4088     1.0  0.75315  0.90516  0.73501  1.0000
  S   S542      1.0  0.50415  0.88298  0.56736  1.0000
  C   C4089     1.0  0.99428  0.68805  0.69275  1.0000
  C   C4090     1.0  0.96707  0.68212  0.61527  1.0000
  C   C4091     1.0  0.99968  0.67431  0.65541  1.0000
  C   C4092     1.0  0.55965  0.99134  0.56403  1.0000
  C   C4093     1.0  0.98664  0.68882  0.56483  1.0000
  H   H3276     1.0  0.83368  0.67689  0.64264  1.0000
  H   H3277     1.0  0.50738  0.93745  0.62460  1.0000
  C   C4094     1.0  0.87652  0.88557  0.73380  1.0000
  H   H3278     1.0  0.73797  0.92346  0.72063  1.0000
  C   C4095     1.0  0.50482  0.99876  0.64338  1.0000
  C   C4096     1.0  0.99488  0.76629  0.67278  1.0000
  C   C4097     1.0  0.96075  0.97722  0.62712  1.0000
  H   H3279     1.0  0.95801  0.96579  0.67759  1.0000
  C   C4098     1.0  0.63036  0.99552  0.55489  1.0000
  H   H3280     1.0  0.66383  0.99203  0.61674  1.0000
  C   C4099     1.0  0.96041  0.66890  0.68907  1.0000
  C   C4100     1.0  0.74767  0.94078  0.73549  1.0000
  C   C4101     1.0  0.90117  0.98605  0.66193  1.0000
  C   C4102     1.0  0.74531  0.92301  0.72963  1.0000
  H   H3281     1.0  0.60823  0.00059  0.49878  1.0000
  H   H3282     1.0  0.99687  0.79740  0.60755  1.0000
  H   H3283     1.0  0.99500  0.72619  0.65173  1.0000
  H   H3284     1.0  0.98675  0.79696  0.66677  1.0000
  H   H3285     1.0  0.98749  0.71046  0.72830  1.0000
  C   C4103     1.0  0.57655  0.82167  0.73563  1.0000
  Fe  Fe272     1.0  0.88685  0.71542  0.96246  1.0000
  S   S543      1.0  0.91693  0.70352  0.96294  1.0000
  H   H3286     1.0  0.97531  0.74263  0.88891  1.0000
  Fe  Fe273     1.0  0.91325  0.76329  0.94876  1.0000
  H   H3287     1.0  0.91939  0.96803  0.79953  1.0000
  S   S544      1.0  0.91025  0.79752  0.94001  1.0000
  Fe  Fe274     1.0  0.93196  0.72712  0.94067  1.0000
  Fe  Fe275     1.0  0.92798  0.73257  0.97080  1.0000
  H   H3288     1.0  0.86600  0.93082  0.78302  1.0000
  S   S545      1.0  0.90079  0.73655  0.93920  1.0000
  S   S546      1.0  0.89664  0.74308  0.97199  1.0000
  Fe  Fe276     1.0  0.98087  0.88058  0.86855  1.0000
  Fe  Fe277     1.0  0.94297  0.89148  0.85757  1.0000
  S   S547      1.0  0.90602  0.87951  0.86340  1.0000
  S   S548      1.0  0.96339  0.86838  0.85326  1.0000
  S   S549      1.0  0.95862  0.90148  0.87412  1.0000
  Fe  Fe278     1.0  0.86559  0.98257  0.84204  1.0000
  S   S550      1.0  0.85413  0.95227  0.86112  1.0000
  C   C4104     1.0  0.97149  0.82548  0.91169  1.0000
  C   C4105     1.0  0.94543  0.77805  0.75424  1.0000
  S   S551      1.0  0.89646  0.99231  0.82349  1.0000
  C   C4106     1.0  0.99196  0.77729  0.91331  1.0000
  H   H3289     1.0  0.97702  0.94698  0.75953  1.0000
  S   S552      1.0  0.71693  0.97141  0.93770  1.0000
  H   H3290     1.0  0.95679  0.79873  0.93129  1.0000
  Fe  Fe279     1.0  0.75333  0.97517  0.93032  1.0000
  S   S553      1.0  0.77001  0.94908  0.93738  1.0000
  Fe  Fe280     1.0  0.72033  0.98857  0.91456  1.0000
  S   S554      1.0  0.69886  0.97822  0.90074  1.0000
  H   H3291     1.0  0.80372  0.85310  0.75200  1.0000
  H   H3292     1.0  0.99936  0.71157  0.95671  1.0000
  S   S555      1.0  0.96507  0.91991  0.83916  1.0000
  Fe  Fe281     1.0  0.58117  0.89749  0.94389  1.0000
  S   S556      1.0  0.60541  0.90876  0.92154  1.0000
  H   H3293     1.0  0.80700  0.96257  0.78746  1.0000
  C   C4107     1.0  0.73691  0.86034  0.77354  1.0000
  C   C4108     1.0  0.97604  0.80225  0.86152  1.0000
  C   C4109     1.0  0.76532  0.92271  0.75231  1.0000
  C   C4110     1.0  0.80466  0.87588  0.78552  1.0000
  C   C4111     1.0  0.67308  0.95849  0.90768  1.0000
  C   C4112     1.0  0.66070  0.95208  0.92238  1.0000
  C   C4113     1.0  0.63947  0.93717  0.92689  1.0000
  C   C4114     1.0  0.63124  0.92804  0.91682  1.0000
  C   C4115     1.0  0.64384  0.93439  0.90225  1.0000
  C   C4116     1.0  0.66443  0.94975  0.89770  1.0000
  H   H3294     1.0  0.66717  0.95896  0.93016  1.0000
  H   H3295     1.0  0.62949  0.93272  0.93807  1.0000
  H   H3296     1.0  0.63748  0.92762  0.89439  1.0000
  H   H3297     1.0  0.67372  0.95496  0.88634  1.0000
  C   C4117     1.0  0.76576  0.94108  0.95642  1.0000
  H   H3298     1.0  0.74004  0.95711  0.96129  1.0000
  C   C4118     1.0  0.98303  0.78382  0.89010  1.0000
  H   H3299     1.0  0.94700  0.91427  0.79376  1.0000
  C   C4119     1.0  0.75817  0.98688  0.81879  1.0000
  C   C4120     1.0  0.51856  0.86658  0.75011  1.0000
  C   C4121     1.0  0.55821  0.80479  0.74471  1.0000
  C   C4122     1.0  0.73040  0.82331  0.76336  1.0000
  S   S557      1.0  0.57287  0.86232  0.95689  1.0000
  H   H3300     1.0  0.94397  0.84039  0.81013  1.0000
  C   C4123     1.0  0.99459  0.72599  0.75166  1.0000
  H   H3301     1.0  0.66211  0.99510  0.91734  1.0000
  H   H3302     1.0  0.90747  0.80358  0.96945  1.0000
  H   H3303     1.0  0.98668  0.77304  0.92509  1.0000
  Fe  Fe282     1.0  0.53709  0.86221  0.95921  1.0000
  H   H3304     1.0  0.75943  0.95435  0.75142  1.0000
  C   C4124     1.0  0.89242  0.90034  0.86258  1.0000
  C   C4125     1.0  0.87212  0.89653  0.87283  1.0000
  C   C4126     1.0  0.86075  0.91274  0.87236  1.0000
  C   C4127     1.0  0.86933  0.93269  0.86142  1.0000
  C   C4128     1.0  0.88946  0.93643  0.85100  1.0000
  C   C4129     1.0  0.90115  0.92034  0.85166  1.0000
  H   H3305     1.0  0.86528  0.88102  0.88121  1.0000
  H   H3306     1.0  0.84512  0.90969  0.88038  1.0000
  H   H3307     1.0  0.89604  0.95166  0.84246  1.0000
  H   H3308     1.0  0.91665  0.92321  0.84357  1.0000
  C   C4130     1.0  0.93285  0.81523  0.92558  1.0000
  C   C4131     1.0  0.95393  0.81183  0.92362  1.0000
  C   C4132     1.0  0.94710  0.84627  0.90369  1.0000
  C   C4133     1.0  0.92969  0.83299  0.91588  1.0000
  H   H3309     1.0  0.94419  0.85922  0.89590  1.0000
  H   H3310     1.0  0.91350  0.83590  0.91740  1.0000
  H   H3311     1.0  0.67646  0.97803  0.96251  1.0000
  H   H3312     1.0  0.97455  0.77235  0.96677  1.0000
  C   C4134     1.0  0.56958  0.95527  0.93157  1.0000
  S   S558      1.0  0.99000  0.85810  0.88604  1.0000
  C   C4135     1.0  0.75236  0.85967  0.76118  1.0000
  C   C4136     1.0  0.90416  0.68456  0.92370  1.0000
  H   H3313     1.0  0.97678  0.92817  0.80391  1.0000
  H   H3314     1.0  0.97804  0.96147  0.81214  1.0000
  C   C4137     1.0  0.74636  0.94013  0.98095  1.0000
  H   H3315     1.0  0.96460  0.71231  0.94996  1.0000
  H   H3316     1.0  0.62220  0.89854  0.97150  1.0000
  H   H3317     1.0  0.83046  0.93339  0.79734  1.0000
  C   C4138     1.0  0.98274  0.97598  0.76680  1.0000
  H   H3318     1.0  0.70655  0.84317  0.79035  1.0000
  H   H3319     1.0  0.73997  0.94035  0.86450  1.0000
  C   C4139     1.0  0.65262  0.90975  0.95428  1.0000
  H   H3320     1.0  0.56993  0.95557  0.97766  1.0000
  H   H3321     1.0  0.92257  0.67911  0.93932  1.0000
  C   C4140     1.0  0.83922  0.98084  0.78727  1.0000
  C   C4141     1.0  0.77512  0.97486  0.85749  1.0000
  C   C4142     1.0  0.64453  0.95481  0.97190  1.0000
  H   H3322     1.0  0.97736  0.83213  0.95612  1.0000
  C   C4143     1.0  0.82875  0.97521  0.76558  1.0000
  S   S559      1.0  0.58272  0.91096  0.96293  1.0000
  C   C4144     1.0  0.70219  0.89687  0.96785  1.0000
  C   C4145     1.0  0.97743  0.77262  0.73841  1.0000
  C   C4146     1.0  0.78694  0.96115  0.85203  1.0000
  C   C4147     1.0  0.79962  0.95121  0.85996  1.0000
  C   C4148     1.0  0.80047  0.95472  0.87342  1.0000
  C   C4149     1.0  0.78868  0.96823  0.87893  1.0000
  C   C4150     1.0  0.77599  0.97820  0.87105  1.0000
  C   C4151     1.0  0.68346  0.81412  0.93229  1.0000
  H   H3323     1.0  0.70816  0.92576  0.95030  1.0000
  H   H3324     1.0  0.99238  0.75377  0.95033  1.0000
  H   H3325     1.0  0.99976  0.72882  0.90464  1.0000
  C   C4152     1.0  0.86575  0.99613  0.76350  1.0000
  C   C4153     1.0  0.99949  0.71512  0.94536  1.0000
  C   C4154     1.0  0.53371  0.82691  0.73826  1.0000
  H   H3326     1.0  0.95998  0.78160  0.85020  1.0000
  S   S560      1.0  0.95514  0.72109  0.92219  1.0000
  C   C4155     1.0  0.71294  0.97562  0.84962  1.0000
  H   H3327     1.0  0.90657  0.85432  0.81698  1.0000
  H   H3328     1.0  0.85672  0.93493  0.83395  1.0000
  S   S561      1.0  0.92780  0.83544  0.74900  1.0000
  P   P136      1.0  0.77584  0.88299  0.75192  1.0000
  C   C4156     1.0  0.94228  0.81982  0.96174  1.0000
  C   C4157     1.0  0.57838  0.95192  0.91815  1.0000
  H   H3329     1.0  0.78645  0.95819  0.84164  1.0000
  H   H3330     1.0  0.80916  0.94104  0.85560  1.0000
  H   H3331     1.0  0.81054  0.94721  0.87945  1.0000
  H   H3332     1.0  0.78959  0.97127  0.88922  1.0000
  H   H3333     1.0  0.88393  0.68537  0.90888  1.0000
  C   C4158     1.0  0.74980  0.94711  0.96575  1.0000
  S   S562      1.0  0.84371  0.99052  0.82765  1.0000
  H   H3334     1.0  0.74062  0.97911  0.82284  1.0000
  C   C4159     1.0  0.77056  0.99256  0.82820  1.0000
  P   P137      1.0  0.50641  0.83089  0.73958  1.0000
  H   H3335     1.0  0.80317  0.86331  0.79533  1.0000
  H   H3336     1.0  0.97596  0.80855  0.82593  1.0000
  H   H3337     1.0  0.84978  0.89049  0.74918  1.0000
  H   H3338     1.0  0.74108  0.88828  0.97444  1.0000
  C   C4160     1.0  0.62282  0.94911  0.97110  1.0000
  C   C4161     1.0  0.82343  0.91167  0.76861  1.0000
  C   C4162     1.0  0.94497  0.98616  0.89543  1.0000
  C   C4163     1.0  0.96643  0.99949  0.91081  1.0000
  C   C4164     1.0  0.85907  0.89474  0.73783  1.0000
  C   C4165     1.0  0.68785  0.93981  0.86260  1.0000
  H   H3339     1.0  0.73653  0.81654  0.96401  1.0000
  H   H3340     1.0  0.96732  0.67770  0.96775  1.0000
  H   H3341     1.0  0.52613  0.85644  0.75677  1.0000
  C   C4166     1.0  0.53684  0.80737  0.74604  1.0000
  H   H3342     1.0  0.86659  0.97233  0.93155  1.0000
  H   H3343     1.0  0.99037  0.87961  0.76933  1.0000
  H   H3344     1.0  0.77804  0.85672  0.78012  1.0000
  C   C4167     1.0  0.92992  0.96770  0.74144  1.0000
  H   H3345     1.0  0.61164  0.86230  0.96727  1.0000
  C   C4168     1.0  0.70151  0.91823  0.96194  1.0000
  H   H3346     1.0  0.95172  0.80579  0.76284  1.0000
  H   H3347     1.0  0.97060  0.99710  0.92109  1.0000
  C   C4169     1.0  0.96089  0.73927  0.88495  1.0000
  C   C4170     1.0  0.98430  0.87612  0.78105  1.0000
  C   C4171     1.0  0.61335  0.97712  0.91564  1.0000
  Fe  Fe283     1.0  0.54656  0.90754  0.96568  1.0000
  S   S563      1.0  0.80915  0.96293  0.75769  1.0000
  H   H3348     1.0  0.56055  0.78974  0.75081  1.0000
  S   S564      1.0  0.88270  0.86675  0.74715  1.0000
  H   H3349     1.0  0.76721  0.98872  0.87552  1.0000
  H   H3350     1.0  0.83618  0.92702  0.76534  1.0000
  C   C4172     1.0  0.77852  0.92840  0.96232  1.0000
  C   C4173     1.0  0.79431  0.87738  0.73724  1.0000
  H   H3351     1.0  0.95014  0.98212  0.80925  1.0000
  C   C4174     1.0  0.79033  0.87229  0.77690  1.0000
  H   H3352     1.0  0.72780  0.80902  0.75936  1.0000
  C   C4175     1.0  0.63144  0.98049  0.94986  1.0000
  H   H3353     1.0  0.81982  0.97041  0.90039  1.0000
  S   S565      1.0  0.95289  0.84109  0.77996  1.0000
  S   S566      1.0  0.98887  0.96290  0.85659  1.0000
  C   C4176     1.0  0.62697  0.87405  0.96057  1.0000
  H   H3354     1.0  0.67899  0.87574  0.87565  1.0000
  H   H3355     1.0  0.95766  0.70464  0.89074  1.0000
  C   C4177     1.0  0.73068  0.96819  0.85308  1.0000
  C   C4178     1.0  0.92172  0.99428  0.85243  1.0000
  C   C4179     1.0  0.96912  0.86686  0.81149  1.0000
  H   H3356     1.0  0.63995  0.87691  0.87861  1.0000
  H   H3357     1.0  0.73918  0.87470  0.77751  1.0000
  C   C4180     1.0  0.51884  0.88758  0.75149  1.0000
  C   C4181     1.0  0.97979  0.72025  0.92688  1.0000
  C   C4182     1.0  0.73736  0.83223  0.96625  1.0000
  C   C4183     1.0  0.98142  0.80326  0.74890  1.0000
  H   H3358     1.0  0.91006  0.70224  0.92100  1.0000
  S   S567      1.0  0.94543  0.75528  0.94855  1.0000
  C   C4184     1.0  0.60475  0.98040  0.92922  1.0000
  S   S568      1.0  0.54576  0.89701  0.94526  1.0000
  C   C4185     1.0  0.92498  0.90045  0.91076  1.0000
  C   C4186     1.0  0.94742  0.90187  0.90902  1.0000
  C   C4187     1.0  0.96318  0.92189  0.90180  1.0000
  C   C4188     1.0  0.95650  0.94053  0.89644  1.0000
  C   C4189     1.0  0.93392  0.93945  0.89868  1.0000
  C   C4190     1.0  0.91821  0.91915  0.90562  1.0000
  P   P138      1.0  0.92561  0.96409  0.89260  1.0000
  C   C4191     1.0  0.89740  0.96077  0.90258  1.0000
  H   H3359     1.0  0.50184  0.95558  0.98430  1.0000
  H   H3360     1.0  0.99398  0.82729  0.86914  1.0000
  S   S569      1.0  0.51444  0.83163  0.95602  1.0000
  H   H3361     1.0  0.93615  0.98972  0.83174  1.0000
  C   C4192     1.0  0.70539  0.93240  0.86622  1.0000
  H   H3362     1.0  0.69212  0.94644  0.96657  1.0000
  C   C4193     1.0  0.88001  0.94960  0.89821  1.0000
  C   C4194     1.0  0.85805  0.94639  0.90594  1.0000
  C   C4195     1.0  0.85323  0.95452  0.91798  1.0000
  C   C4196     1.0  0.87040  0.96594  0.92226  1.0000
  C   C4197     1.0  0.89243  0.96902  0.91462  1.0000
  C   C4198     1.0  0.92639  0.97004  0.87361  1.0000
  C   C4199     1.0  0.93616  0.95861  0.86466  1.0000
  C   C4200     1.0  0.93964  0.96572  0.84956  1.0000
  C   C4201     1.0  0.93284  0.98381  0.84344  1.0000
  C   C4202     1.0  0.69252  0.92981  0.97104  1.0000
  C   C4203     1.0  0.86064  0.99238  0.77867  1.0000
  H   H3363     1.0  0.91287  0.88473  0.91586  1.0000
  H   H3364     1.0  0.95268  0.88728  0.91272  1.0000
  H   H3365     1.0  0.98063  0.92280  0.89982  1.0000
  H   H3366     1.0  0.96902  0.95574  0.89042  1.0000
  H   H3367     1.0  0.90077  0.91761  0.90700  1.0000
  H   H3368     1.0  0.94197  0.96851  0.91765  1.0000
  C   C4204     1.0  0.98019  0.81230  0.83538  1.0000
  C   C4205     1.0  0.76418  0.90535  0.74591  1.0000
  C   C4206     1.0  0.50811  0.85858  0.74045  1.0000
  C   C4207     1.0  0.98817  0.88383  0.80377  1.0000
  H   H3369     1.0  0.88341  0.94321  0.88886  1.0000
  H   H3370     1.0  0.84482  0.93774  0.90244  1.0000
  H   H3371     1.0  0.83616  0.95212  0.92392  1.0000
  H   H3372     1.0  0.89271  0.86008  0.77550  1.0000
  H   H3373     1.0  0.90542  0.97776  0.91819  1.0000
  H   H3374     1.0  0.94189  0.94477  0.86918  1.0000
  H   H3375     1.0  0.94805  0.95746  0.84261  1.0000
  C   C4208     1.0  0.95014  0.98340  0.90885  1.0000
  Fe  Fe284     1.0  0.98689  0.89766  0.83598  1.0000
  H   H3376     1.0  0.96320  0.86316  0.82322  1.0000
  H   H3377     1.0  0.76030  0.84036  0.74635  1.0000
  C   C4209     1.0  0.66611  0.90475  0.94292  1.0000
  C   C4210     1.0  0.66019  0.88418  0.94047  1.0000
  C   C4211     1.0  0.64046  0.86887  0.94936  1.0000
  P   P139      1.0  0.67761  0.87702  0.92620  1.0000
  C   C4212     1.0  0.70425  0.89683  0.91994  1.0000
  C   C4213     1.0  0.68038  0.85010  0.93414  1.0000
  C   C4214     1.0  0.67956  0.84349  0.94900  1.0000
  C   C4215     1.0  0.68008  0.82220  0.95549  1.0000
  C   C4216     1.0  0.68212  0.80754  0.94714  1.0000
  C   C4217     1.0  0.75733  0.94045  0.74698  1.0000
  C   C4218     1.0  0.68247  0.83526  0.92582  1.0000
  C   C4219     1.0  0.72105  0.89356  0.92656  1.0000
  C   C4220     1.0  0.74094  0.90988  0.92254  1.0000
  C   C4221     1.0  0.74421  0.92948  0.91190  1.0000
  C   C4222     1.0  0.72758  0.93287  0.90525  1.0000
  C   C4223     1.0  0.70761  0.91665  0.90929  1.0000
  C   C4224     1.0  0.66566  0.87717  0.91110  1.0000
  C   C4225     1.0  0.64361  0.87781  0.91262  1.0000
  C   C4226     1.0  0.63447  0.87781  0.90091  1.0000
  C   C4227     1.0  0.64718  0.87700  0.88762  1.0000
  C   C4228     1.0  0.66915  0.87638  0.88597  1.0000
  C   C4229     1.0  0.67846  0.87674  0.89761  1.0000
  Fe  Fe285     1.0  0.98297  0.92805  0.85538  1.0000
  H   H3378     1.0  0.68086  0.91716  0.93602  1.0000
  H   H3379     1.0  0.63535  0.85302  0.94752  1.0000
  H   H3380     1.0  0.67807  0.85461  0.95567  1.0000
  S   S570      1.0  0.52977  0.93371  0.97051  1.0000
  C   C4230     1.0  0.95822  0.85400  0.80406  1.0000
  H   H3381     1.0  0.60715  0.95980  0.89996  1.0000
  H   H3382     1.0  0.69560  0.87656  0.89614  1.0000
  H   H3383     1.0  0.71872  0.87871  0.93503  1.0000
  H   H3384     1.0  0.75371  0.90765  0.92791  1.0000
  H   H3385     1.0  0.75947  0.94222  0.90909  1.0000
  H   H3386     1.0  0.72988  0.94833  0.89727  1.0000
  H   H3387     1.0  0.69455  0.91994  0.90447  1.0000
  H   H3388     1.0  0.63333  0.87862  0.92272  1.0000
  H   H3389     1.0  0.61749  0.87863  0.90222  1.0000
  H   H3390     1.0  0.68247  0.79102  0.95219  1.0000
  C   C4231     1.0  0.74890  0.84111  0.75604  1.0000
  H   H3391     1.0  0.98333  0.99642  0.83534  1.0000
  H   H3392     1.0  0.75898  0.98660  0.79665  1.0000
  H   H3393     1.0  0.99766  0.70270  0.77013  1.0000
  H   H3394     1.0  0.64943  0.94509  0.98055  1.0000
  C   C4232     1.0  0.71931  0.83518  0.97582  1.0000
  C   C4233     1.0  0.99965  0.72493  0.91599  1.0000
  C   C4234     1.0  0.99548  0.98822  0.77359  1.0000
  H   H3395     1.0  0.77289  0.92307  0.76111  1.0000
  H   H3396     1.0  0.80901  0.99598  0.91416  1.0000
  H   H3397     1.0  0.89196  0.93125  0.82011  1.0000
  C   C4235     1.0  0.72673  0.94646  0.86145  1.0000
  H   H3398     1.0  0.68306  0.83975  0.91440  1.0000
  C   C4236     1.0  0.83049  0.98680  0.89778  1.0000
  C   C4237     1.0  0.82336  0.97207  0.78074  1.0000
  H   H3399     1.0  0.77265  0.88295  0.95757  1.0000
  C   C4238     1.0  0.97980  0.71557  0.94153  1.0000
  C   C4239     1.0  0.76851  0.99107  0.80390  1.0000
  C   C4240     1.0  0.92525  0.79034  0.98401  1.0000
  H   H3400     1.0  0.57548  0.97121  0.94771  1.0000
  S   S571      1.0  0.85223  0.69324  0.96952  1.0000
  H   H3401     1.0  0.90905  0.98790  0.74769  1.0000
  C   C4241     1.0  0.75655  0.84944  0.95961  1.0000
  C   C4242     1.0  0.80928  0.90803  0.75989  1.0000
  C   C4243     1.0  0.92341  0.80468  0.97165  1.0000
  H   H3402     1.0  0.63028  0.98495  0.90934  1.0000
  C   C4244     1.0  0.73978  0.87255  0.97219  1.0000
  H   H3403     1.0  0.89523  0.89921  0.77237  1.0000
  H   H3404     1.0  0.83514  0.97799  0.79897  1.0000
  C   C4245     1.0  0.63301  0.89446  0.96302  1.0000
  H   H3405     1.0  0.50825  0.91668  0.74462  1.0000
  H   H3406     1.0  0.97024  0.98199  0.76259  1.0000
  H   H3407     1.0  0.85493  0.98233  0.88056  1.0000
  H   H3408     1.0  0.90887  0.89337  0.81422  1.0000
  S   S572      1.0  0.75605  0.98938  0.90671  1.0000
  C   C4246     1.0  0.96800  0.84235  0.90147  1.0000
  C   C4247     1.0  0.84986  0.98770  0.75697  1.0000
  H   H3409     1.0  0.52294  0.79419  0.75322  1.0000
  H   H3410     1.0  0.71558  0.99245  0.84342  1.0000
  C   C4248     1.0  0.71842  0.84253  0.78082  1.0000
  H   H3411     1.0  0.92787  0.77304  0.75966  1.0000
  C   C4249     1.0  0.96576  0.85859  0.78883  1.0000
  H   H3412     1.0  0.97684  0.71944  0.75436  1.0000
  H   H3413     1.0  0.56847  0.94035  0.91411  1.0000
  C   C4250     1.0  0.61639  0.96180  0.96009  1.0000
  P   P140      1.0  0.62182  0.99791  0.93685  1.0000
  P   P141      1.0  0.75793  0.98689  0.84756  1.0000
  H   H3414     1.0  0.89704  0.96749  0.77380  1.0000
  Fe  Fe286     1.0  0.95256  0.85605  0.75689  1.0000
  H   H3415     1.0  0.68491  0.80270  0.92583  1.0000
  H   H3416     1.0  0.59953  0.95716  0.95972  1.0000
  H   H3417     1.0  0.67124  0.92896  0.86652  1.0000
  H   H3418     1.0  0.52669  0.89361  0.75908  1.0000
  C   C4251     1.0  0.65973  0.97336  0.96174  1.0000
  C   C4252     1.0  0.65322  0.98629  0.95083  1.0000
  C   C4253     1.0  0.96299  0.82075  0.96423  1.0000
  H   H3419     1.0  0.94086  0.83029  0.95184  1.0000
  C   C4254     1.0  0.96501  0.80651  0.97671  1.0000
  C   C4255     1.0  0.79244  0.88844  0.76405  1.0000
  C   C4256     1.0  0.85033  0.99348  0.88668  1.0000
  H   H3420     1.0  0.83245  0.89813  0.78796  1.0000
  C   C4257     1.0  0.99439  0.83263  0.83376  1.0000
  H   H3421     1.0  0.70246  0.91586  0.87289  1.0000
  S   S573      1.0  0.94122  0.88646  0.75117  1.0000
  H   H3422     1.0  0.67850  0.81697  0.96706  1.0000
  C   C4258     1.0  0.92259  0.72915  0.87597  1.0000
  C   C4259     1.0  0.93176  0.71248  0.88150  1.0000
  H   H3423     1.0  0.82591  0.93613  0.82265  1.0000
  Fe  Fe287     1.0  0.57181  0.87577  0.97635  1.0000
  C   C4260     1.0  0.95166  0.75611  0.87958  1.0000
  C   C4261     1.0  0.93243  0.75087  0.87508  1.0000
  P   P142      1.0  0.96291  0.78389  0.87972  1.0000
  H   H3424     1.0  0.89928  0.83771  0.79743  1.0000
  C   C4262     1.0  0.60019  0.96294  0.91016  1.0000
  H   H3425     1.0  0.79101  0.92386  0.95515  1.0000
  C   C4263     1.0  0.91836  0.98738  0.86748  1.0000
  H   H3426     1.0  0.65703  0.92577  0.95595  1.0000
  C   C4264     1.0  0.97640  0.77860  0.90539  1.0000
  C   C4265     1.0  0.71519  0.82400  0.77575  1.0000
  H   H3427     1.0  0.81155  0.92054  0.74988  1.0000
  S   S574      1.0  0.88194  0.00119  0.78636  1.0000
  H   H3428     1.0  0.67795  0.96730  0.85175  1.0000
  C   C4266     1.0  0.93951  0.79245  0.88823  1.0000
  C   C4267     1.0  0.93591  0.81244  0.88163  1.0000
  C   C4268     1.0  0.91665  0.81798  0.88740  1.0000
  C   C4269     1.0  0.90096  0.80374  0.89997  1.0000
  C   C4270     1.0  0.90445  0.78390  0.90671  1.0000
  C   C4271     1.0  0.92352  0.77815  0.90080  1.0000
  H   H3429     1.0  0.90764  0.72524  0.87263  1.0000
  H   H3430     1.0  0.92390  0.69559  0.88250  1.0000
  H   H3431     1.0  0.70880  0.88811  0.96054  1.0000
  C   C4272     1.0  0.98654  0.95625  0.76505  1.0000
  H   H3432     1.0  0.92478  0.76357  0.87120  1.0000
  C   C4273     1.0  0.97109  0.79710  0.84920  1.0000
  H   H3433     1.0  0.98772  0.82266  0.91017  1.0000
  H   H3434     1.0  0.95925  0.77527  0.91130  1.0000
  P   P143      1.0  0.99206  0.80674  0.97933  1.0000
  C   C4274     1.0  0.82122  0.89554  0.78137  1.0000
  C   C4275     1.0  0.95470  0.76596  0.74560  1.0000
  C   C4276     1.0  0.95881  0.79658  0.75597  1.0000
  H   H3435     1.0  0.94782  0.82384  0.87199  1.0000
  H   H3436     1.0  0.91414  0.83358  0.88229  1.0000
  H   H3437     1.0  0.88636  0.80834  0.90469  1.0000
  H   H3438     1.0  0.89252  0.77316  0.91666  1.0000
  H   H3439     1.0  0.92572  0.76249  0.90601  1.0000
  H   H3440     1.0  0.61079  0.93506  0.97912  1.0000
  C   C4277     1.0  0.99241  0.77704  0.96279  1.0000
  C   C4278     1.0  0.91503  0.97384  0.75141  1.0000
  C   C4279     1.0  0.93764  0.94955  0.74623  1.0000
  H   H3441     1.0  0.70083  0.81024  0.78138  1.0000
  C   C4280     1.0  0.93046  0.93756  0.76095  1.0000
  C   C4281     1.0  0.91517  0.94335  0.77099  1.0000
  C   C4282     1.0  0.90797  0.96197  0.76618  1.0000
  P   P144      1.0  0.90751  0.92861  0.79010  1.0000
  C   C4283     1.0  0.88189  0.93160  0.80030  1.0000
  C   C4284     1.0  0.90327  0.89949  0.79277  1.0000
  C   C4285     1.0  0.90543  0.88635  0.80563  1.0000
  C   C4286     1.0  0.90397  0.86414  0.80730  1.0000
  C   C4287     1.0  0.89970  0.85476  0.79635  1.0000
  C   C4288     1.0  0.89622  0.86743  0.78392  1.0000
  C   C4289     1.0  0.89784  0.88970  0.78215  1.0000
  C   C4290     1.0  0.87889  0.93223  0.81485  1.0000
  C   C4291     1.0  0.85880  0.93402  0.82283  1.0000
  C   C4292     1.0  0.84139  0.93455  0.81650  1.0000
  C   C4293     1.0  0.84398  0.93308  0.80223  1.0000
  C   C4294     1.0  0.86419  0.93172  0.79412  1.0000
  C   C4295     1.0  0.93025  0.93946  0.79666  1.0000
  C   C4296     1.0  0.93173  0.95909  0.80058  1.0000
  C   C4297     1.0  0.94906  0.96712  0.80607  1.0000
  C   C4298     1.0  0.96498  0.95571  0.80754  1.0000
  C   C4299     1.0  0.96415  0.93676  0.80304  1.0000
  C   C4300     1.0  0.94703  0.92879  0.79742  1.0000
  C   C4301     1.0  0.95087  0.71755  0.88600  1.0000
  C   C4302     1.0  0.58268  0.96931  0.93713  1.0000
  H   H3442     1.0  0.93697  0.92383  0.76454  1.0000
  C   C4303     1.0  0.69163  0.96142  0.85431  1.0000
  H   H3443     1.0  0.85404  0.99085  0.74527  1.0000
  H   H3444     1.0  0.55269  0.94661  0.93785  1.0000
  S   S575      1.0  0.53518  0.87262  0.98006  1.0000
  C   C4304     1.0  0.55649  0.96213  0.98159  1.0000
  H   H3445     1.0  0.72999  0.99466  0.87258  1.0000
  C   C4305     1.0  0.99039  0.82271  0.85975  1.0000
  C   C4306     1.0  0.53554  0.95372  0.97989  1.0000
  C   C4307     1.0  0.77545  0.92190  0.97746  1.0000
  H   H3446     1.0  0.84309  0.72610  0.98435  1.0000
  C   C4308     1.0  0.75776  0.86958  0.96262  1.0000
  C   C4309     1.0  0.88954  0.67503  0.91681  1.0000
  C   C4310     1.0  0.82450  0.00117  0.90561  1.0000
  H   H3447     1.0  0.77054  0.84714  0.95222  1.0000
  H   H3448     1.0  0.66514  0.00093  0.94342  1.0000
  C   C4311     1.0  0.99572  0.88840  0.78856  1.0000
  C   C4312     1.0  0.50853  0.90061  0.74333  1.0000
  H   H3449     1.0  0.65648  0.86430  0.98156  1.0000
  H   H3450     1.0  0.91041  0.99618  0.87426  1.0000
  C   C4313     1.0  0.99073  0.79129  0.74021  1.0000
  H   H3451     1.0  0.94410  0.75138  0.74473  1.0000
  Fe  Fe288     1.0  0.91843  0.86658  0.74179  1.0000
  C   C4314     1.0  0.80588  0.86171  0.74073  1.0000
  C   C4315     1.0  0.72027  0.85547  0.97874  1.0000
  H   H3452     1.0  0.78560  0.91236  0.98192  1.0000
  H   H3453     1.0  0.70480  0.82157  0.98090  1.0000
  H   H3454     1.0  0.99167  0.81774  0.75021  1.0000
  C   C4316     1.0  0.69492  0.88728  0.98302  1.0000
  H   H3455     1.0  0.94923  0.94473  0.73857  1.0000
  C   C4317     1.0  0.79123  0.00093  0.79833  1.0000
  C   C4318     1.0  0.91119  0.67135  0.93416  1.0000
  C   C4319     1.0  0.99960  0.83775  0.84592  1.0000
  H   H3456     1.0  0.94267  0.99927  0.77302  1.0000
  C   C4320     1.0  0.51809  0.96197  0.98545  1.0000
  S   S576      1.0  0.97967  0.86524  0.73587  1.0000
