data_image0
_chemical_formula_structural       C5H5CHC4H2SH2C5H2CHP2CHCH2C3HC2HC2HC3HCHSC2H2CH3CHC3HCHC3HC3HC5HCH2C2HCFeCH2C2H3PS2FeC3HCH4SFeCHC2HFeH3SC2HC3SHCH2C3H2CHCH2C4SC2H2C5HCH2C3HC3HCHC2H3C3HCHC2HCHCH2PCHCHC5H3CH2CHC4H2CHCHC2H5C5SH2CHCHCH3CHCH4CH3SC5SFeS4Fe2CH2CHCSH6C2HSC3HC2H2CSH2C2HFeSCHC3HCH2FeC3H2C2HC5PC3H2CH6CHC2HCH3C4H3C2H2CHCHC2H2CHCSC7SCHC3HCH4C7H2C2H4CH3C4H5C2H2C2HPC2HPC2SHCH4C2SH2C2HC8HC2FeCH5CSC2PC2H4C2H2C3SCHC2H4CH2CH3PH2C2HC2FeHC6SCSCHC2HFeCHSC3H2C2H3C3HFeHC2HCHCHC3HCH6CPH2C3HSCH2C5H2CHC2SC4HC5HC4HC2HCH2CHSC3H2C6H2CSCFeHCH4C2H3CFeSH2C3HCH2C2HC2H4SC2SCHC2SFeCSHSC2HC2HPSFeCH2SCH3CHC2HC4H2CSHCHCH2CHCH6FeC2FeHC3HC5FeC4HC4HCH3PHCH6C4H3CHC2SCH2C3HCH2CHCH3C2HC2SFeHC2PC2H2CH3C7FeCH3C3H3CH3S2C4HCHCHCHFeCFeCSHC2HCPCFeCFeSCHCHFeCH2CSHCSC3H4CSC2SCH3SC2HCHCH4CFeC2HCSHC2H3C2H2CHC3S2H2CHCHC6H2CHC3HSHPCH2C3PCHCHCH2C2PH6C5H5C4HCHSCHC5H3SHFeCHCH5C6HFeCHCH5SCFeHFeS2HFe2C2HC3SHC2PFeHSCHC4HC2S2CHCHC3HCSCH3C4HC2HCSHCHCSCHCHSC3H2CH3C2HC3HPCH3C4HC4HC2H3CH3C2HCH3C5HCHC5HCHCH3CHCSHC4HCHC3H3C2SCSFeH2SH4C2H2FeH2CSCFeCSHC2SH3C2SCFe2H3SHFePHC3SFeHC3H2CHSCHCSC3HCH3CHSC3HC4SFeH3CH2SCH2CH2CHC2H2C3H2C3SHCHC2H3CFeHPHCPC2H2CHC3HC2HCH3CHSCH2C3HC4HC6HCHC2HCFeSC8HC2HC3HC2HCHFeSCSHPHCHSC3HFeSCHC2H2CH3FeCHC2SCHC7HC2HC3HC2H2C8HSHSH3CH2CHC2H3CH2PCH3CSC2SHCH
_chemical_formula_sum              "C720 H576 S96 P24 Fe48"
_cell_length_a       25.3935
_cell_length_b       30.7085
_cell_length_c       26.7151
_cell_angle_alpha    96.134
_cell_angle_beta     86.0831
_cell_angle_gamma    110.54

_space_group_name_H-M_alt    "P 1"
_space_group_IT_number       1

loop_
  _space_group_symop_operation_xyz
  'x, y, z'

loop_
  _atom_site_type_symbol
  _atom_site_label
  _atom_site_symmetry_multiplicity
  _atom_site_fract_x
  _atom_site_fract_y
  _atom_site_fract_z
  _atom_site_occupancy
  C   C1        1.0  0.56132  0.46452  0.61170  1.0000
  C   C2        1.0  0.57164  0.36213  0.52803  1.0000
  C   C3        1.0  0.45284  0.08590  0.59829  1.0000
  C   C4        1.0  0.51952  0.05765  0.65776  1.0000
  C   C5        1.0  0.58947  0.50438  0.74537  1.0000
  H   H1        1.0  0.53134  0.12746  0.56400  1.0000
  H   H2        1.0  0.56113  0.44258  0.64098  1.0000
  H   H3        1.0  0.29064  0.31539  0.66011  1.0000
  H   H4        1.0  0.18186  0.29501  0.67123  1.0000
  H   H5        1.0  0.30167  0.49232  0.71875  1.0000
  C   C6        1.0  0.31597  0.50492  0.68206  1.0000
  H   H6        1.0  0.32852  0.22489  0.73847  1.0000
  C   C7        1.0  0.27339  0.06564  0.60800  1.0000
  C   C8        1.0  0.26912  0.21923  0.62623  1.0000
  C   C9        1.0  0.51068  0.46722  0.59765  1.0000
  C   C10       1.0  0.56153  0.52165  0.53698  1.0000
  H   H7        1.0  0.17750  0.12315  0.67807  1.0000
  H   H8        1.0  0.20432  0.32891  0.56176  1.0000
  S   S1        1.0  0.50086  0.42196  0.74212  1.0000
  H   H9        1.0  0.33164  0.40099  0.67126  1.0000
  H   H10       1.0  0.65086  0.48801  0.60022  1.0000
  C   C11       1.0  0.53258  0.48167  0.73533  1.0000
  C   C12       1.0  0.21002  0.35539  0.53625  1.0000
  C   C13       1.0  0.35076  0.38580  0.54443  1.0000
  C   C14       1.0  0.37263  0.53018  0.67300  1.0000
  C   C15       1.0  0.18436  0.54713  0.60170  1.0000
  H   H11       1.0  0.45747  0.48901  0.71105  1.0000
  H   H12       1.0  0.26456  0.07650  0.64657  1.0000
  C   C16       1.0  0.22920  0.43658  0.52278  1.0000
  H   H13       1.0  0.40193  0.53758  0.70298  1.0000
  P   P1        1.0  0.28367  0.24777  0.56874  1.0000
  P   P2        1.0  0.24473  0.49695  0.54695  1.0000
  C   C17       1.0  0.34130  0.05858  0.70734  1.0000
  H   H14       1.0  0.34603  0.26522  0.66098  1.0000
  C   C18       1.0  0.25254  0.17091  0.71254  1.0000
  H   H15       1.0  0.60255  0.06117  0.52521  1.0000
  H   H16       1.0  0.24619  0.15215  0.74576  1.0000
  C   C19       1.0  0.29928  0.21147  0.70813  1.0000
  C   C20       1.0  0.29547  0.51146  0.59607  1.0000
  C   C21       1.0  0.50072  0.50696  0.72095  1.0000
  H   H17       1.0  0.19318  0.16376  0.60059  1.0000
  C   C22       1.0  0.30834  0.23488  0.66461  1.0000
  C   C23       1.0  0.27763  0.49547  0.64383  1.0000
  H   H18       1.0  0.36223  0.12824  0.68398  1.0000
  C   C24       1.0  0.35059  0.10662  0.71528  1.0000
  C   C25       1.0  0.33621  0.22764  0.53520  1.0000
  H   H19       1.0  0.16591  0.23576  0.59521  1.0000
  C   C26       1.0  0.33086  0.38301  0.63398  1.0000
  C   C27       1.0  0.30837  0.33419  0.62747  1.0000
  C   C28       1.0  0.39110  0.54629  0.62570  1.0000
  H   H20       1.0  0.47159  0.44743  0.61620  1.0000
  C   C29       1.0  0.54479  0.08920  0.62186  1.0000
  H   H21       1.0  0.59025  0.10216  0.61661  1.0000
  S   S2        1.0  0.23162  0.39398  0.72975  1.0000
  C   C30       1.0  0.21399  0.15439  0.67409  1.0000
  C   C31       1.0  0.35261  0.53758  0.58752  1.0000
  H   H22       1.0  0.36931  0.44650  0.59768  1.0000
  H   H23       1.0  0.61321  0.31909  0.55442  1.0000
  C   C32       1.0  0.35220  0.40877  0.59255  1.0000
  H   H24       1.0  0.22662  0.53429  0.72560  1.0000
  H   H25       1.0  0.56394  0.37658  0.56542  1.0000
  H   H26       1.0  0.42788  0.09767  0.57532  1.0000
  C   C33       1.0  0.22252  0.17810  0.63072  1.0000
  H   H27       1.0  0.23403  0.47527  0.65170  1.0000
  C   C34       1.0  0.51152  0.10328  0.59210  1.0000
  C   C35       1.0  0.61208  0.49044  0.58862  1.0000
  C   C36       1.0  0.30881  0.31077  0.57932  1.0000
  H   H28       1.0  0.22363  0.40992  0.59580  1.0000
  C   C37       1.0  0.32848  0.33708  0.53788  1.0000
  H   H29       1.0  0.40613  0.29252  0.54932  1.0000
  C   C38       1.0  0.22117  0.40174  0.55550  1.0000
  C   C39       1.0  0.51077  0.49578  0.56028  1.0000
  C   C40       1.0  0.18493  0.53268  0.73874  1.0000
  H   H30       1.0  0.36800  0.55130  0.55173  1.0000
  C   C41       1.0  0.61264  0.51908  0.55083  1.0000
  C   C42       1.0  0.22190  0.23237  0.53157  1.0000
  C   C43       1.0  0.16876  0.39758  0.75758  1.0000
  H   H31       1.0  0.20833  0.08523  0.57896  1.0000
  C   C44       1.0  0.59898  0.32950  0.52181  1.0000
  C   C45       1.0  0.17000  0.23048  0.55472  1.0000
  C   C46       1.0  0.18149  0.50416  0.57572  1.0000
  C   C47       1.0  0.34554  0.12716  0.76392  1.0000
  C   C48       1.0  0.39295  0.25672  0.53288  1.0000
  H   H32       1.0  0.47158  0.49803  0.54919  1.0000
  C   C49       1.0  0.24095  0.07022  0.56992  1.0000
  H   H33       1.0  0.61411  0.48491  0.75675  1.0000
  H   H34       1.0  0.18007  0.29199  0.76313  1.0000
  C   C50       1.0  0.52495  0.55540  0.71916  1.0000
  C   C51       1.0  0.61353  0.55289  0.74394  1.0000
  H   H35       1.0  0.23230  0.13505  0.00814  1.0000
  C   C52       1.0  0.36851  0.06384  0.00410  1.0000
  Fe  Fe1       1.0  0.29685  0.40081  0.78528  1.0000
  C   C53       1.0  0.42418  0.09432  0.00389  1.0000
  H   H36       1.0  0.28406  0.19124  0.91673  1.0000
  H   H37       1.0  0.44574  0.10582  0.96867  1.0000
  C   C54       1.0  0.22708  0.53564  0.86708  1.0000
  C   C55       1.0  0.18384  0.16395  0.82878  1.0000
  H   H38       1.0  0.21260  0.12267  0.87325  1.0000
  H   H39       1.0  0.49436  0.05714  0.89599  1.0000
  H   H40       1.0  0.51955  0.37818  0.90294  1.0000
  P   P3        1.0  0.61505  0.44976  0.95107  1.0000
  S   S3        1.0  0.37681  0.51188  0.93780  1.0000
  S   S4        1.0  0.31981  0.28915  0.90359  1.0000
  Fe  Fe2       1.0  0.42019  0.41306  0.78659  1.0000
  C   C56       1.0  0.23795  0.27845  0.01270  1.0000
  C   C57       1.0  0.26323  0.54720  0.95071  1.0000
  C   C58       1.0  0.55163  0.40887  0.97646  1.0000
  H   H41       1.0  0.26637  0.40998  0.99912  1.0000
  C   C59       1.0  0.64603  0.41360  0.91032  1.0000
  H   H42       1.0  0.65274  0.37378  0.97034  1.0000
  H   H43       1.0  0.43391  0.31991  0.93642  1.0000
  H   H44       1.0  0.21933  0.48009  0.91305  1.0000
  H   H45       1.0  0.35299  0.16421  0.77017  1.0000
  S   S5        1.0  0.41741  0.41024  0.87010  1.0000
  Fe  Fe3       1.0  0.36618  0.45674  0.87362  1.0000
  C   C60       1.0  0.33117  0.10001  0.80483  1.0000
  H   H46       1.0  0.20361  0.42912  0.82930  1.0000
  C   C61       1.0  0.23248  0.24763  0.84052  1.0000
  C   C62       1.0  0.26605  0.24121  0.87637  1.0000
  H   H47       1.0  0.46336  0.53597  0.00588  1.0000
  Fe  Fe4       1.0  0.33636  0.35100  0.85939  1.0000
  H   H48       1.0  0.32642  0.11583  0.84237  1.0000
  H   H49       1.0  0.35556  0.39374  0.99254  1.0000
  H   H50       1.0  0.23871  0.28237  0.83064  1.0000
  S   S6        1.0  0.28405  0.39684  0.86882  1.0000
  C   C63       1.0  0.16617  0.41613  0.80748  1.0000
  C   C64       1.0  0.20046  0.10212  0.01577  1.0000
  H   H51       1.0  0.50840  0.46493  0.93532  1.0000
  C   C65       1.0  0.23478  0.51736  0.91057  1.0000
  C   C66       1.0  0.51254  0.37718  0.94339  1.0000
  C   C67       1.0  0.65179  0.41682  0.85799  1.0000
  S   S7        1.0  0.34283  0.34981  0.77513  1.0000
  H   H52       1.0  0.23790  0.30497  0.98894  1.0000
  C   C68       1.0  0.64112  0.52430  0.89242  1.0000
  H   H53       1.0  0.25613  0.06428  0.99298  1.0000
  H   H54       1.0  0.64017  0.44242  0.84092  1.0000
  C   C69       1.0  0.21720  0.15745  0.86484  1.0000
  C   C70       1.0  0.46399  0.34411  0.96225  1.0000
  C   C71       1.0  0.19066  0.23813  0.01589  1.0000
  H   H55       1.0  0.17478  0.40697  0.94700  1.0000
  H   H56       1.0  0.48717  0.51957  0.88644  1.0000
  C   C72       1.0  0.53017  0.52083  0.88797  1.0000
  H   H57       1.0  0.27001  0.53316  0.98426  1.0000
  C   C73       1.0  0.19127  0.20896  0.81694  1.0000
  H   H58       1.0  0.16601  0.21354  0.78844  1.0000
  H   H59       1.0  0.20513  0.51189  0.83640  1.0000
  C   C74       1.0  0.21435  0.06178  0.00695  1.0000
  C   C75       1.0  0.54237  0.48923  0.91505  1.0000
  C   C76       1.0  0.59785  0.48993  0.91627  1.0000
  C   C77       1.0  0.25788  0.19619  0.88914  1.0000
  S   S8        1.0  0.37478  0.46436  0.79092  1.0000
  C   C78       1.0  0.57350  0.55499  0.86431  1.0000
  C   C79       1.0  0.45437  0.34218  0.01418  1.0000
  H   H60       1.0  0.17600  0.42097  0.13172  1.0000
  H   H61       1.0  0.25417  0.29734  0.15317  1.0000
  C   C80       1.0  0.28694  0.24903  0.06771  1.0000
  C   C81       1.0  0.39314  0.48895  0.07877  1.0000
  C   C82       1.0  0.62093  0.51610  0.25390  1.0000
  C   C83       1.0  0.58942  0.18990  0.14368  1.0000
  C   C84       1.0  0.19212  0.39350  0.13688  1.0000
  H   H62       1.0  0.17055  0.19877  0.15037  1.0000
  C   C85       1.0  0.55582  0.45779  0.15520  1.0000
  H   H63       1.0  0.27213  0.10188  0.12610  1.0000
  H   H64       1.0  0.44883  0.10481  0.12824  1.0000
  C   C86       1.0  0.58532  0.19535  0.23476  1.0000
  C   C87       1.0  0.63746  0.18935  0.23472  1.0000
  C   C88       1.0  0.27062  0.49954  0.25849  1.0000
  H   H65       1.0  0.43641  0.44388  0.04270  1.0000
  C   C89       1.0  0.18280  0.31188  0.12999  1.0000
  C   C90       1.0  0.56114  0.19538  0.18931  1.0000
  C   C91       1.0  0.36877  0.06349  0.09509  1.0000
  H   H66       1.0  0.60025  0.46249  0.15226  1.0000
  C   C92       1.0  0.23694  0.32412  0.14811  1.0000
  H   H67       1.0  0.22689  0.35794  0.25641  1.0000
  C   C93       1.0  0.47847  0.29888  0.25009  1.0000
  C   C94       1.0  0.45270  0.10875  0.04888  1.0000
  H   H68       1.0  0.53914  0.52197  0.25615  1.0000
  H   H69       1.0  0.24062  0.18207  0.09421  1.0000
  H   H70       1.0  0.48562  0.37206  0.08756  1.0000
  C   C95       1.0  0.53468  0.30614  0.23628  1.0000
  C   C96       1.0  0.19043  0.20313  0.04579  1.0000
  C   C97       1.0  0.58274  0.53778  0.24570  1.0000
  H   H71       1.0  0.51676  0.05892  0.13473  1.0000
  C   C98       1.0  0.41548  0.08966  0.22326  1.0000
  H   H72       1.0  0.57192  0.43028  0.05456  1.0000
  C   C99       1.0  0.51893  0.42269  0.18287  1.0000
  C   C100      1.0  0.18431  0.06363  0.13813  1.0000
  H   H73       1.0  0.43444  0.52013  0.22638  1.0000
  C   C101      1.0  0.24659  0.40563  0.15415  1.0000
  H   H74       1.0  0.32457  0.25313  0.08731  1.0000
  C   C102      1.0  0.46201  0.41761  0.18806  1.0000
  H   H75       1.0  0.54958  0.31257  0.19785  1.0000
  H   H76       1.0  0.49661  0.13098  0.04834  1.0000
  P   P4        1.0  0.45288  0.52501  0.11516  1.0000
  C   C103      1.0  0.35150  0.42211  0.01851  1.0000
  H   H77       1.0  0.53493  0.40055  0.20167  1.0000
  C   C104      1.0  0.39729  0.45078  0.04673  1.0000
  H   H78       1.0  0.57077  0.18937  0.10822  1.0000
  C   C105      1.0  0.54180  0.40676  0.02856  1.0000
  C   C106      1.0  0.33844  0.11894  0.22491  1.0000
  C   C107      1.0  0.17353  0.53358  0.07426  1.0000
  C   C108      1.0  0.26892  0.37100  0.15995  1.0000
  C   C109      1.0  0.36394  0.08679  0.20456  1.0000
  H   H79       1.0  0.19802  0.50274  0.13332  1.0000
  H   H80       1.0  0.64311  0.09570  0.14465  1.0000
  H   H81       1.0  0.29551  0.50736  0.22395  1.0000
  C   C110      1.0  0.28606  0.28394  0.03854  1.0000
  H   H82       1.0  0.33880  0.52797  0.10527  1.0000
  H   H83       1.0  0.44952  0.29973  0.22254  1.0000
  C   C111      1.0  0.30126  0.43139  0.02200  1.0000
  H   H84       1.0  0.56612  0.51671  0.11455  1.0000
  C   C112      1.0  0.64200  0.18478  0.14347  1.0000
  C   C113      1.0  0.15927  0.34641  0.12579  1.0000
  C   C114      1.0  0.44232  0.44827  0.16657  1.0000
  C   C115      1.0  0.24138  0.06920  0.13641  1.0000
  H   H85       1.0  0.39843  0.44483  0.17205  1.0000
  H   H86       1.0  0.25843  0.47731  0.05491  1.0000
  C   C116      1.0  0.44123  0.12411  0.26132  1.0000
  H   H87       1.0  0.15944  0.27556  0.11918  1.0000
  C   C117      1.0  0.53632  0.48889  0.13418  1.0000
  H   H88       1.0  0.43341  0.39102  0.21021  1.0000
  C   C118      1.0  0.34270  0.49829  0.08173  1.0000
  C   C119      1.0  0.47952  0.48483  0.14050  1.0000
  H   H89       1.0  0.52049  0.19959  0.18943  1.0000
  H   H90       1.0  0.27159  0.44197  0.16315  1.0000
  H   H91       1.0  0.31062  0.38057  0.17453  1.0000
  H   H92       1.0  0.17130  0.09208  0.13039  1.0000
  H   H93       1.0  0.29805  0.11731  0.21304  1.0000
  C   C120      1.0  0.49314  0.37357  0.04734  1.0000
  C   C121      1.0  0.42525  0.09349  0.09429  1.0000
  C   C122      1.0  0.23924  0.20889  0.07159  1.0000
  C   C123      1.0  0.20799  0.53321  0.11273  1.0000
  C   C124      1.0  0.29693  0.46951  0.05339  1.0000
  S   S9        1.0  0.58703  0.08929  0.04799  1.0000
  H   H94       1.0  0.19251  0.27264  0.26338  1.0000
  H   H95       1.0  0.41710  0.31610  0.02855  1.0000
  C   C125      1.0  0.36497  0.15411  0.26188  1.0000
  H   H96       1.0  0.43578  0.06535  0.20777  1.0000
  C   C126      1.0  0.42841  0.55101  0.21603  1.0000
  H   H97       1.0  0.61548  0.31228  0.26036  1.0000
  C   C127      1.0  0.18353  0.33990  0.26778  1.0000
  H   H98       1.0  0.21855  0.53871  0.24395  1.0000
  H   H99       1.0  0.32264  0.31515  0.03530  1.0000
  H   H100      1.0  0.61028  0.52955  0.01860  1.0000
  C   C128      1.0  0.64724  0.52220  0.02730  1.0000
  H   H101      1.0  0.36668  0.40556  0.51205  1.0000
  C   C129      1.0  0.57216  0.30619  0.27226  1.0000
  H   H102      1.0  0.57968  0.10991  0.38991  1.0000
  H   H103      1.0  0.34526  0.17915  0.27637  1.0000
  H   H104      1.0  0.32622  0.31969  0.50036  1.0000
  H   H105      1.0  0.38247  0.23897  0.41540  1.0000
  C   C130      1.0  0.31480  0.22384  0.36459  1.0000
  H   H106      1.0  0.33949  0.35588  0.38263  1.0000
  H   H107      1.0  0.26683  0.30478  0.32593  1.0000
  H   H108      1.0  0.21158  0.36833  0.41125  1.0000
  S   S10       1.0  0.42142  0.33863  0.43846  1.0000
  C   C131      1.0  0.20593  0.48033  0.34795  1.0000
  C   C132      1.0  0.28216  0.47200  0.29162  1.0000
  C   C133      1.0  0.45970  0.29143  0.29981  1.0000
  C   C134      1.0  0.26924  0.53289  0.49456  1.0000
  C   C135      1.0  0.20800  0.34361  0.48427  1.0000
  S   S11       1.0  0.22997  0.20638  0.29905  1.0000
  Fe  Fe5       1.0  0.39622  0.45310  0.33093  1.0000
  S   S12       1.0  0.51828  0.46719  0.41913  1.0000
  S   S13       1.0  0.22493  0.11131  0.39036  1.0000
  S   S14       1.0  0.33227  0.44528  0.27328  1.0000
  S   S15       1.0  0.44579  0.40508  0.32275  1.0000
  Fe  Fe6       1.0  0.19010  0.13733  0.33007  1.0000
  Fe  Fe7       1.0  0.46313  0.51081  0.42070  1.0000
  C   C136      1.0  0.33294  0.31918  0.37782  1.0000
  H   H109      1.0  0.48176  0.28622  0.37456  1.0000
  H   H110      1.0  0.53266  0.40125  0.49082  1.0000
  C   C137      1.0  0.25034  0.46289  0.33671  1.0000
  H   H111      1.0  0.41629  0.28671  0.31032  1.0000
  C   C138      1.0  0.16425  0.29195  0.27251  1.0000
  S   S16       1.0  0.17149  0.07216  0.27849  1.0000
  H   H112      1.0  0.26564  0.22726  0.46022  1.0000
  H   H113      1.0  0.44937  0.18073  0.46867  1.0000
  H   H114      1.0  0.25903  0.44114  0.36183  1.0000
  H   H115      1.0  0.30902  0.18728  0.35869  1.0000
  H   H116      1.0  0.33955  0.50975  0.47488  1.0000
  H   H117      1.0  0.62983  0.28533  0.46965  1.0000
  C   C139      1.0  0.29163  0.29010  0.34550  1.0000
  C   C140      1.0  0.36153  0.16452  0.48963  1.0000
  H   H118      1.0  0.36591  0.54949  0.39662  1.0000
  S   S17       1.0  0.38267  0.44940  0.41421  1.0000
  C   C141      1.0  0.55384  0.29918  0.32268  1.0000
  C   C142      1.0  0.22369  0.42376  0.47081  1.0000
  C   C143      1.0  0.35650  0.25310  0.39675  1.0000
  H   H119      1.0  0.48058  0.12552  0.27588  1.0000
  C   C144      1.0  0.56329  0.35704  0.43756  1.0000
  C   C145      1.0  0.49707  0.29150  0.33605  1.0000
  H   H120      1.0  0.16219  0.40215  0.27458  1.0000
  H   H121      1.0  0.56023  0.54304  0.50788  1.0000
  C   C146      1.0  0.22599  0.22513  0.47894  1.0000
  S   S18       1.0  0.59935  0.46785  0.28945  1.0000
  H   H122      1.0  0.22679  0.44928  0.44497  1.0000
  H   H123      1.0  0.50554  0.21282  0.37189  1.0000
  C   C147      1.0  0.55411  0.37606  0.48595  1.0000
  C   C148      1.0  0.43353  0.23983  0.50877  1.0000
  H   H124      1.0  0.43586  0.18366  0.30948  1.0000
  Fe  Fe8       1.0  0.52191  0.46857  0.33523  1.0000
  S   S19       1.0  0.47294  0.51739  0.33774  1.0000
  C   C149      1.0  0.60798  0.31020  0.47357  1.0000
  H   H125      1.0  0.47697  0.26286  0.50628  1.0000
  C   C150      1.0  0.19430  0.50758  0.31434  1.0000
  C   C151      1.0  0.21425  0.37766  0.45156  1.0000
  C   C152      1.0  0.58421  0.14576  0.38530  1.0000
  H   H126      1.0  0.34919  0.12891  0.47257  1.0000
  C   C153      1.0  0.41790  0.19370  0.48736  1.0000
  H   H127      1.0  0.18057  0.47273  0.38225  1.0000
  H   H128      1.0  0.20097  0.30812  0.46918  1.0000
  Fe  Fe9       1.0  0.43877  0.40660  0.40659  1.0000
  C   C154      1.0  0.58938  0.32327  0.43108  1.0000
  C   C155      1.0  0.31566  0.53015  0.46449  1.0000
  C   C156      1.0  0.36573  0.30087  0.40310  1.0000
  H   H129      1.0  0.49535  0.13093  0.37992  1.0000
  H   H130      1.0  0.54977  0.36874  0.40544  1.0000
  C   C157      1.0  0.63743  0.18043  0.38697  1.0000
  C   C158      1.0  0.64358  0.22694  0.38223  1.0000
  H   H131      1.0  0.18257  0.21012  0.40930  1.0000
  C   C159      1.0  0.59645  0.23890  0.37405  1.0000
  C   C160      1.0  0.54283  0.20407  0.37457  1.0000
  C   C161      1.0  0.53681  0.15764  0.37956  1.0000
  C   C162      1.0  0.28239  0.24238  0.33896  1.0000
  C   C163      1.0  0.17882  0.21554  0.44992  1.0000
  P   P5        1.0  0.60273  0.29887  0.36895  1.0000
  C   C164      1.0  0.41616  0.15664  0.28032  1.0000
  C   C165      1.0  0.33047  0.55238  0.41995  1.0000
  C   C166      1.0  0.32085  0.18133  0.51366  1.0000
  H   H132      1.0  0.27730  0.15831  0.51529  1.0000
  H   H133      1.0  0.22353  0.05737  0.49080  1.0000
  C   C167      1.0  0.22717  0.51748  0.26996  1.0000
  H   H134      1.0  0.56354  0.19995  0.26999  1.0000
  H   H135      1.0  0.65502  0.18888  0.27037  1.0000
  H   H136      1.0  0.47281  0.70958  0.61665  1.0000
  H   H137      1.0  0.23889  0.66210  0.52689  1.0000
  H   H138      1.0  0.54556  0.04661  0.68045  1.0000
  H   H139      1.0  0.60240  0.72585  0.71419  1.0000
  C   C168      1.0  0.59053  0.99642  0.55638  1.0000
  H   H140      1.0  0.58020  0.96421  0.66848  1.0000
  C   C169      1.0  0.58085  0.57857  0.73227  1.0000
  C   C170      1.0  0.29970  0.62022  0.76687  1.0000
  H   H141      1.0  0.56329  0.85181  0.74902  1.0000
  C   C171      1.0  0.57493  0.02560  0.52840  1.0000
  H   H142      1.0  0.52143  0.84366  0.60141  1.0000
  H   H143      1.0  0.25701  0.62179  0.69985  1.0000
  H   H144      1.0  0.32720  0.83091  0.74607  1.0000
  C   C172      1.0  0.34550  0.63762  0.68465  1.0000
  C   C173      1.0  0.58346  0.78986  0.72434  1.0000
  C   C174      1.0  0.20259  0.66649  0.54744  1.0000
  C   C175      1.0  0.62016  0.83656  0.62798  1.0000
  H   H145      1.0  0.24996  0.68890  0.75219  1.0000
  H   H146      1.0  0.43486  0.65111  0.68026  1.0000
  H   H147      1.0  0.63557  0.88756  0.69305  1.0000
  C   C176      1.0  0.55951  0.94568  0.74462  1.0000
  C   C177      1.0  0.49032  0.93771  0.68311  1.0000
  H   H148      1.0  0.40382  0.91143  0.70816  1.0000
  H   H149      1.0  0.43531  0.56552  0.61865  1.0000
  C   C178      1.0  0.40054  0.63724  0.75490  1.0000
  H   H150      1.0  0.39614  0.96031  0.59965  1.0000
  C   C179      1.0  0.44695  0.92037  0.71880  1.0000
  H   H151      1.0  0.20256  0.88200  0.66721  1.0000
  C   C180      1.0  0.29685  0.62607  0.71573  1.0000
  C   C181      1.0  0.46093  0.04032  0.66420  1.0000
  H   H152      1.0  0.56746  0.92752  0.58119  1.0000
  H   H153      1.0  0.44193  0.01635  0.69265  1.0000
  C   C182      1.0  0.24938  0.05437  0.52007  1.0000
  H   H154      1.0  0.46841  0.63451  0.57161  1.0000
  C   C183      1.0  0.60968  0.68240  0.58389  1.0000
  S   S20       1.0  0.60783  0.63964  0.73610  1.0000
  C   C184      1.0  0.33080  0.89504  0.61073  1.0000
  C   C185      1.0  0.32905  0.03191  0.74904  1.0000
  C   C186      1.0  0.51137  0.70227  0.60905  1.0000
  C   C187      1.0  0.54654  0.95025  0.69595  1.0000
  C   C188      1.0  0.20923  0.70575  0.58154  1.0000
  C   C189      1.0  0.59616  0.75284  0.74069  1.0000
  C   C190      1.0  0.55753  0.64966  0.57049  1.0000
  S   S21       1.0  0.27562  0.74875  0.58992  1.0000
  C   C191      1.0  0.39727  0.64311  0.70429  1.0000
  H   H155      1.0  0.22998  0.81972  0.72417  1.0000
  C   C192      1.0  0.30779  0.85568  0.76210  1.0000
  C   C193      1.0  0.39373  0.80445  0.66178  1.0000
  C   C194      1.0  0.55456  0.95051  0.56084  1.0000
  H   H156      1.0  0.47520  0.89837  0.54017  1.0000
  C   C195      1.0  0.27626  0.87268  0.62934  1.0000
  H   H157      1.0  0.65325  0.74921  0.62176  1.0000
  H   H158      1.0  0.25744  0.83500  0.62366  1.0000
  H   H159      1.0  0.35381  0.01240  0.53616  1.0000
  H   H160      1.0  0.61347  0.79669  0.55486  1.0000
  C   C196      1.0  0.56346  0.73469  0.62437  1.0000
  C   C197      1.0  0.63334  0.82981  0.57634  1.0000
  C   C198      1.0  0.43627  0.82893  0.62884  1.0000
  C   C199      1.0  0.25250  0.84876  0.75033  1.0000
  C   C200      1.0  0.50853  0.65965  0.58300  1.0000
  C   C201      1.0  0.48949  0.82505  0.62800  1.0000
  C   C202      1.0  0.32325  0.02960  0.54593  1.0000
  H   H161      1.0  0.18266  0.87324  0.76436  1.0000
  H   H162      1.0  0.35234  0.80705  0.66144  1.0000
  C   C203      1.0  0.24543  0.89904  0.65368  1.0000
  C   C204      1.0  0.50262  0.93392  0.53751  1.0000
  H   H163      1.0  0.64781  0.67530  0.57286  1.0000
  H   H164      1.0  0.22423  0.57565  0.60504  1.0000
  H   H165      1.0  0.46487  0.74922  0.71850  1.0000
  H   H166      1.0  0.15640  0.82214  0.60075  1.0000
  C   C205      1.0  0.45971  0.91553  0.76774  1.0000
  H   H167      1.0  0.16737  0.74156  0.63475  1.0000
  H   H168      1.0  0.20032  0.89728  0.56121  1.0000
  H   H169      1.0  0.48035  0.94188  0.64555  1.0000
  C   C206      1.0  0.35488  0.94367  0.61668  1.0000
  C   C207      1.0  0.31519  0.04565  0.59618  1.0000
  C   C208      1.0  0.26935  0.94760  0.65993  1.0000
  C   C209      1.0  0.57437  0.82350  0.76043  1.0000
  H   H170      1.0  0.34298  0.64202  0.64523  1.0000
  H   H171      1.0  0.35352  0.87472  0.58975  1.0000
  H   H172      1.0  0.42779  0.85054  0.60347  1.0000
  H   H173      1.0  0.60308  0.95609  0.75501  1.0000
  H   H174      1.0  0.24430  0.96750  0.67788  1.0000
  C   C210      1.0  0.61263  0.72448  0.61127  1.0000
  C   C211      1.0  0.32468  0.97022  0.64237  1.0000
  H   H175      1.0  0.50015  0.57526  0.70915  1.0000
  H   H176      1.0  0.37095  0.75621  0.71914  1.0000
  C   C212      1.0  0.40423  0.77585  0.69414  1.0000
  C   C213      1.0  0.45750  0.77205  0.69370  1.0000
  H   H177      1.0  0.55489  0.61678  0.54976  1.0000
  P   P6        1.0  0.56815  0.78966  0.65913  1.0000
  C   C214      1.0  0.64516  0.88078  0.65364  1.0000
  C   C215      1.0  0.50063  0.79694  0.66086  1.0000
  H   H178      1.0  0.32426  0.99533  0.74461  1.0000
  P   P7        1.0  0.35192  0.03295  0.64508  1.0000
  C   C216      1.0  0.16240  0.71118  0.60844  1.0000
  C   C217      1.0  0.17186  0.86696  0.54040  1.0000
  S   S22       1.0  0.65508  0.01719  0.58553  1.0000
  H   H179      1.0  0.65481  0.58986  0.62533  1.0000
  C   C218      1.0  0.42717  0.05398  0.63418  1.0000
  H   H180      1.0  0.42869  0.67392  0.00499  1.0000
  H   H181      1.0  0.29455  0.65108  0.90147  1.0000
  H   H182      1.0  0.45860  0.75660  0.81683  1.0000
  H   H183      1.0  0.16924  0.89576  0.90581  1.0000
  C   C219      1.0  0.20386  0.89478  0.92575  1.0000
  C   C220      1.0  0.58855  0.78221  0.82767  1.0000
  S   S23       1.0  0.24801  0.79382  0.97573  1.0000
  H   H184      1.0  0.48581  0.03199  0.98222  1.0000
  H   H185      1.0  0.33047  0.96407  0.97108  1.0000
  C   C221      1.0  0.24969  0.93547  0.93674  1.0000
  C   C222      1.0  0.39633  0.83948  0.83244  1.0000
  H   H186      1.0  0.57787  0.99650  0.00250  1.0000
  C   C223      1.0  0.31050  0.92428  0.81726  1.0000
  C   C224      1.0  0.43072  0.65099  0.97197  1.0000
  C   C225      1.0  0.20320  0.85183  0.93927  1.0000
  C   C226      1.0  0.58593  0.62764  0.01692  1.0000
  C   C227      1.0  0.37939  0.74841  0.85575  1.0000
  C   C228      1.0  0.40866  0.60267  0.97479  1.0000
  C   C229      1.0  0.18253  0.70835  0.88313  1.0000
  C   C230      1.0  0.25521  0.91723  0.80512  1.0000
  H   H187      1.0  0.60723  0.71993  0.80466  1.0000
  C   C231      1.0  0.22594  0.87914  0.77248  1.0000
  C   C232      1.0  0.19502  0.66754  0.87093  1.0000
  Fe  Fe10      1.0  0.42879  0.75882  0.98288  1.0000
  C   C233      1.0  0.17731  0.56474  0.77747  1.0000
  H   H188      1.0  0.45694  0.99907  0.82408  1.0000
  H   H189      1.0  0.22628  0.75917  0.77390  1.0000
  H   H190      1.0  0.56412  0.58015  0.84423  1.0000
  H   H191      1.0  0.35595  0.62183  0.82537  1.0000
  H   H192      1.0  0.18491  0.77339  0.85808  1.0000
  C   C234      1.0  0.47350  0.02068  0.90223  1.0000
  S   S24       1.0  0.41540  0.82802  0.99071  1.0000
  C   C235      1.0  0.45252  0.98763  0.86160  1.0000
  C   C236      1.0  0.28451  0.59528  0.94714  1.0000
  P   P8        1.0  0.23717  0.60784  0.80769  1.0000
  C   C237      1.0  0.43576  0.81803  0.81625  1.0000
  C   C238      1.0  0.21795  0.73391  0.80112  1.0000
  H   H193      1.0  0.63456  0.81029  0.94703  1.0000
  H   H194      1.0  0.32934  0.88761  0.99511  1.0000
  H   H195      1.0  0.18456  0.64184  0.89821  1.0000
  H   H196      1.0  0.33140  0.95297  0.84440  1.0000
  C   C239      1.0  0.33705  0.89328  0.79597  1.0000
  C   C240      1.0  0.62785  0.81710  0.98710  1.0000
  H   H197      1.0  0.30761  0.61802  0.97801  1.0000
  H   H198      1.0  0.61637  0.65250  0.99404  1.0000
  C   C241      1.0  0.46876  0.00655  0.95083  1.0000
  C   C242      1.0  0.29478  0.93287  0.96236  1.0000
  C   C243      1.0  0.24774  0.58407  0.86354  1.0000
  S   S25       1.0  0.47717  0.73003  0.92266  1.0000
  C   C244      1.0  0.45481  0.66933  0.92680  1.0000
  H   H199      1.0  0.31698  0.83041  0.87351  1.0000
  C   C245      1.0  0.42735  0.77272  0.82802  1.0000
  C   C246      1.0  0.59861  0.74910  0.79214  1.0000
  H   H200      1.0  0.55260  0.83237  0.97877  1.0000
  H   H201      1.0  0.58973  0.77874  0.86750  1.0000
  H   H202      1.0  0.47804  0.65306  0.85004  1.0000
  H   H203      1.0  0.30326  0.75092  0.89438  1.0000
  C   C247      1.0  0.27714  0.61376  0.90372  1.0000
  H   H204      1.0  0.56974  0.84556  0.83969  1.0000
  H   H205      1.0  0.40278  0.89014  0.92518  1.0000
  C   C248      1.0  0.53872  0.59415  0.99483  1.0000
  H   H206      1.0  0.52739  0.92614  0.81834  1.0000
  H   H207      1.0  0.37384  0.71379  0.86584  1.0000
  H   H208      1.0  0.23427  0.94059  0.82203  1.0000
  P   P9        1.0  0.40510  0.89731  0.81601  1.0000
  H   H209      1.0  0.16720  0.82068  0.93076  1.0000
  H   H210      1.0  0.38974  0.58896  0.00999  1.0000
  C   C249      1.0  0.29440  0.88963  0.97569  1.0000
  C   C250      1.0  0.24892  0.84897  0.96323  1.0000
  H   H211      1.0  0.53193  0.59417  0.95532  1.0000
  C   C251      1.0  0.57691  0.81964  0.81185  1.0000
  C   C252      1.0  0.58184  0.82971  0.00502  1.0000
  Fe  Fe11      1.0  0.32450  0.78682  0.00633  1.0000
  H   H212      1.0  0.43839  0.94860  0.99667  1.0000
  C   C253      1.0  0.42234  0.92634  0.91825  1.0000
  C   C254      1.0  0.42770  0.94003  0.86927  1.0000
  C   C255      1.0  0.44260  0.95950  0.95890  1.0000
  C   C256      1.0  0.34810  0.81468  0.86030  1.0000
  C   C257      1.0  0.40879  0.57210  0.93207  1.0000
  C   C258      1.0  0.33989  0.76942  0.87198  1.0000
  S   S26       1.0  0.33695  0.71795  0.99088  1.0000
  C   C259      1.0  0.43405  0.59016  0.88687  1.0000
  S   S27       1.0  0.25211  0.98945  0.91751  1.0000
  C   C260      1.0  0.45805  0.63889  0.88460  1.0000
  H   H213      1.0  0.16419  0.71459  0.91981  1.0000
  C   C261      1.0  0.22071  0.66034  0.82400  1.0000
  C   C262      1.0  0.19417  0.74161  0.84834  1.0000
  H   H214      1.0  0.18419  0.98679  0.00538  1.0000
  Fe  Fe12      1.0  0.17409  0.99021  0.88127  1.0000
  C   C263      1.0  0.51637  0.92856  0.78043  1.0000
  H   H215      1.0  0.43500  0.56677  0.85383  1.0000
  S   S28       1.0  0.17595  0.00531  0.80080  1.0000
  C   C264      1.0  0.23143  0.69367  0.78899  1.0000
  C   C265      1.0  0.17371  0.01807  0.01367  1.0000
  C   C266      1.0  0.35210  0.62608  0.78623  1.0000
  H   H216      1.0  0.31318  0.03165  0.82934  1.0000
  H   H217      1.0  0.47283  0.83597  0.79450  1.0000
  C   C267      1.0  0.62901  0.55688  0.86691  1.0000
  C   C268      1.0  0.32351  0.05252  0.79744  1.0000
  H   H218      1.0  0.34717  0.05167  0.96885  1.0000
  H   H219      1.0  0.44074  0.64105  0.76977  1.0000
  H   H220      1.0  0.42927  0.61178  0.11603  1.0000
  C   C269      1.0  0.34363  0.93255  0.21986  1.0000
  C   C270      1.0  0.16057  0.81748  0.07319  1.0000
  C   C271      1.0  0.40061  0.76900  0.21321  1.0000
  H   H221      1.0  0.60147  0.83882  0.13062  1.0000
  Fe  Fe13      1.0  0.42410  0.82688  0.07354  1.0000
  H   H222      1.0  0.35066  0.86834  0.18425  1.0000
  C   C272      1.0  0.17401  0.69539  0.09489  1.0000
  C   C273      1.0  0.41540  0.58070  0.25447  1.0000
  H   H223      1.0  0.34349  0.96563  0.08366  1.0000
  C   C274      1.0  0.60049  0.57940  0.22265  1.0000
  H   H224      1.0  0.24419  0.64347  0.04079  1.0000
  C   C275      1.0  0.52694  0.94864  0.05503  1.0000
  H   H225      1.0  0.53243  0.97440  0.23296  1.0000
  C   C276      1.0  0.59526  0.91679  0.20383  1.0000
  C   C277      1.0  0.21187  0.65742  0.20509  1.0000
  C   C278      1.0  0.49942  0.56160  0.02390  1.0000
  H   H226      1.0  0.34969  0.88989  0.09763  1.0000
  C   C279      1.0  0.23381  0.61283  0.06094  1.0000
  H   H227      1.0  0.34371  0.92308  0.25785  1.0000
  H   H228      1.0  0.33703  0.99909  0.24467  1.0000
  H   H229      1.0  0.22021  0.78204  0.20266  1.0000
  H   H230      1.0  0.53829  0.84888  0.07073  1.0000
  H   H231      1.0  0.49116  0.03593  0.24701  1.0000
  H   H232      1.0  0.58808  0.69841  0.22585  1.0000
  C   C280      1.0  0.43390  0.56177  0.16561  1.0000
  P   P10       1.0  0.33282  0.04321  0.15359  1.0000
  H   H233      1.0  0.63837  0.72589  0.14681  1.0000
  H   H234      1.0  0.47204  0.75099  0.18361  1.0000
  C   C281      1.0  0.60974  0.83310  0.09068  1.0000
  C   C282      1.0  0.38257  0.80160  0.24309  1.0000
  C   C283      1.0  0.55272  0.59821  0.09798  1.0000
  H   H235      1.0  0.33798  0.79549  0.24877  1.0000
  S   S29       1.0  0.46662  0.88991  0.12628  1.0000
  C   C284      1.0  0.18518  0.68907  0.22346  1.0000
  H   H236      1.0  0.40842  0.66437  0.18458  1.0000
  H   H237      1.0  0.64439  0.93143  0.13472  1.0000
  C   C285      1.0  0.60943  0.73550  0.22300  1.0000
  C   C286      1.0  0.51945  0.02828  0.11231  1.0000
  C   C287      1.0  0.17100  0.68960  0.04234  1.0000
  C   C288      1.0  0.59547  0.92168  0.25669  1.0000
  C   C289      1.0  0.59309  0.62941  0.06853  1.0000
  H   H238      1.0  0.28215  0.57140  0.15438  1.0000
  H   H239      1.0  0.22538  0.86349  0.20349  1.0000
  C   C290      1.0  0.42587  0.60270  0.15456  1.0000
  H   H240      1.0  0.46914  0.98051  0.16496  1.0000
  C   C291      1.0  0.26851  0.61214  0.09904  1.0000
  C   C292      1.0  0.42195  0.84172  0.26623  1.0000
  S   S30       1.0  0.32594  0.66155  0.11809  1.0000
  C   C293      1.0  0.34083  0.04831  0.04943  1.0000
  C   C294      1.0  0.49299  0.98404  0.12961  1.0000
  C   C295      1.0  0.21781  0.99110  0.16214  1.0000
  C   C296      1.0  0.34678  0.90151  0.17854  1.0000
  H   H241      1.0  0.19860  0.63545  0.17058  1.0000
  C   C297      1.0  0.55437  0.99315  0.03806  1.0000
  C   C298      1.0  0.18607  0.57356  0.04852  1.0000
  C   C299      1.0  0.55090  0.03304  0.06688  1.0000
  C   C300      1.0  0.40848  0.62165  0.24318  1.0000
  C   C301      1.0  0.57349  0.83855  0.05677  1.0000
  H   H242      1.0  0.22967  0.96290  0.17287  1.0000
  C   C302      1.0  0.63831  0.75123  0.17819  1.0000
  C   C303      1.0  0.49749  0.81615  0.23030  1.0000
  C   C304      1.0  0.34042  0.97586  0.21223  1.0000
  C   C305      1.0  0.41383  0.63262  0.19329  1.0000
  H   H243      1.0  0.62953  0.65520  0.08613  1.0000
  C   C306      1.0  0.45807  0.77635  0.20669  1.0000
  C   C307      1.0  0.34356  0.95707  0.12190  1.0000
  H   H244      1.0  0.57113  0.59721  0.21936  1.0000
  C   C308      1.0  0.25557  0.57218  0.12477  1.0000
  H   H245      1.0  0.55798  0.60128  0.13804  1.0000
  H   H246      1.0  0.54162  0.82079  0.22547  1.0000
  C   C309      1.0  0.25871  0.03357  0.15010  1.0000
  H   H247      1.0  0.55657  0.89874  0.18445  1.0000
  S   S31       1.0  0.44443  0.76103  0.06472  1.0000
  C   C310      1.0  0.60960  0.76735  0.26451  1.0000
  C   C311      1.0  0.18412  0.86607  0.07477  1.0000
  C   C312      1.0  0.47984  0.84943  0.25997  1.0000
  H   H248      1.0  0.37003  0.73790  0.19541  1.0000
  H   H249      1.0  0.18552  0.79748  0.08287  1.0000
  C   C313      1.0  0.34140  0.98882  0.16320  1.0000
  C   C314      1.0  0.18174  0.78918  0.19970  1.0000
  C   C315      1.0  0.18510  0.83556  0.19936  1.0000
  C   C316      1.0  0.34626  0.91366  0.12965  1.0000
  C   C317      1.0  0.63779  0.81503  0.26089  1.0000
  C   C318      1.0  0.16062  0.98480  0.16098  1.0000
  H   H250      1.0  0.27617  0.62916  0.21768  1.0000
  H   H251      1.0  0.29797  0.02388  0.04861  1.0000
  C   C319      1.0  0.25541  0.65350  0.23183  1.0000
  S   S32       1.0  0.33226  0.78890  0.08955  1.0000
  C   C320      1.0  0.49678  0.94417  0.10121  1.0000
  Fe  Fe14      1.0  0.35192  0.72318  0.07274  1.0000
  H   H252      1.0  0.22718  0.88363  0.08600  1.0000
  C   C321      1.0  0.50587  0.56363  0.07590  1.0000
  H   H253      1.0  0.21392  0.71506  0.11193  1.0000
  H   H254      1.0  0.53002  0.91800  0.03280  1.0000
  H   H255      1.0  0.64286  0.01982  0.10492  1.0000
  H   H256      1.0  0.17179  0.92916  0.06011  1.0000
  C   C322      1.0  0.50865  0.97699  0.26764  1.0000
  C   C323      1.0  0.64504  0.93556  0.17550  1.0000
  H   H257      1.0  0.20848  0.70434  0.01912  1.0000
  H   H258      1.0  0.15961  0.57399  0.01865  1.0000
  H   H259      1.0  0.22809  0.59971  0.42240  1.0000
  C   C324      1.0  0.58097  0.90726  0.43740  1.0000
  Fe  Fe15      1.0  0.38333  0.86626  0.47134  1.0000
  S   S33       1.0  0.37145  0.83327  0.39230  1.0000
  H   H260      1.0  0.18030  0.90206  0.47319  1.0000
  H   H261      1.0  0.30677  0.67849  0.29710  1.0000
  C   C325      1.0  0.41803  0.67813  0.45228  1.0000
  C   C326      1.0  0.53688  0.83742  0.36005  1.0000
  C   C327      1.0  0.27744  0.90140  0.38212  1.0000
  H   H262      1.0  0.46139  0.92468  0.37639  1.0000
  C   C328      1.0  0.25996  0.96010  0.33852  1.0000
  H   H263      1.0  0.17328  0.85073  0.29939  1.0000
  H   H264      1.0  0.40690  0.86627  0.28940  1.0000
  C   C329      1.0  0.42635  0.64245  0.47590  1.0000
  C   C330      1.0  0.57110  0.86066  0.44468  1.0000
  H   H265      1.0  0.59942  0.93450  0.46678  1.0000
  C   C331      1.0  0.24537  0.71202  0.29576  1.0000
  C   C332      1.0  0.44156  0.68819  0.40414  1.0000
  H   H266      1.0  0.61650  0.63904  0.40647  1.0000
  H   H267      1.0  0.19541  0.66225  0.44563  1.0000
  H   H268      1.0  0.39228  0.69705  0.47075  1.0000
  H   H269      1.0  0.63150  0.61917  0.49008  1.0000
  S   S34       1.0  0.29262  0.73691  0.43948  1.0000
  C   C333      1.0  0.64626  0.94667  0.28067  1.0000
  C   C334      1.0  0.48275  0.62773  0.40381  1.0000
  S   S35       1.0  0.46471  0.56958  0.47930  1.0000
  C   C335      1.0  0.23524  0.86626  0.35530  1.0000
  H   H270      1.0  0.41905  0.98566  0.38928  1.0000
  C   C336      1.0  0.16034  0.86980  0.49080  1.0000
  C   C337      1.0  0.44419  0.98355  0.35529  1.0000
  S   S36       1.0  0.27517  0.01895  0.32971  1.0000
  Fe  Fe16      1.0  0.28146  0.80106  0.41622  1.0000
  C   C338      1.0  0.54564  0.88405  0.35278  1.0000
  S   S37       1.0  0.21731  0.80770  0.36714  1.0000
  H   H271      1.0  0.64822  0.95171  0.32125  1.0000
  S   S38       1.0  0.42073  0.94422  0.48374  1.0000
  C   C339      1.0  0.29961  0.57829  0.40536  1.0000
  C   C340      1.0  0.46857  0.94894  0.34794  1.0000
  H   H272      1.0  0.58077  0.85156  0.48008  1.0000
  C   C341      1.0  0.50107  0.94541  0.30404  1.0000
  C   C342      1.0  0.54953  0.82584  0.40588  1.0000
  H   H273      1.0  0.43146  0.04075  0.32422  1.0000
  P   P11       1.0  0.53051  0.89943  0.29331  1.0000
  S   S39       1.0  0.29235  0.83690  0.49369  1.0000
  Fe  Fe17      1.0  0.38396  0.77192  0.42115  1.0000
  C   C343      1.0  0.21915  0.92499  0.31032  1.0000
  H   H274      1.0  0.57569  0.95528  0.38715  1.0000
  H   H275      1.0  0.31106  0.59544  0.37076  1.0000
  S   S40       1.0  0.42999  0.73137  0.37311  1.0000
  C   C344      1.0  0.23796  0.55848  0.47912  1.0000
  H   H276      1.0  0.49280  0.67113  0.34300  1.0000
  H   H277      1.0  0.29645  0.02117  0.46947  1.0000
  H   H278      1.0  0.50868  0.60913  0.38526  1.0000
  C   C345      1.0  0.28977  0.94823  0.37368  1.0000
  H   H279      1.0  0.25788  0.73285  0.33112  1.0000
  C   C346      1.0  0.63613  0.61332  0.40951  1.0000
  C   C347      1.0  0.20636  0.87804  0.31930  1.0000
  H   H280      1.0  0.40572  0.63343  0.51196  1.0000
  C   C348      1.0  0.48459  0.01181  0.27531  1.0000
  C   C349      1.0  0.45837  0.61689  0.45150  1.0000
  C   C350      1.0  0.64450  0.60179  0.45682  1.0000
  C   C351      1.0  0.27265  0.68119  0.27676  1.0000
  H   H281      1.0  0.30007  0.89277  0.41003  1.0000
  H   H282      1.0  0.32168  0.97529  0.39520  1.0000
  C   C352      1.0  0.56788  0.91894  0.39188  1.0000
  S   S41       1.0  0.40460  0.80785  0.49889  1.0000
  H   H283      1.0  0.19680  0.93417  0.28249  1.0000
  C   C353      1.0  0.25322  0.58114  0.43484  1.0000
  H   H284      1.0  0.20083  0.55991  0.50018  1.0000
  C   C354      1.0  0.45171  0.01478  0.31884  1.0000
  H   H285      1.0  0.39912  0.64493  0.27311  1.0000
  H   H286      1.0  0.54252  0.78968  0.41114  1.0000
  C   C355      1.0  0.47416  0.66315  0.38008  1.0000
  H   H287      1.0  0.52011  0.80975  0.33064  1.0000
  C   C356      1.0  0.16246  0.66688  0.42598  1.0000
  H   H288      1.0  0.17508  0.62515  0.35942  1.0000
  H   H289      1.0  0.58838  0.75512  0.29966  1.0000
  H   H290      1.0  0.63823  0.83967  0.29325  1.0000
  H   H291      1.0  0.41081  0.57202  0.29317  1.0000
  H   H292      1.0  0.17918  0.73822  0.28602  1.0000
  H   H293      1.0  0.64773  0.60110  0.32926  1.0000
  Fe  Fe18      1.0  0.20196  0.04441  0.34082  1.0000
  C   C357      1.0  0.52240  0.00940  0.50627  1.0000
  C   C358      1.0  0.48637  0.96356  0.51080  1.0000
  Fe  Fe19      1.0  0.31177  0.77604  0.51559  1.0000
  H   H294      1.0  0.50977  0.03229  0.48553  1.0000
  C   C359      1.0  0.29056  0.03412  0.50807  1.0000
  C   C360      1.0  0.65375  0.59206  0.36602  1.0000
  C   C361      1.0  0.20121  0.71538  0.26973  1.0000
  H   H295      1.0  0.03719  0.28269  0.54277  1.0000
  C   C362      1.0  0.08327  0.51826  0.61630  1.0000
  C   C363      1.0  0.84909  0.26760  0.68812  1.0000
  C   C364      1.0  0.92283  0.39110  0.62506  1.0000
  C   C365      1.0  0.97485  0.13517  0.56457  1.0000
  C   C366      1.0  0.90169  0.29836  0.52075  1.0000
  Fe  Fe20      1.0  0.84186  0.12751  0.53880  1.0000
  C   C367      1.0  0.73591  0.54181  0.67642  1.0000
  C   C368      1.0  0.08440  0.49268  0.73645  1.0000
  C   C369      1.0  0.04009  0.25211  0.69293  1.0000
  C   C370      1.0  0.82335  0.51674  0.70802  1.0000
  H   H296      1.0  0.09206  0.26955  0.62598  1.0000
  C   C371      1.0  0.01297  0.13217  0.59831  1.0000
  C   C372      1.0  0.76859  0.48394  0.70483  1.0000
  C   C373      1.0  0.12907  0.46797  0.57117  1.0000
  C   C374      1.0  0.87602  0.29761  0.72897  1.0000
  H   H297      1.0  0.97478  0.38874  0.68388  1.0000
  C   C375      1.0  0.09151  0.26760  0.66619  1.0000
  H   H298      1.0  0.12507  0.43474  0.55052  1.0000
  H   H299      1.0  0.81672  0.07022  0.62309  1.0000
  H   H300      1.0  0.82211  0.27743  0.66528  1.0000
  P   P12       1.0  0.67907  0.55312  0.52240  1.0000
  H   H301      1.0  0.84312  0.46003  0.62951  1.0000
  C   C376      1.0  0.77824  0.53497  0.53498  1.0000
  H   H302      1.0  0.12231  0.36719  0.69053  1.0000
  H   H303      1.0  0.08246  0.21827  0.54374  1.0000
  H   H304      1.0  0.83755  0.23284  0.53352  1.0000
  H   H305      1.0  0.86985  0.33073  0.73818  1.0000
  H   H306      1.0  0.04887  0.46426  0.72119  1.0000
  H   H307      1.0  0.93435  0.36558  0.60013  1.0000
  C   C377      1.0  0.14084  0.27996  0.74358  1.0000
  C   C378      1.0  0.89258  0.21227  0.70543  1.0000
  C   C379      1.0  0.87109  0.44423  0.64243  1.0000
  C   C380      1.0  0.85749  0.22502  0.67639  1.0000
  H   H308      1.0  0.75941  0.44896  0.71572  1.0000
  H   H309      1.0  0.89968  0.17966  0.69492  1.0000
  H   H310      1.0  0.95069  0.44770  0.74167  1.0000
  C   C381      1.0  0.94592  0.40429  0.67248  1.0000
  H   H311      1.0  0.08754  0.11576  0.60688  1.0000
  C   C382      1.0  0.03857  0.25089  0.74549  1.0000
  C   C383      1.0  0.08023  0.47506  0.59163  1.0000
  S   S42       1.0  0.76437  0.14218  0.56830  1.0000
  C   C384      1.0  0.14189  0.28154  0.69151  1.0000
  H   H312      1.0  0.73596  0.07290  0.67912  1.0000
  H   H313      1.0  0.86929  0.40174  0.57221  1.0000
  C   C385      1.0  0.13854  0.49699  0.71812  1.0000
  C   C386      1.0  0.06642  0.10793  0.52891  1.0000
  C   C387      1.0  0.12044  0.38130  0.72916  1.0000
  H   H314      1.0  0.03172  0.36807  0.72934  1.0000
  C   C388      1.0  0.89317  0.45675  0.69087  1.0000
  H   H315      1.0  0.93151  0.29247  0.54376  1.0000
  H   H316      1.0  0.00175  0.24109  0.67224  1.0000
  C   C389      1.0  0.91990  0.24227  0.74639  1.0000
  H   H317      1.0  0.83768  0.20210  0.64423  1.0000
  C   C390      1.0  0.06933  0.38252  0.75081  1.0000
  H   H318      1.0  0.95816  0.54937  0.65789  1.0000
  H   H319      1.0  0.00693  0.14014  0.63827  1.0000
  H   H320      1.0  0.03178  0.09109  0.69572  1.0000
  C   C391      1.0  0.72502  0.49649  0.68908  1.0000
  C   C392      1.0  0.05843  0.11827  0.58057  1.0000
  H   H321      1.0  0.14432  0.47187  0.68865  1.0000
  C   C393      1.0  0.91174  0.28525  0.75770  1.0000
  C   C394      1.0  0.94209  0.54939  0.73869  1.0000
  S   S43       1.0  0.91693  0.15053  0.58807  1.0000
  Fe  Fe21      1.0  0.71697  0.06903  0.53827  1.0000
  H   H322      1.0  0.04514  0.52409  0.63054  1.0000
  C   C395      1.0  0.81140  0.50663  0.53062  1.0000
  C   C396      1.0  0.13533  0.55415  0.62174  1.0000
  P   P13       1.0  0.87708  0.50049  0.73327  1.0000
  C   C397      1.0  0.88590  0.41135  0.60970  1.0000
  C   C398      1.0  0.93189  0.43748  0.70504  1.0000
  H   H323      1.0  0.03971  0.44754  0.58669  1.0000
  H   H324      1.0  0.85392  0.52029  0.54410  1.0000
  C   C399      1.0  0.12287  0.22113  0.52565  1.0000
  H   H325      1.0  0.70162  0.55177  0.66637  1.0000
  H   H326      1.0  0.68251  0.47146  0.68793  1.0000
  H   H327      1.0  0.72199  0.45026  0.99137  1.0000
  C   C400      1.0  0.97086  0.25502  0.84340  1.0000
  C   C401      1.0  0.79250  0.26677  0.91706  1.0000
  C   C402      1.0  0.09003  0.28968  0.00186  1.0000
  C   C403      1.0  0.10659  0.29030  0.95076  1.0000
  C   C404      1.0  0.70957  0.47750  0.01186  1.0000
  C   C405      1.0  0.82516  0.35071  0.98004  1.0000
  C   C406      1.0  0.13738  0.33253  0.93096  1.0000
  Fe  Fe22      1.0  0.00515  0.54175  0.94825  1.0000
  C   C407      1.0  0.09243  0.14509  0.95322  1.0000
  H   H328      1.0  0.09592  0.25801  0.92650  1.0000
  H   H329      1.0  0.78006  0.43264  0.92088  1.0000
  H   H330      1.0  0.84215  0.07098  0.80739  1.0000
  C   C408      1.0  0.99640  0.16678  0.98319  1.0000
  C   C409      1.0  0.08948  0.26420  0.77051  1.0000
  C   C410      1.0  0.07908  0.15114  0.00471  1.0000
  H   H331      1.0  0.03458  0.51821  0.79213  1.0000
  H   H332      1.0  0.11356  0.43510  0.86655  1.0000
  H   H333      1.0  0.82473  0.53954  0.81863  1.0000
  C   C411      1.0  0.13498  0.37346  0.01329  1.0000
  H   H334      1.0  0.95880  0.17475  0.99459  1.0000
  H   H335      1.0  0.68952  0.32062  0.91481  1.0000
  H   H336      1.0  0.89407  0.07510  0.93143  1.0000
  S   S44       1.0  0.00332  0.40772  0.82369  1.0000
  S   S45       1.0  0.07636  0.51546  0.92717  1.0000
  C   C412      1.0  0.98491  0.10527  0.80416  1.0000
  C   C413      1.0  0.79778  0.44522  0.88495  1.0000
  C   C414      1.0  0.99787  0.15063  0.79086  1.0000
  C   C415      1.0  0.92555  0.25320  0.92685  1.0000
  H   H337      1.0  0.06813  0.25661  0.01669  1.0000
  C   C416      1.0  0.05819  0.15007  0.91711  1.0000
  H   H338      1.0  0.98304  0.16407  0.90402  1.0000
  C   C417      1.0  0.84434  0.43442  0.80498  1.0000
  H   H339      1.0  0.77875  0.50845  0.89797  1.0000
  C   C418      1.0  0.00755  0.31923  0.90728  1.0000
  H   H340      1.0  0.88815  0.37700  0.92192  1.0000
  Fe  Fe23      1.0  0.74183  0.14954  0.91736  1.0000
  C   C419      1.0  0.89607  0.06749  0.01052  1.0000
  Fe  Fe24      1.0  0.00897  0.44953  0.89843  1.0000
  C   C420      1.0  0.85351  0.34740  0.93384  1.0000
  S   S46       1.0  0.77347  0.21482  0.87699  1.0000
  H   H341      1.0  0.01807  0.09186  0.80957  1.0000
  C   C421      1.0  0.65871  0.37805  0.93038  1.0000
  C   C422      1.0  0.88570  0.09307  0.80261  1.0000
  H   H342      1.0  0.72957  0.23984  0.97497  1.0000
  C   C423      1.0  0.89834  0.13849  0.78932  1.0000
  P   P14       1.0  0.97163  0.22944  0.77936  1.0000
  C   C424      1.0  0.92915  0.07703  0.81127  1.0000
  Fe  Fe25      1.0  0.78401  0.09770  0.98681  1.0000
  C   C425      1.0  0.11537  0.41959  0.82846  1.0000
  Fe  Fe26      1.0  0.05659  0.48692  0.00295  1.0000
  S   S47       1.0  0.13498  0.11636  0.79558  1.0000
  C   C426      1.0  0.83657  0.30591  0.90205  1.0000
  H   H343      1.0  0.89108  0.23634  0.95235  1.0000
  C   C427      1.0  0.82390  0.50554  0.82719  1.0000
  H   H344      1.0  0.89463  0.20047  0.86672  1.0000
  Fe  Fe27      1.0  0.92942  0.45052  0.98928  1.0000
  C   C428      1.0  0.96541  0.29650  0.94161  1.0000
  H   H345      1.0  0.96244  0.31318  0.97894  1.0000
  H   H346      1.0  0.68437  0.52618  0.89396  1.0000
  C   C429      1.0  0.84784  0.47892  0.79322  1.0000
  S   S48       1.0  0.99570  0.41855  0.97218  1.0000
  H   H347      1.0  0.03775  0.35338  0.91784  1.0000
  C   C430      1.0  0.01005  0.16079  0.93202  1.0000
  S   S49       1.0  0.65650  0.09376  0.91133  1.0000
  C   C431      1.0  0.01026  0.29866  0.85846  1.0000
  C   C432      1.0  0.92786  0.23276  0.87784  1.0000
  C   C433      1.0  0.78006  0.31189  0.99464  1.0000
  H   H348      1.0  0.04172  0.17222  0.78731  1.0000
  H   H349      1.0  0.81801  0.38394  0.85978  1.0000
  H   H350      1.0  0.04204  0.31764  0.83220  1.0000
  H   H351      1.0  0.85998  0.41187  0.77940  1.0000
  C   C434      1.0  0.76426  0.26973  0.96351  1.0000
  S   S50       1.0  0.78789  0.09883  0.90317  1.0000
  C   C435      1.0  0.66068  0.48539  0.00027  1.0000
  C   C436      1.0  0.67144  0.38588  0.82664  1.0000
  S   S51       1.0  0.74284  0.15173  0.00123  1.0000
  C   C437      1.0  0.79824  0.48833  0.87248  1.0000
  H   H352      1.0  0.06940  0.14585  0.87758  1.0000
  H   H353      1.0  0.85860  0.30387  0.86622  1.0000
  H   H354      1.0  0.13015  0.13766  0.94093  1.0000
  S   S52       1.0  0.93950  0.47820  0.91386  1.0000
  C   C438      1.0  0.06706  0.40305  0.79977  1.0000
  C   C439      1.0  0.81985  0.41796  0.85078  1.0000
  H   H355      1.0  0.08972  0.26230  0.81070  1.0000
  C   C440      1.0  0.67876  0.34740  0.89897  1.0000
  H   H356      1.0  0.86416  0.15120  0.78531  1.0000
  C   C441      1.0  0.95463  0.16799  0.78452  1.0000
  H   H357      1.0  0.67587  0.38866  0.78638  1.0000
  H   H358      1.0  0.93337  0.30960  0.78835  1.0000
  H   H359      1.0  0.15023  0.33313  0.89139  1.0000
  H   H360      1.0  0.15494  0.23427  0.99409  1.0000
  C   C442      1.0  0.07646  0.52340  0.77611  1.0000
  Fe  Fe28      1.0  0.66057  0.09218  0.99466  1.0000
  C   C443      1.0  0.90799  0.05871  0.95921  1.0000
  C   C444      1.0  0.68496  0.35123  0.84710  1.0000
  H   H361      1.0  0.70048  0.32741  0.82286  1.0000
  C   C445      1.0  0.15110  0.37413  0.96219  1.0000
  S   S53       1.0  0.84677  0.40299  0.01978  1.0000
  H   H362      1.0  0.97837  0.45742  0.17555  1.0000
  C   C446      1.0  0.95802  0.30325  0.26147  1.0000
  C   C447      1.0  0.68176  0.55027  0.06552  1.0000
  H   H363      1.0  0.98266  0.26745  0.06169  1.0000
  H   H364      1.0  0.14793  0.40579  0.03729  1.0000
  H   H365      1.0  0.78165  0.49932  0.05881  1.0000
  C   C448      1.0  0.78010  0.22576  0.15138  1.0000
  C   C449      1.0  0.14584  0.09916  0.03271  1.0000
  H   H366      1.0  0.13709  0.17973  0.23599  1.0000
  H   H367      1.0  0.87065  0.32655  0.07116  1.0000
  C   C450      1.0  0.04209  0.27558  0.11946  1.0000
  H   H368      1.0  0.01975  0.16699  0.05880  1.0000
  C   C451      1.0  0.99185  0.25295  0.09388  1.0000
  C   C452      1.0  0.05097  0.25750  0.16298  1.0000
  C   C453      1.0  0.78093  0.06752  0.13275  1.0000
  S   S54       1.0  0.98913  0.51722  0.02601  1.0000
  S   S55       1.0  0.11663  0.48276  0.05831  1.0000
  H   H369      1.0  0.81929  0.05950  0.12862  1.0000
  H   H370      1.0  0.02004  0.20149  0.21135  1.0000
  C   C454      1.0  0.77863  0.27116  0.16225  1.0000
  H   H371      1.0  0.75782  0.31421  0.03025  1.0000
  C   C455      1.0  0.95324  0.21115  0.10946  1.0000
  H   H372      1.0  0.08711  0.27596  0.18568  1.0000
  C   C456      1.0  0.03064  0.16179  0.01948  1.0000
  C   C457      1.0  0.81198  0.30748  0.13402  1.0000
  C   C458      1.0  0.92943  0.33072  0.24607  1.0000
  C   C459      1.0  0.98893  0.41024  0.11326  1.0000
  C   C460      1.0  0.73272  0.12244  0.15847  1.0000
  C   C461      1.0  0.06496  0.39401  0.17332  1.0000
  H   H373      1.0  0.70648  0.51789  0.24220  1.0000
  H   H374      1.0  0.87025  0.24599  0.04872  1.0000
  C   C462      1.0  0.75824  0.18390  0.25099  1.0000
  H   H375      1.0  0.82093  0.13592  0.16931  1.0000
  C   C463      1.0  0.84612  0.25330  0.08148  1.0000
  C   C464      1.0  0.01239  0.21562  0.17828  1.0000
  C   C465      1.0  0.81344  0.21701  0.11006  1.0000
  H   H376      1.0  0.92883  0.33526  0.20642  1.0000
  S   S56       1.0  0.85878  0.10491  0.03198  1.0000
  H   H377      1.0  0.01483  0.53386  0.23547  1.0000
  P   P15       1.0  0.73503  0.17899  0.18743  1.0000
  C   C466      1.0  0.68218  0.08882  0.14131  1.0000
  H   H378      1.0  0.78061  0.33218  0.26692  1.0000
  H   H379      1.0  0.01886  0.09360  0.09261  1.0000
  C   C467      1.0  0.02647  0.10236  0.17259  1.0000
  C   C468      1.0  0.66628  0.18420  0.18894  1.0000
  C   C469      1.0  0.67671  0.53461  0.23597  1.0000
  P   P16       1.0  0.09008  0.33092  0.10085  1.0000
  C   C470      1.0  0.96379  0.19218  0.15128  1.0000
  H   H380      1.0  0.85973  0.12471  0.25580  1.0000
  C   C471      1.0  0.11131  0.16134  0.20446  1.0000
  H   H381      1.0  0.00980  0.36341  0.05658  1.0000
  C   C472      1.0  0.84604  0.29860  0.09389  1.0000
  H   H382      1.0  0.97937  0.28685  0.23335  1.0000
  H   H383      1.0  0.75059  0.27826  0.19172  1.0000
  C   C473      1.0  0.09834  0.14639  0.11399  1.0000
  C   C474      1.0  0.74385  0.50552  0.05027  1.0000
  P   P17       1.0  0.12839  0.15110  0.05023  1.0000
  H   H384      1.0  0.09370  0.38776  0.19731  1.0000
  H   H385      1.0  0.66338  0.18052  0.10766  1.0000
  H   H386      1.0  0.72491  0.10912  0.25800  1.0000
  H   H387      1.0  0.81308  0.18213  0.09835  1.0000
  H   H388      1.0  0.91561  0.19286  0.08846  1.0000
  H   H389      1.0  0.81026  0.34235  0.14204  1.0000
  C   C475      1.0  0.04528  0.11272  0.12335  1.0000
  C   C476      1.0  0.72996  0.54188  0.07707  1.0000
  C   C477      1.0  0.06003  0.12606  0.21302  1.0000
  C   C478      1.0  0.03716  0.42482  0.19176  1.0000
  C   C479      1.0  0.05626  0.37223  0.12408  1.0000
  H   H390      1.0  0.93430  0.15934  0.16269  1.0000
  H   H391      1.0  0.04650  0.11693  0.25100  1.0000
  H   H392      1.0  0.79529  0.25937  0.25836  1.0000
  H   H393      1.0  0.98655  0.07503  0.17953  1.0000
  H   H394      1.0  0.04563  0.44286  0.22917  1.0000
  C   C480      1.0  0.10399  0.33129  0.03356  1.0000
  C   C481      1.0  0.13027  0.17179  0.15533  1.0000
  C   C482      1.0  0.01739  0.38000  0.09447  1.0000
  C   C483      1.0  0.78176  0.11091  0.15537  1.0000
  H   H395      1.0  0.96009  0.41714  0.08971  1.0000
  C   C484      1.0  0.99923  0.43299  0.16168  1.0000
  H   H396      1.0  0.68497  0.25340  0.38632  1.0000
  S   S57       1.0  0.87748  0.49037  0.35525  1.0000
  C   C485      1.0  0.03111  0.27986  0.50266  1.0000
  H   H397      1.0  0.69547  0.54427  0.33652  1.0000
  C   C486      1.0  0.70495  0.31670  0.31384  1.0000
  C   C487      1.0  0.02861  0.11147  0.49511  1.0000
  C   C488      1.0  0.67136  0.33535  0.34714  1.0000
  C   C489      1.0  0.96819  0.12655  0.32445  1.0000
  C   C490      1.0  0.89827  0.13893  0.27635  1.0000
  H   H398      1.0  0.88796  0.38014  0.45154  1.0000
  H   H399      1.0  0.09041  0.20564  0.45092  1.0000
  H   H400      1.0  0.94210  0.21170  0.41368  1.0000
  S   S58       1.0  0.70528  0.08874  0.46210  1.0000
  H   H401      1.0  0.06597  0.36347  0.30702  1.0000
  Fe  Fe29      1.0  0.13741  0.08538  0.42313  1.0000
  C   C491      1.0  0.77161  0.39450  0.30459  1.0000
  H   H402      1.0  0.09626  0.23253  0.29557  1.0000
  C   C492      1.0  0.80022  0.23097  0.32668  1.0000
  H   H403      1.0  0.09715  0.34495  0.49096  1.0000
  H   H404      1.0  0.88827  0.55580  0.44289  1.0000
  H   H405      1.0  0.08294  0.33986  0.40022  1.0000
  H   H406      1.0  0.66235  0.39971  0.38207  1.0000
  H   H407      1.0  0.81635  0.43936  0.50381  1.0000
  C   C493      1.0  0.87683  0.34790  0.46921  1.0000
  C   C494      1.0  0.97717  0.24032  0.42958  1.0000
  C   C495      1.0  0.06527  0.31472  0.47332  1.0000
  C   C496      1.0  0.84825  0.26460  0.51511  1.0000
  C   C497      1.0  0.05618  0.31209  0.42186  1.0000
  C   C498      1.0  0.97350  0.20569  0.31381  1.0000
  H   H408      1.0  0.95973  0.21623  0.50393  1.0000
  Fe  Fe30      1.0  0.07483  0.51156  0.38947  1.0000
  C   C499      1.0  0.93388  0.32104  0.34864  1.0000
  H   H409      1.0  0.75110  0.45085  0.34593  1.0000
  C   C500      1.0  0.07301  0.29455  0.30302  1.0000
  H   H410      1.0  0.80992  0.41758  0.28780  1.0000
  H   H411      1.0  0.88364  0.37687  0.27037  1.0000
  H   H412      1.0  0.81934  0.26468  0.34720  1.0000
  H   H413      1.0  0.03396  0.10298  0.45532  1.0000
  H   H414      1.0  0.69159  0.27969  0.30253  1.0000
  S   S59       1.0  0.74493  0.22657  0.47463  1.0000
  C   C501      1.0  0.68837  0.38397  0.35841  1.0000
  Fe  Fe31      1.0  0.75926  0.16115  0.49050  1.0000
  H   H415      1.0  0.79248  0.31981  0.44115  1.0000
  Fe  Fe32      1.0  0.00168  0.44302  0.46205  1.0000
  S   S60       1.0  0.08311  0.50305  0.47064  1.0000
  S   S61       1.0  0.10438  0.11752  0.36680  1.0000
  H   H416      1.0  0.71916  0.40792  0.47283  1.0000
  Fe  Fe33      1.0  0.78668  0.07772  0.44021  1.0000
  Fe  Fe34      1.0  0.02750  0.54581  0.48862  1.0000
  C   C502      1.0  0.85813  0.54009  0.36737  1.0000
  C   C503      1.0  0.12721  0.21356  0.47327  1.0000
  H   H417      1.0  0.82417  0.53352  0.29398  1.0000
  C   C504      1.0  0.78981  0.19066  0.35097  1.0000
  C   C505      1.0  0.92443  0.18729  0.28566  1.0000
  C   C506      1.0  0.01237  0.27448  0.39938  1.0000
  S   S62       1.0  0.94656  0.48508  0.48428  1.0000
  H   H418      1.0  0.95449  0.12882  0.48666  1.0000
  C   C507      1.0  0.98721  0.24256  0.48075  1.0000
  C   C508      1.0  0.82287  0.31395  0.46358  1.0000
  P   P18       1.0  0.00417  0.26773  0.33188  1.0000
  Fe  Fe35      1.0  0.94918  0.49471  0.40224  1.0000
  H   H419      1.0  0.93637  0.31860  0.38849  1.0000
  S   S63       1.0  0.84030  0.15144  0.46302  1.0000
  C   C509      1.0  0.75503  0.34628  0.29294  1.0000
  H   H420      1.0  0.80178  0.19351  0.38959  1.0000
  C   C510      1.0  0.80916  0.27180  0.48571  1.0000
  C   C511      1.0  0.90356  0.35380  0.28195  1.0000
  C   C512      1.0  0.74674  0.14346  0.27626  1.0000
  C   C513      1.0  0.91677  0.33933  0.49658  1.0000
  H   H421      1.0  0.89910  0.07108  0.28992  1.0000
  C   C514      1.0  0.99528  0.17476  0.33285  1.0000
  C   C515      1.0  0.96082  0.29846  0.31289  1.0000
  S   S64       1.0  0.98603  0.37863  0.50069  1.0000
  S   S65       1.0  0.99827  0.44746  0.37936  1.0000
  C   C516      1.0  0.68797  0.54766  0.41703  1.0000
  H   H422      1.0  0.03170  0.18777  0.35632  1.0000
  C   C517      1.0  0.73546  0.44326  0.49050  1.0000
  H   H423      1.0  0.67388  0.17145  0.39353  1.0000
  C   C518      1.0  0.70205  0.47135  0.49513  1.0000
  C   C519      1.0  0.90488  0.34829  0.33304  1.0000
  C   C520      1.0  0.73839  0.41330  0.33741  1.0000
  H   H424      1.0  0.88501  0.36658  0.36070  1.0000
  C   C521      1.0  0.79019  0.46095  0.50807  1.0000
  S   S66       1.0  0.13877  0.52946  0.32531  1.0000
  C   C522      1.0  0.76324  0.14689  0.32580  1.0000
  H   H425      1.0  0.75505  0.11558  0.34491  1.0000
  H   H426      1.0  0.98379  0.10285  0.34091  1.0000
  H   H427      1.0  0.70961  0.52322  0.41837  1.0000
  C   C523      1.0  0.09238  0.34261  0.29658  1.0000
  C   C524      1.0  0.92018  0.10861  0.29574  1.0000
  C   C525      1.0  0.78555  0.22771  0.27657  1.0000
  C   C526      1.0  0.10935  0.26928  0.29050  1.0000
  H   H428      1.0  0.90512  0.20982  0.27206  1.0000
  C   C527      1.0  0.14726  0.36499  0.27878  1.0000
  C   C528      1.0  0.83243  0.55381  0.33009  1.0000
  H   H429      1.0  0.65985  0.45736  0.48092  1.0000
  C   C529      1.0  0.98327  0.12569  0.51289  1.0000
  S   S67       1.0  0.12515  0.09256  0.50753  1.0000
  H   H430      1.0  0.88928  0.05750  0.44478  1.0000
  C   C530      1.0  0.72335  0.51760  0.51692  1.0000
  H   H431      1.0  0.07230  0.68302  0.61987  1.0000
  C   C531      1.0  0.83223  0.01812  0.66192  1.0000
  S   S68       1.0  0.03472  0.59719  0.55656  1.0000
  C   C532      1.0  0.93876  0.80362  0.74951  1.0000
  H   H432      1.0  0.70669  0.66123  0.67768  1.0000
  C   C533      1.0  0.14746  0.82487  0.56247  1.0000
  H   H433      1.0  0.89526  0.03682  0.53160  1.0000
  S   S69       1.0  0.09526  0.89625  0.72730  1.0000
  C   C534      1.0  0.93566  0.63891  0.53328  1.0000
  C   C535      1.0  0.11182  0.78565  0.53488  1.0000
  C   C536      1.0  0.80368  0.04815  0.65393  1.0000
  H   H434      1.0  0.12347  0.94450  0.62513  1.0000
  H   H435      1.0  0.82095  0.71011  0.55365  1.0000
  C   C537      1.0  0.03573  0.80795  0.69073  1.0000
  H   H436      1.0  0.08638  0.65091  0.74716  1.0000
  H   H437      1.0  0.11954  0.00929  0.57846  1.0000
  H   H438      1.0  0.84980  0.83789  0.57043  1.0000
  C   C538      1.0  0.00714  0.88556  0.55708  1.0000
  C   C539      1.0  0.76741  0.68993  0.61925  1.0000
  H   H439      1.0  0.75557  0.87539  0.72905  1.0000
  C   C540      1.0  0.10869  0.67806  0.60006  1.0000
  C   C541      1.0  0.77865  0.81421  0.62153  1.0000
  C   C542      1.0  0.74127  0.02121  0.72528  1.0000
  H   H440      1.0  0.09386  0.75321  0.55248  1.0000
  P   P19       1.0  0.85719  0.95461  0.71520  1.0000
  C   C543      1.0  0.71141  0.60739  0.55998  1.0000
  H   H441      1.0  0.98950  0.77329  0.53098  1.0000
  H   H442      1.0  0.70548  0.02194  0.74946  1.0000
  H   H443      1.0  0.91761  0.73559  0.59494  1.0000
  C   C544      1.0  0.04631  0.96633  0.53798  1.0000
  C   C545      1.0  0.78515  0.68354  0.56928  1.0000
  C   C546      1.0  0.82642  0.90065  0.67700  1.0000
  C   C547      1.0  0.09057  0.93829  0.59861  1.0000
  H   H444      1.0  0.79004  0.72110  0.64279  1.0000
  C   C548      1.0  0.75750  0.64237  0.53975  1.0000
  C   C549      1.0  0.81729  0.99098  0.70331  1.0000
  C   C550      1.0  0.02531  0.60154  0.69797  1.0000
  C   C551      1.0  0.69572  0.91019  0.57695  1.0000
  H   H445      1.0  0.89094  0.91498  0.61742  1.0000
  C   C552      1.0  0.95531  0.03156  0.70015  1.0000
  C   C553      1.0  0.93134  0.98267  0.70007  1.0000
  H   H446      1.0  0.05249  0.95826  0.69059  1.0000
  H   H447      1.0  0.07320  0.80936  0.66815  1.0000
  H   H448      1.0  0.79869  0.61002  0.66972  1.0000
  C   C554      1.0  0.72056  0.65594  0.63908  1.0000
  H   H449      1.0  0.71430  0.79953  0.68084  1.0000
  H   H450      1.0  0.09388  0.04400  0.68834  1.0000
  H   H451      1.0  0.92974  0.05341  0.70620  1.0000
  C   C555      1.0  0.93902  0.76585  0.71526  1.0000
  C   C556      1.0  0.76989  0.99120  0.73339  1.0000
  H   H452      1.0  0.92172  0.60147  0.53469  1.0000
  C   C557      1.0  0.10189  0.63898  0.56553  1.0000
  H   H453      1.0  0.04935  0.61304  0.66399  1.0000
  H   H454      1.0  0.05029  0.86629  0.61294  1.0000
  H   H455      1.0  0.13746  0.58776  0.64050  1.0000
  C   C558      1.0  0.67168  0.86622  0.55128  1.0000
  C   C559      1.0  0.93354  0.71450  0.56709  1.0000
  C   C560      1.0  0.00646  0.92128  0.52869  1.0000
  C   C561      1.0  0.85236  0.89014  0.63157  1.0000
  C   C562      1.0  0.08830  0.97468  0.57262  1.0000
  H   H456      1.0  0.75461  0.96816  0.76295  1.0000
  C   C563      1.0  0.04919  0.89411  0.59178  1.0000
  H   H457      1.0  0.76045  0.78080  0.60006  1.0000
  C   C564      1.0  0.75241  0.82480  0.66650  1.0000
  C   C565      1.0  0.98769  0.76786  0.68634  1.0000
  C   C566      1.0  0.96713  0.95639  0.69547  1.0000
  C   C567      1.0  0.68229  0.91743  0.62797  1.0000
  C   C568      1.0  0.03528  0.84604  0.72421  1.0000
  H   H458      1.0  0.88408  0.64992  0.59756  1.0000
  C   C569      1.0  0.97425  0.73569  0.53090  1.0000
  H   H459      1.0  0.72393  0.93897  0.55715  1.0000
  C   C570      1.0  0.98707  0.84389  0.75401  1.0000
  H   H460      1.0  0.65672  0.57035  0.75359  1.0000
  H   H461      1.0  0.98840  0.73826  0.66078  1.0000
  H   H462      1.0  0.86655  0.01678  0.63613  1.0000
  C   C571      1.0  0.01357  0.05339  0.69463  1.0000
  H   H463      1.0  0.95059  0.91892  0.69696  1.0000
  C   C572      1.0  0.04611  0.62276  0.74479  1.0000
  S   S70       1.0  0.87860  0.71637  0.70688  1.0000
  H   H464      1.0  0.88325  0.88030  0.75622  1.0000
  C   C573      1.0  0.02533  0.97855  0.69118  1.0000
  C   C574      1.0  0.77607  0.86790  0.69400  1.0000
  C   C575      1.0  0.14881  0.63310  0.53948  1.0000
  C   C576      1.0  0.82882  0.84669  0.60442  1.0000
  H   H465      1.0  0.92810  0.97254  0.54388  1.0000
  C   C577      1.0  0.91453  0.66612  0.56857  1.0000
  H   H466      1.0  0.87555  0.58869  0.69807  1.0000
  C   C578      1.0  0.75844  0.04996  0.68577  1.0000
  C   C579      1.0  0.04863  0.02692  0.69045  1.0000
  C   C580      1.0  0.69189  0.61511  0.60938  1.0000
  H   H467      1.0  0.97654  0.85085  0.55176  1.0000
  H   H468      1.0  0.69990  0.95193  0.64716  1.0000
  H   H469      1.0  0.79581  0.57028  0.55221  1.0000
  C   C581      1.0  0.97351  0.56519  0.69477  1.0000
  C   C582      1.0  0.79047  0.57451  0.67860  1.0000
  S   S71       1.0  0.74544  0.74437  0.76529  1.0000
  C   C583      1.0  0.83415  0.56219  0.69470  1.0000
  S   S72       1.0  0.68738  0.68830  0.86428  1.0000
  Fe  Fe36      1.0  0.76031  0.66316  0.86147  1.0000
  H   H470      1.0  0.03827  0.81992  0.83726  1.0000
  H   H471      1.0  0.92059  0.04275  0.82317  1.0000
  S   S73       1.0  0.98733  0.96481  0.96188  1.0000
  H   H472      1.0  0.71120  0.96024  0.93950  1.0000
  H   H473      1.0  0.06659  0.75107  0.81209  1.0000
  H   H474      1.0  0.83408  0.97473  0.90150  1.0000
  H   H475      1.0  0.90634  0.55996  0.97561  1.0000
  C   C584      1.0  0.85485  0.93865  0.77897  1.0000
  C   C585      1.0  0.94126  0.61004  0.92084  1.0000
  H   H476      1.0  0.89196  0.86355  0.84282  1.0000
  H   H477      1.0  0.81067  0.56443  0.97500  1.0000
  Fe  Fe37      1.0  0.09434  0.94565  0.79517  1.0000
  H   H478      1.0  0.82521  0.99243  0.81617  1.0000
  H   H479      1.0  0.06915  0.69924  0.87651  1.0000
  C   C586      1.0  0.83984  0.96422  0.82062  1.0000
  S   S74       1.0  0.75373  0.81812  0.90440  1.0000
  C   C587      1.0  0.05521  0.75840  0.85109  1.0000
  Fe  Fe38      1.0  0.70255  0.04275  0.90451  1.0000
  C   C588      1.0  0.89784  0.58208  0.95071  1.0000
  S   S75       1.0  0.09484  0.92815  0.87421  1.0000
  H   H480      1.0  0.04245  0.71505  0.96492  1.0000
  C   C589      1.0  0.84561  0.95474  0.86951  1.0000
  C   C590      1.0  0.69748  0.89786  0.82549  1.0000
  S   S76       1.0  0.82551  0.73316  0.85121  1.0000
  H   H481      1.0  0.74069  0.89682  0.96145  1.0000
  H   H482      1.0  0.70266  0.80626  0.00573  1.0000
  H   H483      1.0  0.86944  0.91162  0.91550  1.0000
  C   C591      1.0  0.02311  0.80601  0.91537  1.0000
  C   C592      1.0  0.87286  0.90168  0.78740  1.0000
  S   S77       1.0  0.70172  0.03817  0.98799  1.0000
  C   C593      1.0  0.02223  0.77569  0.95159  1.0000
  Fe  Fe39      1.0  0.04929  0.97836  0.89622  1.0000
  Fe  Fe40      1.0  0.75211  0.75744  0.84944  1.0000
  H   H484      1.0  0.66283  0.58360  0.84918  1.0000
  H   H485      1.0  0.86665  0.66024  0.86065  1.0000
  H   H486      1.0  0.94970  0.02333  0.90451  1.0000
  S   S78       1.0  0.01001  0.61081  0.92524  1.0000
  H   H487      1.0  0.72185  0.67939  0.01256  1.0000
  Fe  Fe41      1.0  0.12279  0.04843  0.82626  1.0000
  P   P20       1.0  0.00550  0.78906  0.01685  1.0000
  H   H488      1.0  0.90115  0.80191  0.77201  1.0000
  C   C594      1.0  0.84381  0.58465  0.95047  1.0000
  C   C595      1.0  0.12271  0.55955  0.79649  1.0000
  C   C596      1.0  0.96321  0.57066  0.78579  1.0000
  S   S79       1.0  0.75426  0.64170  0.77884  1.0000
  Fe  Fe42      1.0  0.81338  0.71384  0.76837  1.0000
  H   H489      1.0  0.68511  0.89799  0.78763  1.0000
  C   C597      1.0  0.95526  0.00660  0.97968  1.0000
  C   C598      1.0  0.71174  0.93302  0.91108  1.0000
  C   C599      1.0  0.92973  0.63809  0.88828  1.0000
  H   H490      1.0  0.71609  0.83407  0.80953  1.0000
  H   H491      1.0  0.11575  0.58229  0.82812  1.0000
  C   C600      1.0  0.88069  0.83909  0.99302  1.0000
  H   H492      1.0  0.91136  0.78629  0.95769  1.0000
  S   S80       1.0  0.12850  0.03982  0.90728  1.0000
  C   C601      1.0  0.87820  0.89208  0.83641  1.0000
  H   H493      1.0  0.84858  0.83231  0.96559  1.0000
  C   C602      1.0  0.01506  0.60733  0.78859  1.0000
  S   S81       1.0  0.76522  0.61642  0.91864  1.0000
  C   C603      1.0  0.72831  0.89683  0.92353  1.0000
  C   C604      1.0  0.91684  0.81344  0.98838  1.0000
  C   C605      1.0  0.86543  0.91911  0.87747  1.0000
  H   H494      1.0  0.93845  0.68949  0.98821  1.0000
  C   C606      1.0  0.69664  0.93396  0.86209  1.0000
  H   H495      1.0  0.11762  0.65912  0.97909  1.0000
  H   H496      1.0  0.98685  0.87333  0.78008  1.0000
  H   H497      1.0  0.01211  0.83689  0.92571  1.0000
  C   C607      1.0  0.87530  0.63918  0.88657  1.0000
  H   H498      1.0  0.03172  0.62341  0.82476  1.0000
  S   S82       1.0  0.04038  0.98976  0.81606  1.0000
  C   C608      1.0  0.73023  0.86130  0.88695  1.0000
  C   C609      1.0  0.93954  0.02958  0.94397  1.0000
  C   C610      1.0  0.04062  0.73795  0.93743  1.0000
  H   H499      1.0  0.96234  0.65857  0.86371  1.0000
  C   C611      1.0  0.03881  0.79697  0.86521  1.0000
  C   C612      1.0  0.83262  0.61332  0.91851  1.0000
  C   C613      1.0  0.05679  0.72933  0.88734  1.0000
  C   C614      1.0  0.71474  0.86162  0.83781  1.0000
  S   S83       1.0  0.67840  0.98077  0.84606  1.0000
  Fe  Fe43      1.0  0.68652  0.67265  0.78039  1.0000
  H   H500      1.0  0.94048  0.55871  0.82037  1.0000
  H   H501      1.0  0.86619  0.76081  0.09810  1.0000
  H   H502      1.0  0.73825  0.59186  0.20047  1.0000
  C   C615      1.0  0.69573  0.96597  0.25222  1.0000
  H   H503      1.0  0.68724  0.86788  0.21423  1.0000
  H   H504      1.0  0.87430  0.99929  0.14475  1.0000
  S   S84       1.0  0.67920  0.65265  0.18117  1.0000
  C   C616      1.0  0.96991  0.73948  0.05226  1.0000
  H   H505      1.0  0.73087  0.00246  0.09377  1.0000
  H   H506      1.0  0.06128  0.05082  0.04579  1.0000
  C   C617      1.0  0.02422  0.66334  0.24812  1.0000
  H   H507      1.0  0.98758  0.78105  0.12325  1.0000
  H   H508      1.0  0.08859  0.75667  0.05538  1.0000
  C   C618      1.0  0.92590  0.88106  0.06934  1.0000
  H   H509      1.0  0.67148  0.57885  0.08608  1.0000
  C   C619      1.0  0.90840  0.66615  0.11068  1.0000
  C   C620      1.0  0.99929  0.90118  0.21140  1.0000
  H   H510      1.0  0.02724  0.69923  0.25370  1.0000
  H   H511      1.0  0.03146  0.62748  0.03193  1.0000
  C   C621      1.0  0.71436  0.73917  0.05912  1.0000
  C   C622      1.0  0.10556  0.79446  0.05745  1.0000
  C   C623      1.0  0.01681  0.56985  0.23816  1.0000
  H   H512      1.0  0.81859  0.81459  0.13235  1.0000
  H   H513      1.0  0.81674  0.97666  0.06788  1.0000
  C   C624      1.0  0.01776  0.94800  0.23119  1.0000
  C   C625      1.0  0.12950  0.75264  0.19542  1.0000
  C   C626      1.0  0.08157  0.76327  0.18729  1.0000
  S   S85       1.0  0.81841  0.69546  0.25266  1.0000
  H   H514      1.0  0.95528  0.99785  0.05853  1.0000
  C   C627      1.0  0.08481  0.80984  0.18853  1.0000
  H   H515      1.0  0.08615  0.98050  0.03000  1.0000
  C   C628      1.0  0.73121  0.03534  0.11324  1.0000
  C   C629      1.0  0.94586  0.87099  0.22541  1.0000
  H   H516      1.0  0.04177  0.73567  0.18022  1.0000
  H   H517      1.0  0.73421  0.97358  0.17830  1.0000
  H   H518      1.0  0.09374  0.59240  0.19406  1.0000
  C   C630      1.0  0.07132  0.64618  0.04950  1.0000
  Fe  Fe44      1.0  0.73503  0.70103  0.23949  1.0000
  H   H519      1.0  0.75669  0.56388  0.10653  1.0000
  P   P21       1.0  0.12643  0.69269  0.19183  1.0000
  H   H520      1.0  0.02699  0.88814  0.18681  1.0000
  C   C631      1.0  0.06172  0.60328  0.21507  1.0000
  P   P22       1.0  0.70617  0.81856  0.11673  1.0000
  C   C632      1.0  0.76769  0.90855  0.09021  1.0000
  C   C633      1.0  0.91054  0.88784  0.25790  1.0000
  H   H521      1.0  0.12924  0.95192  0.16975  1.0000
  H   H522      1.0  0.78538  0.86562  0.19790  1.0000
  C   C634      1.0  0.12550  0.67655  0.12505  1.0000
  H   H523      1.0  0.09956  0.01693  0.15020  1.0000
  C   C635      1.0  0.93992  0.69538  0.02883  1.0000
  C   C636      1.0  0.66584  0.81389  0.02073  1.0000
  C   C637      1.0  0.65638  0.82087  0.07291  1.0000
  H   H524      1.0  0.88599  0.62492  0.04062  1.0000
  C   C638      1.0  0.97522  0.58300  0.26568  1.0000
  C   C639      1.0  0.83235  0.93394  0.17611  1.0000
  H   H525      1.0  0.03519  0.63944  0.12401  1.0000
  C   C640      1.0  0.93711  0.71020  0.13404  1.0000
  H   H526      1.0  0.74386  0.89942  0.05624  1.0000
  H   H527      1.0  0.92861  0.90667  0.10116  1.0000
  H   H528      1.0  0.99230  0.86117  0.09372  1.0000
  C   C641      1.0  0.74155  0.77829  0.09225  1.0000
  H   H529      1.0  0.13882  0.88189  0.19613  1.0000
  S   S86       1.0  0.76693  0.77848  0.23741  1.0000
  C   C642      1.0  0.90975  0.65880  0.05822  1.0000
  H   H530      1.0  0.88390  0.63804  0.13314  1.0000
  H   H531      1.0  0.67157  0.73202  0.04853  1.0000
  C   C643      1.0  0.79119  0.88963  0.16952  1.0000
  C   C644      1.0  0.96769  0.74661  0.10492  1.0000
  C   C645      1.0  0.96236  0.85556  0.06467  1.0000
  H   H532      1.0  0.93423  0.71656  0.17466  1.0000
  C   C646      1.0  0.11858  0.01453  0.02770  1.0000
  C   C647      1.0  0.75833  0.87648  0.12652  1.0000
  C   C648      1.0  0.82400  0.75484  0.08677  1.0000
  C   C649      1.0  0.13642  0.84595  0.19502  1.0000
  H   H533      1.0  0.04721  0.81799  0.18512  1.0000
  C   C650      1.0  0.91568  0.04727  0.04618  1.0000
  C   C651      1.0  0.69466  0.57638  0.21253  1.0000
  C   C652      1.0  0.69536  0.95972  0.19981  1.0000
  C   C653      1.0  0.94304  0.01541  0.03079  1.0000
  C   C654      1.0  0.79653  0.78552  0.10626  1.0000
  C   C655      1.0  0.07389  0.65258  0.10190  1.0000
  H   H534      1.0  0.05934  0.97130  0.22196  1.0000
  C   C656      1.0  0.80933  0.95268  0.09669  1.0000
  H   H535      1.0  0.85735  0.94379  0.20941  1.0000
  C   C657      1.0  0.84172  0.96534  0.13964  1.0000
  C   C658      1.0  0.65641  0.59872  0.20606  1.0000
  H   H536      1.0  0.81870  0.69336  0.03706  1.0000
  C   C659      1.0  0.06595  0.65042  0.22010  1.0000
  Fe  Fe45      1.0  0.84948  0.77355  0.25454  1.0000
  S   S87       1.0  0.92667  0.81112  0.20864  1.0000
  C   C660      1.0  0.74241  0.70898  0.03896  1.0000
  C   C661      1.0  0.07375  0.81994  0.04270  1.0000
  C   C662      1.0  0.66817  0.79895  0.17470  1.0000
  C   C663      1.0  0.79723  0.71686  0.05274  1.0000
  C   C664      1.0  0.98208  0.96485  0.26313  1.0000
  C   C665      1.0  0.66620  0.83087  0.21600  1.0000
  C   C666      1.0  0.09814  0.86871  0.04315  1.0000
  C   C667      1.0  0.68162  0.04544  0.11885  1.0000
  H   H537      1.0  0.07560  0.88881  0.02922  1.0000
  C   C668      1.0  0.14387  0.02130  0.14976  1.0000
  C   C669      1.0  0.95967  0.82300  0.02288  1.0000
  H   H538      1.0  0.85863  0.89388  0.03552  1.0000
  C   C670      1.0  0.88587  0.87343  0.03292  1.0000
  C   C671      1.0  0.15285  0.89168  0.06002  1.0000
  C   C672      1.0  0.10459  0.05483  0.03678  1.0000
  H   H539      1.0  0.90816  0.05522  0.08577  1.0000
  C   C673      1.0  0.11988  0.66445  0.01970  1.0000
  C   C674      1.0  0.71987  0.91366  0.40705  1.0000
  H   H540      1.0  0.08668  0.92726  0.45874  1.0000
  C   C675      1.0  0.09946  0.78820  0.48507  1.0000
  H   H541      1.0  0.72720  0.98380  0.43499  1.0000
  Fe  Fe46      1.0  0.79604  0.70520  0.33491  1.0000
  S   S88       1.0  0.70996  0.70447  0.32138  1.0000
  C   C676      1.0  0.10600  0.64892  0.35271  1.0000
  S   S89       1.0  0.83516  0.78341  0.33828  1.0000
  H   H542      1.0  0.99291  0.63835  0.47044  1.0000
  P   P23       1.0  0.05117  0.73697  0.45130  1.0000
  H   H543      1.0  0.94659  0.63976  0.29243  1.0000
  C   C677      1.0  0.90179  0.85682  0.47511  1.0000
  H   H544      1.0  0.93677  0.86504  0.37173  1.0000
  S   S90       1.0  0.80274  0.04331  0.36517  1.0000
  C   C678      1.0  0.98196  0.87646  0.37521  1.0000
  C   C679      1.0  0.05612  0.77082  0.35841  1.0000
  C   C680      1.0  0.79390  0.95411  0.32915  1.0000
  H   H545      1.0  0.95534  0.95287  0.38282  1.0000
  Fe  Fe47      1.0  0.08779  0.04958  0.31985  1.0000
  S   S91       1.0  0.11618  0.01591  0.37836  1.0000
  C   C681      1.0  0.97865  0.62966  0.27041  1.0000
  H   H546      1.0  0.14375  0.91762  0.38512  1.0000
  C   C682      1.0  0.15050  0.64531  0.37750  1.0000
  C   C683      1.0  0.77780  0.98253  0.36715  1.0000
  H   H547      1.0  0.82197  0.96987  0.29868  1.0000
  H   H548      1.0  0.86976  0.86450  0.26960  1.0000
  C   C684      1.0  0.96249  0.73245  0.39256  1.0000
  H   H549      1.0  0.03835  0.67520  0.35699  1.0000
  H   H550      1.0  0.86442  0.73877  0.47295  1.0000
  H   H551      1.0  0.77243  0.63751  0.50129  1.0000
  Fe  Fe48      1.0  0.74966  0.78199  0.32096  1.0000
  C   C685      1.0  0.80030  0.81878  0.47069  1.0000
  H   H552      1.0  0.95792  0.75931  0.27318  1.0000
  C   C686      1.0  0.80619  0.77532  0.47158  1.0000
  C   C687      1.0  0.82741  0.61977  0.38629  1.0000
  S   S92       1.0  0.70801  0.82451  0.37171  1.0000
  C   C688      1.0  0.85972  0.77251  0.47370  1.0000
  H   H553      1.0  0.06144  0.79161  0.28409  1.0000
  C   C689      1.0  0.03352  0.77508  0.31403  1.0000
  C   C690      1.0  0.07365  0.88676  0.33601  1.0000
  C   C691      1.0  0.12397  0.83077  0.46340  1.0000
  C   C692      1.0  0.00702  0.89774  0.42085  1.0000
  C   C693      1.0  0.74071  0.96223  0.40606  1.0000
  C   C694      1.0  0.97635  0.65999  0.49688  1.0000
  C   C695      1.0  0.92206  0.00617  0.40900  1.0000
  H   H554      1.0  0.90138  0.94778  0.30178  1.0000
  C   C696      1.0  0.13248  0.69456  0.44885  1.0000
  C   C697      1.0  0.09865  0.90589  0.38195  1.0000
  H   H555      1.0  0.93413  0.71370  0.42136  1.0000
  C   C698      1.0  0.77314  0.90535  0.33028  1.0000
  C   C699      1.0  0.06560  0.91134  0.42423  1.0000
  C   C700      1.0  0.94217  0.97043  0.41579  1.0000
  H   H556      1.0  0.04711  0.99447  0.51628  1.0000
  C   C701      1.0  0.97551  0.75722  0.30820  1.0000
  C   C702      1.0  0.08847  0.69930  0.42373  1.0000
  H   H557      1.0  0.68187  0.86053  0.51162  1.0000
  H   H558      1.0  0.69100  0.89813  0.43701  1.0000
  C   C703      1.0  0.92849  0.93489  0.27631  1.0000
  C   C704      1.0  0.94459  0.95788  0.46443  1.0000
  C   C705      1.0  0.85207  0.60550  0.42373  1.0000
  C   C706      1.0  0.90735  0.81289  0.47430  1.0000
  C   C707      1.0  0.94022  0.73559  0.34728  1.0000
  C   C708      1.0  0.07404  0.67462  0.37621  1.0000
  C   C709      1.0  0.99646  0.70860  0.49593  1.0000
  C   C710      1.0  0.90459  0.02973  0.45055  1.0000
  H   H559      1.0  0.84206  0.89254  0.47049  1.0000
  S   S93       1.0  0.00320  0.02369  0.28526  1.0000
  H   H560      1.0  0.91958  0.01545  0.37143  1.0000
  S   S94       1.0  0.80751  0.66898  0.40024  1.0000
  H   H561      1.0  0.79849  0.60490  0.31032  1.0000
  H   H562      1.0  0.89561  0.72014  0.34195  1.0000
  H   H563      1.0  0.09899  0.88323  0.30275  1.0000
  C   C711      1.0  0.81819  0.59428  0.33916  1.0000
  H   H564      1.0  0.75897  0.82082  0.46702  1.0000
  H   H565      1.0  0.10128  0.78112  0.36014  1.0000
  C   C712      1.0  0.73602  0.88516  0.36935  1.0000
  H   H566      1.0  0.99593  0.85445  0.29825  1.0000
  C   C713      1.0  0.02086  0.75057  0.39868  1.0000
  C   C714      1.0  0.90745  0.01778  0.49914  1.0000
  H   H567      1.0  0.09547  0.63043  0.31598  1.0000
  H   H568      1.0  0.94858  0.80973  0.47271  1.0000
  H   H569      1.0  0.14390  0.71219  0.48585  1.0000
  C   C715      1.0  0.01535  0.87127  0.33307  1.0000
  H   H570      1.0  0.78517  0.88337  0.30078  1.0000
  H   H571      1.0  0.76953  0.74363  0.46862  1.0000
  P   P24       1.0  0.96402  0.90837  0.47371  1.0000
  C   C716      1.0  0.84784  0.85948  0.47246  1.0000
  H   H572      1.0  0.73447  0.98589  0.27089  1.0000
  H   H573      1.0  0.11613  0.83429  0.42534  1.0000
  H   H574      1.0  0.85880  0.62512  0.46016  1.0000
  C   C717      1.0  0.68023  0.55977  0.36997  1.0000
  S   S95       1.0  0.02501  0.55925  0.40822  1.0000
  C   C718      1.0  0.86848  0.56627  0.41403  1.0000
  C   C719      1.0  0.92690  0.98174  0.50607  1.0000
  S   S96       1.0  0.79429  0.05274  0.51420  1.0000
  H   H575      1.0  0.14322  0.60318  0.51256  1.0000
  C   C720      1.0  0.66926  0.56800  0.46095  1.0000
  H   H576      1.0  0.94078  0.55707  0.28388  1.0000
