data_image0
_chemical_formula_structural       SHC2S2FeCFeSC2SFeSFeS2H2SHFeC6H4CHSC2H3C2H2CH4CH2CH2C2HCHCHCHCSHSCHC6HC5H2CHCPHCH4CHC2H2C3FeCFeSHCH3C3HC2HCH4CHC2HC4H2CH2PCHCHC2HC5FeHCHC5PC18H18SC2HCFeCHCHC3HCHCHC2HC5S2CSCHCSHCH2SC2FeS2FeH3FeCSHCSCH3C2HCH2C5H4CHC4HCHC3HCHCHSC2H4C3PC2HCFeHCHC6SC3HSC2SCH3C2HC3HCH2FeSC2PH3C2HCH2C4HC2PC2FeC4FeCSC6HC2HSHCH12C2HC4PHC2H2C4H3CH4C2HCHC5H4CH4SCHC2SC4HCH4CH2C3FeHCHC2H2C2PC3FeH2CHCFeHC6H2CH3CH3CFeCSCHCHFeS2FeS2FeSFeHS2FeS2H2CHS2FeSCH2CHFeHC4H2C4HCH2C2H2C2HC3HCHCHCFeC7H5C2HSH2SH4CSC2HC3HC2HC4HSCH4CH4C4HC6PC8HCSC7H2CH2C2H2C3H6CPC3HC2H6C6PC18H16CH2C3H3PH2C10H3CH3CHC2HFeH3C7HSCH3CH3C3HCHC3HC2HC4H2CHC3HCH2CHCSC3HCHC2HC2HCH2C5HPCHC3H2PHSHC2FeSH3S3CFeS2FeS2FeSFeS3CHC6H4C2H2C2HCH2C2H2SHC5H3PC6H4C2PC17H12C6SH6CHC3HCFeHC3H7CHFeC2HC10HCHC2H2CHC2HC5H3C2HSC3H4CH2CH3CHCH2C2H3CHC2PC3HC2HSHCH2C4HCHCHCSCHCHCHC2HC2H2CH2C2HCHC2HC8HCHCH4CPC2HCH3CFePCH5C2H5SHC2SHSFeCSFeC3H2SCH2CSPHFeC2S2FeSCFeSFeSFeSCSHPC3H2C7H3C3HC3H4PFeCH2C3HCHCHC11SHC6H6C2HFeH2CHCHC7H3C2HC3H2C14PC18H21CHCHCPC4HFeC4HC7HC2H2C2HCSH3CH5CHCHPC3SCH3CFeHC4HC2SCH3CH2CHC2H4C2H6CH2CFeH4SHC2HCSCHSC2H2CHCH4CH3CH2SH3C4SC4H2SCHCH2CSHFeHSFeS2H2CS2HCFeCSFeS2Fe2HS2HCFeCHS2C2SCHFeSC4H3C2HC6HCHC3HC2HSHCPC2H4CHSC7H3CH3C4HC7SH3C7H3C4H2CHSHCH3C3FeHCHCH5CH2C2HC2HC2H2C4H2CH2C5HC2HC5H3CHCFeCH2SHFeH3C2H2C5H2C2SHC2HC2HPH3CHCH2CH5CHC5HCH2C4H2CSH2CH2CHC3HCHC2H3C2FeCHC2HCHC2PCSH2CSH2C4HC2HSC2H2C2H4CH2C7HCH6CHCHFeC5PC3HCH4C3HC2HC2H3C2H3SFeSFeS2FeS2FeSFeS3C2HC3HC2H2C2HCH2C6H5C2HCHCH2C2HC2HC2H3C3H4C3HCFeHCHC5HSCHPH5CHC5H2C4HSCH2CSH2C2H4C5H2SH2CHC3H2CHC3HCH2C2HC4HCH2C3HC4SCH2C2HPCHCH2CSFeS2FeS2FeSFeS2C3H2CHC4H3C6H4SC2HC3H3CHC2H2CHC4HC2H2C2H5C3H2CH8CHC7H3C4H2CHC2HPCHC2HC3HC3HCH2CH2C8HPHC2PC2HCHCHCH3C5H2CH2CSHCHSHC4HCHCH2CPC2HCH2CH3CHCH3CHCSFeSCFeS2Fe2S3C7H4C6HCH3C5HCHC2HCSH4CH3C3HC2HCH2PC4H2PH2CHCHC3H4C5FeHCPHC4HPC2H3CHC2H2C2H2C2H2C2HC4H3C2H2C2HCH2C2H2C2HC2H2SHC3H2C6HCHC6H2C3H2C2PH2C3H3C2H3C2H2CHCHC4S2H5CH3CSCHCSCFeS2HFeSHSFeSC6H4C2H2C2HCSHC7H4C6H4CH2CHC4HC4HCH4C5H5CHC4HCHCHCH2C2HCPHCPC2HCSH2CH2CH2CHC2H3C2HCHC3H2CH2C4SCSC6HC2SHCHC2H5PH3C3HC2HC2H2C2H4FeSCFeS2FeHFeS3HSFeS2FeS2FeSFeS3C2HFeS2FeSC2S2C2H2C2H2C6H4C6H4C6H5C6H4C2HC2H2CH3CHC2PC11HC3H4C4HCHCHC6PC2H2C7HC3HC2H5CHCH4CH2C3HCHC3HC2HC9HCH6CHC4HPHC5H5CH2CHCH4CHPHC2H2CHC2H4PC9HC6H4CSFeHC2HC2H2CHCH2CHCHCHCHC2HC3HCHC4HC2H3C2H2CHCHPCH2CH2CH4C2H2C2H3C2H2CH2C2H2CHC3FeCHC2H2C2HPHCHC2FeS2FeS2FeSFeS3FeS2FeSHFeSHS2FeSCFeS2FeCFeS3H2C6H4CHC7H4C3H2C6H3CHCH3C2HC3H4C6HC3H3CHPCH2CH2CHC3HC2HPH4C2HSHCHC5HC4HCHCHC2HCHC2HCHCH3CHC7PC8SC9FeH4C2H4CH6CHPCHPC8H2C3HC2HC2H6CHCH3C2H3C3H2C2HC5HC2H7C4H2CPCH4CHC2HC2H2C2H2C2HCH4CH5C2HCPH2C2S2CSFe2S2FeSFeS2HC2FeS2FeS2FeSFeS3C6H4C6FeH3C6H4C2H2C2H2CHC7H3CHC4H3SHC6HCHCHCH2C2H2CHC6PC8H3C2H5CH3CH6C3H4SC7PC3H2C13H12C2H9CH3C2HCHCHCHC3HSH4C2HC3H2CSCH3C2HPH2C6H4CH3C3HC2HCHCHPH2CHC5H2CH2S2HCFeS2FeS2FeCFeS2CFeSFeCSC3H5C6H4SHCHC4HCH2SCHC3HCHCHC7H2C3SC5HCH7CFeH2FeCH2C2H2C3HC2HCH2CPHCH2CH5C2FeC6PC3HC11H2CH5SCH4CHCH6CHCSC3HCHCHPH3CHCH3CHC2H2CH2C3H2SC2HC2FeCHCHC3SC5H3C2HPH2C3H2CFeSCFeS2FeHFeS2CFeS4CSHCHPCH7C7H4CH2CHC2H3C3SH5CHCH3CH2CSH5C4H6CHC3HC6PC15H2CH2SCH7CH2C2HSC5H6C5H2C2SHCH2C2HFeCH2C3SC6H2C2HSHC2HC2HFeH4SHPHC2HC2HC4HFeS2FeS2FeSFeS3HSC2SHCFeS2FeS2FeS2Fe2S2C6H3C3HC2H2CHC2SH2C6H3C2H4C6H4CSCH3C5HCH2CHC6PC4H2CHC2H2C6H2CH4C2HC2H2CH5CHFePCH2CHC8H5C3HC6PC12HC4H5CHCH5FeH2CHC3HCHC2FeH2CHSC2H2CHC2FeC2HC2HPC9HCHCHCSC3H8C2HCHCHC2H2C2HC4HCH3CHCHFeC2H3C4H3C3H2CH3C2HCHC3H3CSH7
_chemical_formula_sum              "S288 H1728 C2160 Fe144 P72"
_cell_length_a       58.9885
_cell_length_b       58.9931
_cell_length_c       34.1487
_cell_angle_alpha    90.6912
_cell_angle_beta     90.1177
_cell_angle_gamma    117.354

_space_group_name_H-M_alt    "P 1"
_space_group_IT_number       1

loop_
  _space_group_symop_operation_xyz
  'x, y, z'

loop_
  _atom_site_type_symbol
  _atom_site_label
  _atom_site_symmetry_multiplicity
  _atom_site_fract_x
  _atom_site_fract_y
  _atom_site_fract_z
  _atom_site_occupancy
  S   S1        1.0  0.17871  0.21822  0.41448  1.0000
  H   H1        1.0  0.08735  0.18668  0.01910  1.0000
  C   C1        1.0  0.02513  0.38712  0.07278  1.0000
  C   C2        1.0  0.19035  0.15531  0.39352  1.0000
  S   S2        1.0  0.18555  0.27672  0.42161  1.0000
  S   S3        1.0  0.18977  0.19472  0.06127  1.0000
  Fe  Fe1       1.0  0.20237  0.22937  0.02352  1.0000
  C   C3        1.0  0.14500  0.45493  0.04903  1.0000
  Fe  Fe2       1.0  0.15113  0.46274  0.18717  1.0000
  S   S4        1.0  0.13261  0.42740  0.22364  1.0000
  C   C4        1.0  0.20962  0.40290  0.24812  1.0000
  C   C5        1.0  0.02616  0.31709  0.40892  1.0000
  S   S5        1.0  0.08115  0.43485  0.22408  1.0000
  Fe  Fe3       1.0  0.11692  0.44911  0.26092  1.0000
  S   S6        1.0  0.12114  0.45062  0.32868  1.0000
  Fe  Fe4       1.0  0.09830  0.41626  0.18351  1.0000
  S   S7        1.0  0.07400  0.37500  0.16053  1.0000
  S   S8        1.0  0.11756  0.45069  0.14552  1.0000
  H   H2        1.0  0.15580  0.17213  0.98039  1.0000
  H   H3        1.0  0.99022  0.30532  0.09303  1.0000
  S   S9        1.0  0.01548  0.24385  0.00454  1.0000
  H   H4        1.0  0.19222  0.43317  0.16001  1.0000
  Fe  Fe5       1.0  0.16699  0.24079  0.45685  1.0000
  C   C6        1.0  0.06726  0.36049  0.11257  1.0000
  C   C7        1.0  0.05308  0.33370  0.10903  1.0000
  C   C8        1.0  0.04687  0.32125  0.07194  1.0000
  C   C9        1.0  0.05442  0.33545  0.03756  1.0000
  C   C10       1.0  0.06842  0.36223  0.04107  1.0000
  C   C11       1.0  0.07503  0.37467  0.07816  1.0000
  H   H5        1.0  0.04695  0.32244  0.13527  1.0000
  H   H6        1.0  0.03608  0.30068  0.07001  1.0000
  H   H7        1.0  0.07424  0.37341  0.01481  1.0000
  H   H8        1.0  0.08581  0.39524  0.08012  1.0000
  C   C12       1.0  0.99200  0.47612  0.04660  1.0000
  H   H9        1.0  0.20442  0.15420  0.41275  1.0000
  S   S10       1.0  0.04610  0.32102  0.98963  1.0000
  C   C13       1.0  0.10860  0.45805  0.37222  1.0000
  C   C14       1.0  0.08605  0.40459  0.46047  1.0000
  H   H10       1.0  0.08670  0.40287  0.29071  1.0000
  H   H11       1.0  0.03053  0.28372  0.42345  1.0000
  H   H12       1.0  0.21539  0.98481  0.12247  1.0000
  C   C15       1.0  0.04399  0.38367  0.42992  1.0000
  C   C16       1.0  0.10436  0.44686  0.01948  1.0000
  H   H13       1.0  0.20483  0.33277  0.08153  1.0000
  H   H14       1.0  0.21077  0.40584  0.06195  1.0000
  C   C17       1.0  0.12727  0.21312  0.01183  1.0000
  H   H15       1.0  0.12525  0.47338  0.46916  1.0000
  H   H16       1.0  0.13410  0.20073  0.02477  1.0000
  H   H17       1.0  0.07279  0.45623  0.10429  1.0000
  H   H18       1.0  0.01500  0.39039  0.45925  1.0000
  C   C18       1.0  0.99132  0.43646  0.06724  1.0000
  H   H19       1.0  0.18662  0.35924  0.11173  1.0000
  H   H20       1.0  0.06727  0.36585  0.24494  1.0000
  C   C19       1.0  0.16461  0.13772  0.39696  1.0000
  H   H21       1.0  0.07691  0.37966  0.41029  1.0000
  H   H22       1.0  0.05810  0.46504  0.40833  1.0000
  C   C20       1.0  0.99309  0.32212  0.44420  1.0000
  C   C21       1.0  0.97672  0.28690  0.03697  1.0000
  H   H23       1.0  0.14085  0.46272  0.40747  1.0000
  C   C22       1.0  0.97047  0.43647  0.28415  1.0000
  H   H24       1.0  0.04777  0.42498  0.15398  1.0000
  C   C23       1.0  0.07624  0.46464  0.40828  1.0000
  H   H25       1.0  0.01809  0.38042  0.13452  1.0000
  C   C24       1.0  0.18779  0.31053  0.28420  1.0000
  H   H26       1.0  0.08224  0.27471  0.46620  1.0000
  C   C25       1.0  0.01253  0.33095  0.41616  1.0000
  S   S11       1.0  0.19647  0.14392  0.99070  1.0000
  H   H27       1.0  0.09404  0.07406  0.99502  1.0000
  S   S12       1.0  0.19902  0.25978  0.31469  1.0000
  C   C26       1.0  0.99983  0.39334  0.38136  1.0000
  H   H28       1.0  0.00068  0.42574  0.28916  1.0000
  C   C27       1.0  0.13624  0.12406  0.03049  1.0000
  C   C28       1.0  0.14475  0.12872  0.06937  1.0000
  C   C29       1.0  0.13503  0.14049  0.09533  1.0000
  C   C30       1.0  0.11695  0.14783  0.08227  1.0000
  C   C31       1.0  0.10838  0.14317  0.04334  1.0000
  C   C32       1.0  0.05867  0.38519  0.33561  1.0000
  H   H29       1.0  0.98652  0.41665  0.06129  1.0000
  C   C33       1.0  0.20409  0.32813  0.25727  1.0000
  C   C34       1.0  0.00864  0.47334  0.11069  1.0000
  C   C35       1.0  0.19781  0.17480  0.36616  1.0000
  C   C36       1.0  0.00231  0.44778  0.10318  1.0000
  C   C37       1.0  0.20977  0.36785  0.16403  1.0000
  H   H30       1.0  0.16008  0.46507  0.07039  1.0000
  H   H31       1.0  0.15883  0.12320  0.41922  1.0000
  C   C38       1.0  0.13553  0.25323  0.98261  1.0000
  H   H32       1.0  0.98287  0.33287  0.45127  1.0000
  C   C39       1.0  0.01089  0.45770  0.25083  1.0000
  P   P1        1.0  0.02237  0.36161  0.39395  1.0000
  H   H33       1.0  0.12516  0.40551  0.98356  1.0000
  C   C40       1.0  0.09147  0.22089  0.99135  1.0000
  H   H34       1.0  0.15933  0.12363  0.07904  1.0000
  H   H35       1.0  0.14184  0.14427  0.12536  1.0000
  H   H36       1.0  0.10974  0.15740  0.10219  1.0000
  H   H37       1.0  0.09461  0.14930  0.03394  1.0000
  C   C41       1.0  0.05877  0.36506  0.27336  1.0000
  H   H38       1.0  0.14444  0.11533  0.01085  1.0000
  C   C42       1.0  0.99576  0.36800  0.38425  1.0000
  C   C43       1.0  0.00031  0.28554  0.45615  1.0000
  H   H39       1.0  0.07370  0.45433  0.34659  1.0000
  H   H40       1.0  0.19292  0.26472  0.23201  1.0000
  C   C44       1.0  0.12275  0.46321  0.40745  1.0000
  C   C45       1.0  0.10906  0.24519  0.97903  1.0000
  C   C46       1.0  0.98652  0.45065  0.03885  1.0000
  Fe  Fe6       1.0  0.10256  0.47010  0.18800  1.0000
  C   C47       1.0  0.20589  0.42447  0.25389  1.0000
  Fe  Fe7       1.0  0.21321  0.18328  0.02076  1.0000
  S   S13       1.0  0.17856  0.24848  0.00185  1.0000
  H   H41       1.0  0.99572  0.26807  0.47168  1.0000
  C   C48       1.0  0.11782  0.13105  0.01713  1.0000
  H   H42       1.0  0.00867  0.32532  0.32863  1.0000
  H   H43       1.0  0.20508  0.32149  0.22797  1.0000
  H   H44       1.0  0.21759  0.18911  0.36481  1.0000
  C   C49       1.0  0.14544  0.43537  0.02612  1.0000
  C   C50       1.0  0.00296  0.47426  0.23347  1.0000
  C   C51       1.0  0.21752  0.07759  0.99631  1.0000
  H   H45       1.0  0.01870  0.40911  0.38626  1.0000
  C   C52       1.0  0.09054  0.47005  0.44343  1.0000
  C   C53       1.0  0.21171  0.44792  0.15735  1.0000
  H   H46       1.0  0.17357  0.30462  0.34319  1.0000
  C   C54       1.0  0.11393  0.46930  0.44263  1.0000
  H   H47       1.0  0.04193  0.32403  0.38865  1.0000
  H   H48       1.0  0.01290  0.36741  0.06443  1.0000
  H   H49       1.0  0.17672  0.29063  0.27570  1.0000
  H   H50       1.0  0.02944  0.45912  0.24397  1.0000
  C   C55       1.0  0.08508  0.45858  0.37306  1.0000
  H   H51       1.0  0.20125  0.37896  0.17676  1.0000
  C   C56       1.0  0.97144  0.34795  0.37560  1.0000
  C   C57       1.0  0.03677  0.34327  0.28411  1.0000
  H   H52       1.0  0.18432  0.16824  0.19860  1.0000
  C   C58       1.0  0.06968  0.38597  0.29911  1.0000
  C   C59       1.0  0.21691  0.36164  0.30678  1.0000
  C   C60       1.0  0.01992  0.29437  0.42871  1.0000
  C   C61       1.0  0.02808  0.39442  0.11228  1.0000
  H   H53       1.0  0.03759  0.39845  0.01412  1.0000
  H   H54       1.0  0.06714  0.40194  0.35455  1.0000
  C   C62       1.0  0.03914  0.40486  0.04430  1.0000
  H   H55       1.0  0.04925  0.47568  0.06125  1.0000
  H   H56       1.0  0.02357  0.43711  0.99669  1.0000
  P   P2        1.0  0.07650  0.45209  0.01915  1.0000
  C   C63       1.0  0.02587  0.34226  0.32082  1.0000
  H   H57       1.0  0.02816  0.32721  0.26386  1.0000
  C   C64       1.0  0.12452  0.46062  0.04585  1.0000
  H   H58       1.0  0.12401  0.47507  0.06519  1.0000
  C   C65       1.0  0.04495  0.41948  0.12330  1.0000
  C   C66       1.0  0.03485  0.39443  0.45887  1.0000
  H   H59       1.0  0.00620  0.43684  0.12508  1.0000
  C   C67       1.0  0.20772  0.24703  0.27275  1.0000
  C   C68       1.0  0.10078  0.20513  0.00834  1.0000
  C   C69       1.0  0.20233  0.25284  0.23499  1.0000
  C   C70       1.0  0.06959  0.38840  0.43148  1.0000
  C   C71       1.0  0.98699  0.29945  0.46401  1.0000
  Fe  Fe8       1.0  0.21425  0.23178  0.45169  1.0000
  H   H60       1.0  0.98266  0.41803  0.37051  1.0000
  C   C72       1.0  0.03703  0.36305  0.34712  1.0000
  H   H61       1.0  0.99388  0.29973  0.02170  1.0000
  C   C73       1.0  0.05585  0.43022  0.05511  1.0000
  C   C74       1.0  0.14486  0.23725  0.99878  1.0000
  C   C75       1.0  0.17960  0.17635  0.34159  1.0000
  C   C76       1.0  0.15387  0.15816  0.34370  1.0000
  C   C77       1.0  0.14635  0.13928  0.37244  1.0000
  P   P3        1.0  0.13049  0.16153  0.31350  1.0000
  C   C78       1.0  0.12415  0.18510  0.33848  1.0000
  C   C79       1.0  0.14197  0.17079  0.26430  1.0000
  C   C80       1.0  0.13130  0.18283  0.24068  1.0000
  C   C81       1.0  0.14012  0.19006  0.20258  1.0000
  C   C82       1.0  0.15923  0.18481  0.18750  1.0000
  C   C83       1.0  0.16926  0.17199  0.21029  1.0000
  C   C84       1.0  0.16062  0.16488  0.24849  1.0000
  C   C85       1.0  0.10837  0.17828  0.37151  1.0000
  C   C86       1.0  0.10443  0.19674  0.39221  1.0000
  C   C87       1.0  0.11663  0.22220  0.38064  1.0000
  C   C88       1.0  0.13281  0.22922  0.34833  1.0000
  C   C89       1.0  0.13665  0.21077  0.32742  1.0000
  C   C90       1.0  0.10199  0.13158  0.30754  1.0000
  C   C91       1.0  0.10390  0.10896  0.30128  1.0000
  C   C92       1.0  0.08188  0.08573  0.29579  1.0000
  C   C93       1.0  0.05786  0.08501  0.29586  1.0000
  C   C94       1.0  0.05586  0.10756  0.30111  1.0000
  C   C95       1.0  0.07784  0.13082  0.30664  1.0000
  H   H62       1.0  0.16104  0.43061  0.02932  1.0000
  H   H63       1.0  0.18540  0.19205  0.32153  1.0000
  H   H64       1.0  0.12642  0.12601  0.37644  1.0000
  H   H65       1.0  0.11638  0.18694  0.25187  1.0000
  H   H66       1.0  0.13241  0.20007  0.18489  1.0000
  H   H67       1.0  0.16665  0.19106  0.15840  1.0000
  H   H68       1.0  0.18686  0.42239  0.25865  1.0000
  H   H69       1.0  0.16868  0.15499  0.26560  1.0000
  H   H70       1.0  0.09950  0.15883  0.38179  1.0000
  H   H71       1.0  0.09258  0.19155  0.41811  1.0000
  H   H72       1.0  0.11404  0.23653  0.39743  1.0000
  H   H73       1.0  0.14294  0.24907  0.34005  1.0000
  H   H74       1.0  0.14994  0.21676  0.30334  1.0000
  H   H75       1.0  0.12240  0.10927  0.30062  1.0000
  H   H76       1.0  0.08344  0.06828  0.29133  1.0000
  H   H77       1.0  0.04081  0.06701  0.29157  1.0000
  H   H78       1.0  0.03725  0.10705  0.30072  1.0000
  H   H79       1.0  0.07594  0.14814  0.30992  1.0000
  S   S14       1.0  0.05791  0.20868  0.98377  1.0000
  C   C96       1.0  0.05898  0.43724  0.09492  1.0000
  C   C97       1.0  0.99467  0.43882  0.27619  1.0000
  H   H80       1.0  0.11987  0.26639  0.46121  1.0000
  C   C98       1.0  0.20472  0.11853  0.99449  1.0000
  Fe  Fe9       1.0  0.19980  0.25499  0.38173  1.0000
  C   C99       1.0  0.97954  0.39849  0.37208  1.0000
  H   H81       1.0  0.19325  0.38418  0.24896  1.0000
  C   C100      1.0  0.18600  0.31842  0.32231  1.0000
  H   H82       1.0  0.97835  0.44161  0.01090  1.0000
  C   C101      1.0  0.21161  0.34172  0.11002  1.0000
  C   C102      1.0  0.20064  0.34395  0.33365  1.0000
  C   C103      1.0  0.20135  0.35662  0.12702  1.0000
  H   H83       1.0  0.20473  0.24820  0.17224  1.0000
  C   C104      1.0  0.20898  0.24343  0.20089  1.0000
  H   H84       1.0  0.19934  0.35001  0.36329  1.0000
  C   C105      1.0  0.10244  0.25241  0.47433  1.0000
  H   H85       1.0  0.10598  0.40887  0.46076  1.0000
  C   C106      1.0  0.97862  0.47203  0.24129  1.0000
  C   C107      1.0  0.97464  0.28999  0.07720  1.0000
  H   H86       1.0  0.98224  0.47505  0.34796  1.0000
  C   C108      1.0  0.21709  0.47360  0.15991  1.0000
  C   C109      1.0  0.12528  0.42132  0.00024  1.0000
  C   C110      1.0  0.10470  0.42689  0.99714  1.0000
  C   C111      1.0  0.21862  0.35390  0.26827  1.0000
  C   C112      1.0  0.08104  0.25710  0.47730  1.0000
  S   S15       1.0  0.18781  0.97898  0.00666  1.0000
  S   S16       1.0  0.20129  0.25159  0.49666  1.0000
  C   C113      1.0  0.98073  0.30115  0.72460  1.0000
  S   S17       1.0  0.07718  0.45059  0.59575  1.0000
  C   C114      1.0  0.21449  0.10306  0.74007  1.0000
  H   H87       1.0  0.01358  0.06843  0.96215  1.0000
  C   C115      1.0  0.19464  0.37478  0.70621  1.0000
  S   S18       1.0  0.02352  0.45570  0.66244  1.0000
  H   H88       1.0  0.09425  0.45424  0.93801  1.0000
  C   C116      1.0  0.06102  0.44216  0.90122  1.0000
  H   H89       1.0  0.20416  0.05963  0.88681  1.0000
  H   H90       1.0  0.05984  0.38546  0.79891  1.0000
  S   S19       1.0  0.05284  0.26693  0.92744  1.0000
  C   C117      1.0  0.20067  0.16607  0.49777  1.0000
  C   C118      1.0  0.02623  0.38381  0.71653  1.0000
  Fe  Fe10      1.0  0.01738  0.24750  0.88903  1.0000
  S   S20       1.0  0.02188  0.24855  0.82153  1.0000
  S   S21       1.0  0.00293  0.21061  0.92151  1.0000
  Fe  Fe11      1.0  0.99107  0.22495  0.52179  1.0000
  H   H91       1.0  0.04772  0.46039  0.73984  1.0000
  H   H92       1.0  0.12855  0.04575  0.90996  1.0000
  H   H93       1.0  0.17109  0.39235  0.72282  1.0000
  Fe  Fe12      1.0  0.19391  0.98138  0.89162  1.0000
  C   C119      1.0  0.04442  0.32530  0.87909  1.0000
  S   S22       1.0  0.19465  0.03534  0.57520  1.0000
  H   H94       1.0  0.18493  0.16127  0.87094  1.0000
  C   C120      1.0  0.12668  0.10263  0.91257  1.0000
  S   S23       1.0  0.17299  0.99924  0.92522  1.0000
  C   C121      1.0  0.00231  0.23965  0.77813  1.0000
  H   H95       1.0  0.97203  0.29274  0.48571  1.0000
  H   H96       1.0  0.20914  0.08447  0.64414  1.0000
  H   H97       1.0  0.03953  0.20264  0.52190  1.0000
  C   C122      1.0  0.99945  0.23432  0.70627  1.0000
  C   C123      1.0  0.01396  0.24155  0.74145  1.0000
  H   H98       1.0  0.00783  0.10587  0.87312  1.0000
  C   C124      1.0  0.15003  0.19876  0.89568  1.0000
  H   H99       1.0  0.00868  0.23546  0.67860  1.0000
  H   H100      1.0  0.03438  0.24836  0.74025  1.0000
  C   C125      1.0  0.99011  0.43392  0.78726  1.0000
  C   C126      1.0  0.01670  0.44515  0.78147  1.0000
  C   C127      1.0  0.02726  0.45171  0.74365  1.0000
  C   C128      1.0  0.01136  0.44723  0.71092  1.0000
  C   C129      1.0  0.98478  0.43620  0.71676  1.0000
  H   H101      1.0  0.05318  0.30161  0.83999  1.0000
  H   H102      1.0  0.02930  0.44879  0.80636  1.0000
  H   H103      1.0  0.04446  0.41950  0.50945  1.0000
  H   H104      1.0  0.21047  0.43652  0.67925  1.0000
  C   C130      1.0  0.17842  0.44329  0.66376  1.0000
  H   H105      1.0  0.99449  0.27408  0.64559  1.0000
  C   C131      1.0  0.99028  0.17532  0.75164  1.0000
  C   C132      1.0  0.05427  0.09285  0.96272  1.0000
  C   C133      1.0  0.19736  0.07586  0.97266  1.0000
  C   C134      1.0  0.06043  0.44560  0.97220  1.0000
  H   H106      1.0  0.17292  0.13186  0.52552  1.0000
  C   C135      1.0  0.11096  0.38673  0.55212  1.0000
  H   H107      1.0  0.17550  0.39658  0.59640  1.0000
  C   C136      1.0  0.12745  0.17883  0.88101  1.0000
  C   C137      1.0  0.16719  0.04787  0.81972  1.0000
  C   C138      1.0  0.14545  0.00266  0.83474  1.0000
  H   H108      1.0  0.07131  0.44346  0.87439  1.0000
  C   C139      1.0  0.04371  0.40687  0.70023  1.0000
  H   H109      1.0  0.09696  0.14139  0.89129  1.0000
  C   C140      1.0  0.11367  0.36553  0.56428  1.0000
  H   H110      1.0  0.21175  0.10568  0.88477  1.0000
  S   S24       1.0  0.99570  0.26249  0.92649  1.0000
  C   C141      1.0  0.14761  0.17368  0.95273  1.0000
  C   C142      1.0  0.17006  0.46140  0.65409  1.0000
  H   H111      1.0  0.08976  0.42881  0.51046  1.0000
  H   H112      1.0  0.11954  0.18102  0.85351  1.0000
  H   H113      1.0  0.19115  0.30604  0.49434  1.0000
  H   H114      1.0  0.07086  0.28823  0.69122  1.0000
  C   C143      1.0  0.20016  0.07913  0.75722  1.0000
  C   C144      1.0  0.00056  0.14763  0.87432  1.0000
  C   C145      1.0  0.15743  0.39341  0.58365  1.0000
  P   P4        1.0  0.13990  0.34180  0.60028  1.0000
  C   C146      1.0  0.01090  0.15248  0.72143  1.0000
  C   C147      1.0  0.15492  0.33027  0.56457  1.0000
  H   H115      1.0  0.20803  0.38335  0.73027  1.0000
  C   C148      1.0  0.14753  0.30401  0.56082  1.0000
  Fe  Fe13      1.0  0.20780  0.01871  0.52544  1.0000
  H   H116      1.0  0.00268  0.10433  0.96704  1.0000
  C   C149      1.0  0.20231  0.11369  0.86657  1.0000
  H   H117      1.0  0.10453  0.98553  0.83856  1.0000
  C   C150      1.0  0.10879  0.31646  0.61272  1.0000
  C   C151      1.0  0.09207  0.30124  0.58286  1.0000
  C   C152      1.0  0.06802  0.28166  0.59204  1.0000
  C   C153      1.0  0.06039  0.27702  0.63100  1.0000
  C   C154      1.0  0.07683  0.29197  0.66096  1.0000
  C   C155      1.0  0.10098  0.31163  0.65192  1.0000
  S   S25       1.0  0.03160  0.24609  0.49658  1.0000
  C   C156      1.0  0.13687  0.36869  0.58059  1.0000
  C   C157      1.0  0.05133  0.41053  0.48789  1.0000
  C   C158      1.0  0.17569  0.34765  0.54280  1.0000
  H   H118      1.0  0.03459  0.31121  0.78194  1.0000
  S   S26       1.0  0.97799  0.42591  0.83587  1.0000
  C   C159      1.0  0.19214  0.14171  0.51433  1.0000
  C   C160      1.0  0.01992  0.14976  0.75813  1.0000
  S   S27       1.0  0.18680  0.97893  0.49540  1.0000
  C   C161      1.0  0.17379  0.37978  0.70205  1.0000
  H   H119      1.0  0.15433  0.27500  0.53191  1.0000
  H   H120      1.0  0.09763  0.30441  0.55237  1.0000
  H   H121      1.0  0.05529  0.26996  0.56884  1.0000
  C   C162      1.0  0.19846  0.35901  0.67900  1.0000
  C   C163      1.0  0.18984  0.05712  0.73323  1.0000
  H   H122      1.0  0.11343  0.32282  0.67560  1.0000
  C   C164      1.0  0.13221  0.08324  0.89917  1.0000
  C   C165      1.0  0.17756  0.13526  0.82191  1.0000
  C   C166      1.0  0.11473  0.15648  0.90247  1.0000
  H   H123      1.0  0.15962  0.21644  0.87976  1.0000
  C   C167      1.0  0.06688  0.42199  0.71931  1.0000
  H   H124      1.0  0.09055  0.42594  0.76948  1.0000
  H   H125      1.0  0.04174  0.26176  0.63782  1.0000
  Fe  Fe14      1.0  0.03688  0.23085  0.96233  1.0000
  S   S28       1.0  0.19654  0.09958  0.53904  1.0000
  C   C168      1.0  0.07242  0.41428  0.75506  1.0000
  C   C169      1.0  0.12192  0.00291  0.83316  1.0000
  P   P5        1.0  0.10718  0.12523  0.96654  1.0000
  H   H126      1.0  0.19517  0.99628  0.68231  1.0000
  H   H127      1.0  0.21490  0.35551  0.68192  1.0000
  H   H128      1.0  0.10255  0.02548  0.82219  1.0000
  C   C170      1.0  0.02549  0.11078  0.85782  1.0000
  C   C171      1.0  0.97580  0.23061  0.77894  1.0000
  H   H129      1.0  0.14108  0.37367  0.66720  1.0000
  C   C172      1.0  0.19946  0.13443  0.88135  1.0000
  H   H130      1.0  0.18516  0.33642  0.62658  1.0000
  H   H131      1.0  0.14369  0.08613  0.87331  1.0000
  C   C173      1.0  0.16797  0.02500  0.82802  1.0000
  C   C174      1.0  0.15684  0.36916  0.67050  1.0000
  C   C175      1.0  0.19438  0.98889  0.74452  1.0000
  C   C176      1.0  0.97547  0.13074  0.86264  1.0000
  H   H132      1.0  0.12905  0.42777  0.54790  1.0000
  C   C177      1.0  0.01426  0.15998  0.79195  1.0000
  C   C178      1.0  0.99929  0.17274  0.78837  1.0000
  P   P6        1.0  0.02632  0.15742  0.83964  1.0000
  C   C179      1.0  0.99742  0.28759  0.66927  1.0000
  C   C180      1.0  0.03836  0.13421  0.83866  1.0000
  Fe  Fe15      1.0  0.06376  0.47282  0.63554  1.0000
  C   C181      1.0  0.03550  0.09339  0.85762  1.0000
  C   C182      1.0  0.05832  0.09917  0.83825  1.0000
  C   C183      1.0  0.07124  0.12244  0.81913  1.0000
  C   C184      1.0  0.06144  0.13999  0.81962  1.0000
  Fe  Fe16      1.0  0.98290  0.22620  0.96109  1.0000
  C   C185      1.0  0.03421  0.43846  0.97027  1.0000
  S   S29       1.0  0.97311  0.19124  0.56223  1.0000
  C   C186      1.0  0.05250  0.18764  0.85469  1.0000
  C   C187      1.0  0.07075  0.18818  0.88172  1.0000
  C   C188      1.0  0.09123  0.21138  0.89321  1.0000
  C   C189      1.0  0.09333  0.23429  0.87867  1.0000
  C   C190      1.0  0.07513  0.23395  0.85213  1.0000
  C   C191      1.0  0.05490  0.21075  0.83996  1.0000
  H   H133      1.0  0.09285  0.38419  0.54042  1.0000
  C   C192      1.0  0.18151  0.34828  0.64747  1.0000
  C   C193      1.0  0.02866  0.08793  0.96317  1.0000
  H   H134      1.0  0.18592  0.02421  0.82890  1.0000
  S   S30       1.0  0.97773  0.24937  0.55700  1.0000
  H   H135      1.0  0.13412  0.12029  0.89663  1.0000
  C   C194      1.0  0.05489  0.39130  0.77166  1.0000
  H   H136      1.0  0.06595  0.08560  0.83803  1.0000
  H   H137      1.0  0.08892  0.12694  0.80404  1.0000
  H   H138      1.0  0.07176  0.15809  0.80500  1.0000
  H   H139      1.0  0.02445  0.16967  0.92298  1.0000
  H   H140      1.0  0.05233  0.32063  0.90463  1.0000
  H   H141      1.0  0.20509  0.35231  0.50142  1.0000
  H   H142      1.0  0.06898  0.17076  0.89453  1.0000
  H   H143      1.0  0.10507  0.21171  0.91442  1.0000
  H   H144      1.0  0.10877  0.25230  0.88861  1.0000
  H   H145      1.0  0.07638  0.25172  0.84137  1.0000
  H   H146      1.0  0.04115  0.21117  0.81946  1.0000
  H   H147      1.0  0.03300  0.34982  0.91127  1.0000
  C   C195      1.0  0.12086  0.02545  0.82411  1.0000
  C   C196      1.0  0.02143  0.30832  0.67572  1.0000
  H   H148      1.0  0.10226  0.25764  0.96618  1.0000
  C   C197      1.0  0.97284  0.47018  0.62303  1.0000
  C   C198      1.0  0.19292  0.10360  0.82907  1.0000
  C   C199      1.0  0.00474  0.32220  0.73113  1.0000
  C   C200      1.0  0.02514  0.32549  0.70663  1.0000
  P   P7        1.0  0.01002  0.34472  0.77087  1.0000
  H   H149      1.0  0.03122  0.13970  0.75971  1.0000
  C   C201      1.0  0.14337  0.04779  0.81706  1.0000
  C   C202      1.0  0.13135  0.41124  0.55605  1.0000
  H   H150      1.0  0.13224  0.29012  0.57817  1.0000
  H   H151      1.0  0.03938  0.41301  0.67262  1.0000
  C   C203      1.0  0.16069  0.35351  0.64274  1.0000
  C   C204      1.0  0.02358  0.33696  0.81298  1.0000
  C   C205      1.0  0.03352  0.34181  0.88273  1.0000
  C   C206      1.0  0.02322  0.34774  0.84979  1.0000
  H   H152      1.0  0.03714  0.31110  0.65671  1.0000
  H   H153      1.0  0.01488  0.36063  0.85304  1.0000
  H   H154      1.0  0.02548  0.07535  0.87247  1.0000
  C   C207      1.0  0.10118  0.22966  0.48838  1.0000
  H   H155      1.0  0.17737  0.21179  0.94288  1.0000
  H   H156      1.0  0.07711  0.19429  0.51684  1.0000
  H   H157      1.0  0.10366  0.03984  0.97067  1.0000
  H   H158      1.0  0.21198  0.98185  0.62392  1.0000
  C   C208      1.0  0.20440  0.45071  0.67199  1.0000
  C   C209      1.0  0.05809  0.23919  0.49429  1.0000
  H   H159      1.0  0.00859  0.37207  0.70090  1.0000
  C   C210      1.0  0.05694  0.21658  0.50868  1.0000
  H   H160      1.0  0.18232  0.36799  0.54601  1.0000
  C   C211      1.0  0.03439  0.32021  0.80966  1.0000
  C   C212      1.0  0.04189  0.13324  0.96761  1.0000
  C   C213      1.0  0.03165  0.37584  0.75242  1.0000
  C   C214      1.0  0.18709  0.14521  0.85914  1.0000
  C   C215      1.0  0.04492  0.31459  0.84261  1.0000
  H   H161      1.0  0.04394  0.34138  0.71129  1.0000
  H   H162      1.0  0.98566  0.46946  0.60086  1.0000
  H   H163      1.0  0.09741  0.34690  0.56151  1.0000
  H   H164      1.0  0.08062  0.43959  0.70614  1.0000
  C   C216      1.0  0.16011  0.19611  0.93135  1.0000
  H   H165      1.0  0.14205  0.06480  0.80910  1.0000
  H   H166      1.0  0.17283  0.10704  0.77803  1.0000
  H   H167      1.0  0.17022  0.43363  0.57532  1.0000
  H   H168      1.0  0.16465  0.42335  0.66481  1.0000
  S   S31       1.0  0.13695  0.45076  0.64418  1.0000
  C   C217      1.0  0.12453  0.15389  0.93873  1.0000
  H   H169      1.0  0.00106  0.42671  0.93273  1.0000
  C   C218      1.0  0.99615  0.16533  0.71818  1.0000
  C   C219      1.0  0.12377  0.06056  0.91990  1.0000
  S   S32       1.0  0.12730  0.22225  0.48509  1.0000
  C   C220      1.0  0.02140  0.43259  0.93415  1.0000
  C   C221      1.0  0.18090  0.31275  0.51355  1.0000
  C   C222      1.0  0.07390  0.44807  0.93733  1.0000
  C   C223      1.0  0.03475  0.43419  0.89970  1.0000
  H   H170      1.0  0.16805  0.14370  0.80460  1.0000
  C   C224      1.0  0.07833  0.21190  0.50573  1.0000
  H   H171      1.0  0.02465  0.42928  0.87185  1.0000
  H   H172      1.0  0.18801  0.17472  0.49625  1.0000
  H   H173      1.0  0.14890  0.27199  0.97266  1.0000
  H   H174      1.0  0.17969  0.03830  0.74567  1.0000
  C   C225      1.0  0.18043  0.11454  0.80691  1.0000
  H   H175      1.0  0.99493  0.18115  0.81387  1.0000
  H   H176      1.0  0.98703  0.38006  0.76186  1.0000
  C   C226      1.0  0.98016  0.34358  0.78623  1.0000
  C   C227      1.0  0.97713  0.28402  0.69371  1.0000
  C   C228      1.0  0.16027  0.29531  0.53498  1.0000
  Fe  Fe17      1.0  0.02980  0.27913  0.96774  1.0000
  H   H177      1.0  0.08210  0.15784  0.96748  1.0000
  C   C229      1.0  0.00542  0.15620  0.91338  1.0000
  H   H178      1.0  0.18512  0.04212  0.67421  1.0000
  C   C230      1.0  0.15461  0.41454  0.57153  1.0000
  C   C231      1.0  0.02248  0.10812  0.96586  1.0000
  H   H179      1.0  0.98939  0.15536  0.97029  1.0000
  H   H180      1.0  0.01547  0.14477  0.69537  1.0000
  C   C232      1.0  0.20821  0.13002  0.51665  1.0000
  C   C233      1.0  0.18867  0.33888  0.51751  1.0000
  P   P8        1.0  0.19629  0.07657  0.80975  1.0000
  C   C234      1.0  0.97299  0.22538  0.70697  1.0000
  C   C235      1.0  0.19111  0.09625  0.97170  1.0000
  C   C236      1.0  0.97421  0.42956  0.75456  1.0000
  Fe  Fe18      1.0  0.21491  0.07283  0.54286  1.0000
  H   H181      1.0  0.00407  0.47641  0.87281  1.0000
  H   H182      1.0  0.98937  0.16774  0.68973  1.0000
  C   C237      1.0  0.10976  0.05724  0.95415  1.0000
  H   H183      1.0  0.97127  0.12365  0.83273  1.0000
  C   C238      1.0  0.11254  0.09945  0.94694  1.0000
  Fe  Fe19      1.0  0.11594  0.47324  0.62467  1.0000
  H   H184      1.0  0.97902  0.18543  0.74893  1.0000
  C   C239      1.0  0.20611  0.99753  0.78152  1.0000
  C   C240      1.0  0.07388  0.11808  0.96472  1.0000
  C   C241      1.0  0.20469  0.00320  0.71023  1.0000
  C   C242      1.0  0.10422  0.07662  0.96772  1.0000
  C   C243      1.0  0.19288  0.05917  0.69260  1.0000
  C   C244      1.0  0.06740  0.13820  0.96634  1.0000
  H   H185      1.0  0.14630  0.98508  0.84105  1.0000
  H   H186      1.0  0.97608  0.47677  0.92600  1.0000
  C   C245      1.0  0.98550  0.14816  0.94035  1.0000
  H   H187      1.0  0.97225  0.43270  0.69176  1.0000
  H   H188      1.0  0.17559  0.09476  0.95316  1.0000
  H   H189      1.0  0.05852  0.07691  0.96118  1.0000
  C   C246      1.0  0.07692  0.41569  0.48861  1.0000
  H   H190      1.0  0.18659  0.05883  0.95511  1.0000
  H   H191      1.0  0.20684  0.14216  0.91024  1.0000
  H   H192      1.0  0.03733  0.14899  0.97086  1.0000
  C   C247      1.0  0.20664  0.08306  0.67566  1.0000
  Fe  Fe20      1.0  0.20578  0.01346  0.96808  1.0000
  C   C248      1.0  0.21754  0.10500  0.69940  1.0000
  S   S33       1.0  0.07820  0.47748  0.48718  1.0000
  C   C249      1.0  0.97398  0.36332  0.77748  1.0000
  H   H193      1.0  0.08870  0.41499  0.97838  1.0000
  C   C250      1.0  0.10825  0.81166  0.99916  1.0000
  H   H194      1.0  0.15002  0.57665  0.15396  1.0000
  Fe  Fe21      1.0  0.10765  0.63377  0.12517  1.0000
  S   S34       1.0  0.06961  0.61847  0.09490  1.0000
  S   S35       1.0  0.12787  0.60989  0.13907  1.0000
  Fe  Fe22      1.0  0.11371  0.68794  0.13089  1.0000
  S   S36       1.0  0.07530  0.67563  0.10165  1.0000
  S   S37       1.0  0.13432  0.73048  0.14797  1.0000
  Fe  Fe23      1.0  0.06076  0.64119  0.14072  1.0000
  S   S38       1.0  0.02072  0.62430  0.16853  1.0000
  Fe  Fe24      1.0  0.08746  0.65425  0.05819  1.0000
  H   H195      1.0  0.07020  0.71911  0.23192  1.0000
  S   S39       1.0  0.09820  0.65491  0.17275  1.0000
  S   S40       1.0  0.12639  0.66806  0.08573  1.0000
  Fe  Fe25      1.0  0.03224  0.81108  0.38799  1.0000
  S   S41       1.0  0.01600  0.83491  0.41717  1.0000
  S   S42       1.0  0.03606  0.80419  0.32195  1.0000
  H   H196      1.0  0.19804  0.88194  0.20485  1.0000
  H   H197      1.0  0.06922  0.78833  0.36172  1.0000
  C   C251      1.0  0.09504  0.62660  0.27851  1.0000
  H   H198      1.0  0.12135  0.50076  0.00282  1.0000
  S   S43       1.0  0.01116  0.77746  0.42691  1.0000
  S   S44       1.0  0.06737  0.82661  0.42747  1.0000
  Fe  Fe26      1.0  0.99636  0.80929  0.02923  1.0000
  S   S45       1.0  0.98522  0.77351  0.06438  1.0000
  C   C252      1.0  0.14722  0.85006  0.01575  1.0000
  H   H199      1.0  0.99235  0.89228  0.12662  1.0000
  H   H200      1.0  0.07987  0.75814  0.05109  1.0000
  C   C253      1.0  0.10401  0.76215  0.00126  1.0000
  H   H201      1.0  0.01056  0.59436  0.06583  1.0000
  Fe  Fe27      1.0  0.99627  0.80179  0.45806  1.0000
  H   H202      1.0  0.14732  0.73913  0.99696  1.0000
  C   C254      1.0  0.99395  0.80425  0.28346  1.0000
  C   C255      1.0  0.01616  0.80142  0.28052  1.0000
  C   C256      1.0  0.02313  0.79630  0.24325  1.0000
  C   C257      1.0  0.00798  0.79360  0.20955  1.0000
  H   H203      1.0  0.04037  0.79432  0.24056  1.0000
  H   H204      1.0  0.01347  0.78935  0.18131  1.0000
  C   C258      1.0  0.02323  0.61888  0.24997  1.0000
  C   C259      1.0  0.00790  0.61514  0.21668  1.0000
  C   C260      1.0  0.98123  0.60396  0.22156  1.0000
  C   C261      1.0  0.01758  0.73387  0.21858  1.0000
  H   H205      1.0  0.04372  0.62733  0.24689  1.0000
  C   C262      1.0  0.11482  0.53002  0.03077  1.0000
  H   H206      1.0  0.01568  0.48839  0.21330  1.0000
  H   H207      1.0  0.06445  0.92174  0.01342  1.0000
  C   C263      1.0  0.05221  0.88114  0.01162  1.0000
  C   C264      1.0  0.98008  0.68718  0.38609  1.0000
  H   H208      1.0  0.10128  0.64367  0.26116  1.0000
  H   H209      1.0  0.19035  0.51860  0.04080  1.0000
  C   C265      1.0  0.16710  0.75100  0.15843  1.0000
  C   C266      1.0  0.18511  0.74189  0.16158  1.0000
  H   H210      1.0  0.98827  0.55579  0.43374  1.0000
  C   C267      1.0  0.20735  0.84245  0.09548  1.0000
  C   C268      1.0  0.20114  0.79447  0.17126  1.0000
  C   C269      1.0  0.17533  0.77740  0.16314  1.0000
  H   H211      1.0  0.17917  0.72169  0.15795  1.0000
  C   C270      1.0  0.03139  0.53569  0.34681  1.0000
  H   H212      1.0  0.16175  0.78475  0.16000  1.0000
  C   C271      1.0  0.00622  0.68899  0.21379  1.0000
  H   H213      1.0  0.02918  0.49808  0.35198  1.0000
  C   C272      1.0  0.99865  0.53370  0.16919  1.0000
  Fe  Fe28      1.0  0.04460  0.79453  0.46868  1.0000
  C   C273      1.0  0.99470  0.52238  0.20617  1.0000
  C   C274      1.0  0.11363  0.57677  0.14922  1.0000
  C   C275      1.0  0.08715  0.56175  0.15112  1.0000
  C   C276      1.0  0.07676  0.53542  0.15882  1.0000
  C   C277      1.0  0.09272  0.52380  0.16408  1.0000
  C   C278      1.0  0.11916  0.53888  0.16258  1.0000
  C   C279      1.0  0.12952  0.56520  0.15525  1.0000
  H   H214      1.0  0.07475  0.57041  0.14641  1.0000
  H   H215      1.0  0.05629  0.52399  0.16018  1.0000
  H   H216      1.0  0.13167  0.53023  0.16667  1.0000
  H   H217      1.0  0.18725  0.75191  0.25087  1.0000
  H   H218      1.0  0.14311  0.87631  0.05568  1.0000
  C   C280      1.0  0.12713  0.79514  0.39125  1.0000
  C   C281      1.0  0.97777  0.50909  0.34272  1.0000
  H   H219      1.0  0.02411  0.61495  0.31278  1.0000
  S   S46       1.0  0.07891  0.49031  0.17077  1.0000
  H   H220      1.0  0.19846  0.81057  0.39007  1.0000
  H   H221      1.0  0.01530  0.60227  0.43341  1.0000
  S   S47       1.0  0.97723  0.82531  0.06972  1.0000
  H   H222      1.0  0.10888  0.60790  0.23738  1.0000
  H   H223      1.0  0.13744  0.79536  0.41767  1.0000
  H   H224      1.0  0.03649  0.58933  0.01273  1.0000
  H   H225      1.0  0.09786  0.75105  0.28075  1.0000
  C   C282      1.0  0.98531  0.60084  0.29223  1.0000
  S   S48       1.0  0.07841  0.65145  0.99153  1.0000
  C   C283      1.0  0.09933  0.60644  0.26513  1.0000
  C   C284      1.0  0.06371  0.53797  0.42798  1.0000
  H   H226      1.0  0.04149  0.51209  0.00315  1.0000
  C   C285      1.0  0.02085  0.57252  0.02503  1.0000
  C   C286      1.0  0.01862  0.50889  0.34864  1.0000
  C   C287      1.0  0.06953  0.90695  0.00491  1.0000
  H   H227      1.0  0.04663  0.74615  0.39480  1.0000
  C   C288      1.0  0.10806  0.50477  0.01968  1.0000
  C   C289      1.0  0.07440  0.51589  0.06360  1.0000
  H   H228      1.0  0.02662  0.54657  0.98716  1.0000
  C   C290      1.0  0.20982  0.82692  0.40864  1.0000
  C   C291      1.0  0.16731  0.83780  0.12160  1.0000
  C   C292      1.0  0.15397  0.81743  0.09559  1.0000
  C   C293      1.0  0.16730  0.80955  0.06950  1.0000
  H   H229      1.0  0.13921  0.84754  0.43425  1.0000
  S   S49       1.0  0.19277  0.48333  0.16649  1.0000
  C   C294      1.0  0.98873  0.56723  0.45911  1.0000
  H   H230      1.0  0.15700  0.84417  0.14139  1.0000
  H   H231      1.0  0.13330  0.80807  0.09496  1.0000
  H   H232      1.0  0.12414  0.51309  0.34979  1.0000
  H   H233      1.0  0.16757  0.86188  0.01238  1.0000
  C   C295      1.0  0.14032  0.85304  0.46485  1.0000
  H   H234      1.0  0.00293  0.74555  0.26812  1.0000
  H   H235      1.0  0.18457  0.70852  0.02246  1.0000
  H   H236      1.0  0.06151  0.52019  0.08101  1.0000
  H   H237      1.0  0.06535  0.60160  0.36416  1.0000
  C   C296      1.0  0.98988  0.70341  0.35396  1.0000
  C   C297      1.0  0.10195  0.79122  0.39373  1.0000
  C   C298      1.0  0.06759  0.49066  0.05259  1.0000
  C   C299      1.0  0.14881  0.93153  0.47205  1.0000
  H   H238      1.0  0.10700  0.54071  0.37717  1.0000
  C   C300      1.0  0.10507  0.76752  0.17047  1.0000
  C   C301      1.0  0.08681  0.74355  0.18274  1.0000
  C   C302      1.0  0.08394  0.73795  0.22259  1.0000
  C   C303      1.0  0.09958  0.75618  0.25018  1.0000
  C   C304      1.0  0.11796  0.78037  0.23808  1.0000
  C   C305      1.0  0.12059  0.78588  0.19800  1.0000
  P   P9        1.0  0.14060  0.80254  0.27293  1.0000
  C   C306      1.0  0.12563  0.79837  0.32037  1.0000
  C   C307      1.0  0.16809  0.79662  0.27579  1.0000
  C   C308      1.0  0.21147  0.78856  0.27712  1.0000
  C   C309      1.0  0.99510  0.52639  0.02685  1.0000
  C   C310      1.0  0.01686  0.54898  0.34338  1.0000
  C   C311      1.0  0.98550  0.79600  0.21260  1.0000
  C   C312      1.0  0.21560  0.50402  0.06096  1.0000
  C   C313      1.0  0.10032  0.79446  0.32322  1.0000
  H   H239      1.0  0.16413  0.92957  0.45767  1.0000
  C   C314      1.0  0.97882  0.80160  0.24979  1.0000
  S   S50       1.0  0.97238  0.59310  0.34058  1.0000
  C   C315      1.0  0.13896  0.79873  0.35474  1.0000
  C   C316      1.0  0.15053  0.83480  0.25650  1.0000
  C   C317      1.0  0.13691  0.84812  0.26740  1.0000
  C   C318      1.0  0.14531  0.87338  0.25588  1.0000
  C   C319      1.0  0.16736  0.88557  0.23346  1.0000
  C   C320      1.0  0.18073  0.87233  0.22181  1.0000
  C   C321      1.0  0.17220  0.84695  0.23277  1.0000
  H   H240      1.0  0.10794  0.77141  0.13949  1.0000
  H   H241      1.0  0.07567  0.72895  0.16126  1.0000
  C   C322      1.0  0.21181  0.51355  0.99332  1.0000
  H   H242      1.0  0.11900  0.60242  0.46353  1.0000
  H   H243      1.0  0.13524  0.80396  0.18781  1.0000
  C   C323      1.0  0.20844  0.82464  0.44945  1.0000
  C   C324      1.0  0.99433  0.69207  0.42073  1.0000
  H   H244      1.0  0.11974  0.89409  0.45319  1.0000
  H   H245      1.0  0.08954  0.79418  0.29730  1.0000
  C   C325      1.0  0.10346  0.73978  0.06073  1.0000
  C   C326      1.0  0.99196  0.49570  0.34648  1.0000
  C   C327      1.0  0.19399  0.85022  0.12161  1.0000
  H   H246      1.0  0.15840  0.80165  0.35355  1.0000
  H   H247      1.0  0.11999  0.83933  0.28517  1.0000
  H   H248      1.0  0.13492  0.88362  0.26500  1.0000
  H   H249      1.0  0.17425  0.90534  0.22533  1.0000
  H   H250      1.0  0.06556  0.63296  0.47628  1.0000
  H   H251      1.0  0.18282  0.83703  0.22313  1.0000
  C   C328      1.0  0.09119  0.58430  0.28726  1.0000
  P   P10       1.0  0.06594  0.55261  0.35029  1.0000
  C   C329      1.0  0.07893  0.53247  0.33061  1.0000
  C   C330      1.0  0.06937  0.51902  0.29516  1.0000
  C   C331      1.0  0.07952  0.50360  0.27976  1.0000
  H   H252      1.0  0.19305  0.83355  0.30179  1.0000
  C   C332      1.0  0.10897  0.51498  0.33448  1.0000
  C   C333      1.0  0.09898  0.53048  0.35000  1.0000
  H   H253      1.0  0.09476  0.56906  0.27588  1.0000
  H   H254      1.0  0.02574  0.56951  0.34203  1.0000
  H   H255      1.0  0.05430  0.52065  0.27922  1.0000
  H   H256      1.0  0.02157  0.73818  0.33356  1.0000
  H   H257      1.0  0.98828  0.80834  0.31172  1.0000
  H   H258      1.0  0.03403  0.87622  0.02529  1.0000
  C   C334      1.0  0.05048  0.80420  0.10915  1.0000
  C   C335      1.0  0.05752  0.79053  0.13542  1.0000
  C   C336      1.0  0.07045  0.80227  0.17009  1.0000
  C   C337      1.0  0.07649  0.82770  0.17843  1.0000
  C   C338      1.0  0.06874  0.84126  0.15271  1.0000
  C   C339      1.0  0.05601  0.82945  0.11774  1.0000
  P   P11       1.0  0.07704  0.87428  0.16219  1.0000
  C   C340      1.0  0.08187  0.88201  0.21388  1.0000
  C   C341      1.0  0.10579  0.89240  0.13473  1.0000
  C   C342      1.0  0.12937  0.89569  0.14955  1.0000
  C   C343      1.0  0.15190  0.91000  0.12899  1.0000
  C   C344      1.0  0.15095  0.92088  0.09330  1.0000
  C   C345      1.0  0.12747  0.91673  0.07758  1.0000
  C   C346      1.0  0.10488  0.90213  0.09777  1.0000
  C   C347      1.0  0.10123  0.90566  0.22715  1.0000
  C   C348      1.0  0.10418  0.91174  0.26723  1.0000
  C   C349      1.0  0.08761  0.89443  0.29419  1.0000
  C   C350      1.0  0.06786  0.87122  0.28105  1.0000
  C   C351      1.0  0.06484  0.86515  0.24106  1.0000
  C   C352      1.0  0.05041  0.87996  0.14935  1.0000
  C   C353      1.0  0.02536  0.86069  0.15494  1.0000
  C   C354      1.0  0.00458  0.86528  0.14718  1.0000
  C   C355      1.0  0.00857  0.88900  0.13338  1.0000
  C   C356      1.0  0.03343  0.90846  0.12849  1.0000
  C   C357      1.0  0.05431  0.90413  0.13712  1.0000
  H   H259      1.0  0.04055  0.79529  0.08209  1.0000
  H   H260      1.0  0.05271  0.77079  0.12899  1.0000
  H   H261      1.0  0.07542  0.79158  0.19093  1.0000
  H   H262      1.0  0.08679  0.83654  0.20518  1.0000
  H   H263      1.0  0.05036  0.83974  0.09696  1.0000
  H   H264      1.0  0.13028  0.88722  0.17706  1.0000
  H   H265      1.0  0.17008  0.91264  0.14059  1.0000
  H   H266      1.0  0.16826  0.93204  0.07719  1.0000
  H   H267      1.0  0.12682  0.92480  0.04954  1.0000
  H   H268      1.0  0.08686  0.89847  0.08429  1.0000
  H   H269      1.0  0.11370  0.91966  0.20665  1.0000
  H   H270      1.0  0.11903  0.93005  0.27740  1.0000
  H   H271      1.0  0.08967  0.89920  0.32523  1.0000
  H   H272      1.0  0.05456  0.85807  0.30185  1.0000
  H   H273      1.0  0.04891  0.84750  0.23128  1.0000
  H   H274      1.0  0.02170  0.84211  0.16556  1.0000
  C   C358      1.0  0.09913  0.50141  0.29958  1.0000
  H   H275      1.0  0.03649  0.92693  0.11815  1.0000
  H   H276      1.0  0.07339  0.91967  0.13433  1.0000
  C   C359      1.0  0.03471  0.57160  0.19501  1.0000
  C   C360      1.0  0.03111  0.56029  0.23166  1.0000
  C   C361      1.0  0.01146  0.53564  0.23709  1.0000
  H   H277      1.0  0.04975  0.59088  0.19090  1.0000
  H   H278      1.0  0.04319  0.57090  0.25602  1.0000
  H   H279      1.0  0.00873  0.52716  0.26570  1.0000
  P   P12       1.0  0.98681  0.49454  0.00877  1.0000
  H   H280      1.0  0.07952  0.64042  0.32452  1.0000
  H   H281      1.0  0.09585  0.73298  0.08948  1.0000
  C   C362      1.0  0.03115  0.65534  0.44207  1.0000
  C   C363      1.0  0.01323  0.64572  0.41130  1.0000
  C   C364      1.0  0.01972  0.65582  0.37376  1.0000
  C   C365      1.0  0.04387  0.67596  0.36681  1.0000
  C   C366      1.0  0.06159  0.68609  0.39749  1.0000
  C   C367      1.0  0.05526  0.67589  0.43503  1.0000
  C   C368      1.0  0.09444  0.75387  0.03887  1.0000
  C   C369      1.0  0.05853  0.86183  0.00070  1.0000
  C   C370      1.0  0.13346  0.85815  0.04044  1.0000
  C   C371      1.0  0.01528  0.54813  0.01084  1.0000
  H   H282      1.0  0.00716  0.67318  0.19847  1.0000
  H   H283      1.0  0.04869  0.68383  0.33771  1.0000
  H   H284      1.0  0.08018  0.70199  0.39225  1.0000
  C   C372      1.0  0.97000  0.59678  0.25889  1.0000
  H   H285      1.0  0.97916  0.54610  0.33880  1.0000
  H   H286      1.0  0.13327  0.54531  0.02295  1.0000
  H   H287      1.0  0.07436  0.80815  0.02883  1.0000
  C   C373      1.0  0.09809  0.53554  0.05308  1.0000
  H   H288      1.0  0.17302  0.72606  0.08102  1.0000
  C   C374      1.0  0.08283  0.62475  0.31423  1.0000
  C   C375      1.0  0.16664  0.77344  0.26198  1.0000
  H   H289      1.0  0.10362  0.55500  0.06275  1.0000
  Fe  Fe29      1.0  0.04979  0.84817  0.45939  1.0000
  H   H290      1.0  0.09272  0.78838  0.42196  1.0000
  H   H291      1.0  0.04909  0.51944  0.41835  1.0000
  H   H292      1.0  0.00894  0.50732  0.08903  1.0000
  C   C376      1.0  0.99021  0.53570  0.34144  1.0000
  C   C377      1.0  0.09468  0.81962  0.02483  1.0000
  C   C378      1.0  0.01200  0.61180  0.28738  1.0000
  C   C379      1.0  0.99207  0.68457  0.24817  1.0000
  C   C380      1.0  0.19140  0.81550  0.29106  1.0000
  C   C381      1.0  0.07850  0.58205  0.32301  1.0000
  C   C382      1.0  0.07492  0.55816  0.40153  1.0000
  H   H293      1.0  0.12886  0.72283  0.06214  1.0000
  S   S51       1.0  0.13759  0.48521  0.22643  1.0000
  C   C383      1.0  0.01868  0.55822  0.16371  1.0000
  H   H294      1.0  0.98531  0.85022  0.15153  1.0000
  H   H295      1.0  0.02156  0.56727  0.13548  1.0000
  H   H296      1.0  0.10490  0.59690  0.39452  1.0000
  C   C384      1.0  0.20876  0.77066  0.99534  1.0000
  H   H297      1.0  0.20713  0.81466  0.17496  1.0000
  H   H298      1.0  0.06908  0.68430  0.45858  1.0000
  H   H299      1.0  0.09650  0.84949  0.06357  1.0000
  C   C385      1.0  0.01840  0.71320  0.42367  1.0000
  C   C386      1.0  0.09498  0.58145  0.41461  1.0000
  C   C387      1.0  0.13252  0.74319  0.00864  1.0000
  H   H300      1.0  0.98236  0.66524  0.25848  1.0000
  C   C388      1.0  0.07473  0.60267  0.33651  1.0000
  H   H301      1.0  0.14917  0.75861  0.24944  1.0000
  C   C389      1.0  0.98586  0.55393  0.07056  1.0000
  C   C390      1.0  0.01864  0.71356  0.19868  1.0000
  C   C391      1.0  0.00366  0.72957  0.25324  1.0000
  H   H302      1.0  0.99418  0.63041  0.41618  1.0000
  C   C392      1.0  0.10324  0.58460  0.45370  1.0000
  C   C393      1.0  0.10726  0.84291  0.04513  1.0000
  H   H303      1.0  0.15672  0.79412  0.04894  1.0000
  C   C394      1.0  0.20131  0.78050  0.02773  1.0000
  C   C395      1.0  0.00348  0.48748  0.08261  1.0000
  C   C396      1.0  0.09338  0.91375  0.98751  1.0000
  C   C397      1.0  0.08229  0.86865  0.98303  1.0000
  H   H304      1.0  0.00593  0.64805  0.35005  1.0000
  H   H305      1.0  0.18367  0.77160  0.08469  1.0000
  C   C398      1.0  0.18825  0.76946  0.26281  1.0000
  H   H306      1.0  0.07239  0.49344  0.25230  1.0000
  C   C399      1.0  0.20452  0.51262  0.03243  1.0000
  C   C400      1.0  0.12226  0.73417  0.04541  1.0000
  C   C401      1.0  0.12362  0.91134  0.46945  1.0000
  H   H307      1.0  0.02892  0.71677  0.17140  1.0000
  C   C402      1.0  0.08465  0.48482  0.03149  1.0000
  H   H308      1.0  0.20447  0.86622  0.14135  1.0000
  H   H309      1.0  0.02934  0.71729  0.45068  1.0000
  C   C403      1.0  0.08864  0.79101  0.35975  1.0000
  H   H310      1.0  0.21312  0.95264  0.06775  1.0000
  C   C404      1.0  0.15938  0.87675  0.47783  1.0000
  S   S52       1.0  0.03808  0.82905  0.00972  1.0000
  C   C405      1.0  0.00619  0.57541  0.05490  1.0000
  C   C406      1.0  0.18279  0.73847  0.05689  1.0000
  C   C407      1.0  0.20242  0.74472  0.99318  1.0000
  H   H311      1.0  0.21008  0.50342  0.09134  1.0000
  C   C408      1.0  0.18938  0.72860  0.02393  1.0000
  H   H312      1.0  0.97445  0.55632  0.09355  1.0000
  C   C409      1.0  0.13470  0.82680  0.99540  1.0000
  C   C410      1.0  0.98030  0.52952  0.05659  1.0000
  H   H313      1.0  0.02713  0.75289  0.20675  1.0000
  C   C411      1.0  0.01403  0.72473  0.35724  1.0000
  C   C412      1.0  0.02825  0.72946  0.39193  1.0000
  H   H314      1.0  0.98660  0.67956  0.44538  1.0000
  C   C413      1.0  0.21096  0.75898  0.16938  1.0000
  H   H315      1.0  0.19596  0.80638  0.46210  1.0000
  H   H316      1.0  0.00510  0.71050  0.98751  1.0000
  C   C414      1.0  0.12354  0.75721  0.98663  1.0000
  C   C415      1.0  0.19409  0.82199  0.06925  1.0000
  C   C416      1.0  0.99028  0.70477  0.26793  1.0000
  C   C417      1.0  0.18871  0.76430  0.05879  1.0000
  C   C418      1.0  0.21301  0.81148  0.29154  1.0000
  H   H317      1.0  0.98618  0.52392  0.14476  1.0000
  P   P13       1.0  0.21084  0.81423  0.03144  1.0000
  C   C419      1.0  0.00381  0.59372  0.45888  1.0000
  H   H318      1.0  0.17308  0.88965  0.45727  1.0000
  C   C420      1.0  0.21176  0.85319  0.98556  1.0000
  C   C421      1.0  0.07227  0.54108  0.46685  1.0000
  C   C422      1.0  0.20393  0.82686  0.98759  1.0000
  H   H319      1.0  0.10661  0.48902  0.28819  1.0000
  H   H320      1.0  0.01781  0.48222  0.13820  1.0000
  P   P14       1.0  0.97042  0.69900  0.31085  1.0000
  H   H321      1.0  0.05207  0.72899  0.98878  1.0000
  S   S53       1.0  0.11486  0.94657  0.98082  1.0000
  H   H322      1.0  0.96910  0.60086  0.19616  1.0000
  C   C423      1.0  0.04340  0.74118  0.98207  1.0000
  C   C424      1.0  0.01674  0.73049  0.98098  1.0000
  Fe  Fe30      1.0  0.11179  0.52268  0.62029  1.0000
  S   S54       1.0  0.13463  0.56488  0.63606  1.0000
  H   H323      1.0  0.08281  0.55965  0.63789  1.0000
  H   H324      1.0  0.02480  0.70358  0.62585  1.0000
  H   H325      1.0  0.17709  0.97097  0.74234  1.0000
  S   S55       1.0  0.17497  0.94439  0.92531  1.0000
  S   S56       1.0  0.10143  0.49309  0.66725  1.0000
  S   S57       1.0  0.02846  0.81655  0.50254  1.0000
  C   C425      1.0  0.12238  0.83667  0.49126  1.0000
  Fe  Fe31      1.0  0.11444  0.68568  0.69453  1.0000
  S   S58       1.0  0.09110  0.69812  0.73332  1.0000
  S   S59       1.0  0.09225  0.64484  0.67087  1.0000
  Fe  Fe32      1.0  0.16065  0.73939  0.69721  1.0000
  S   S60       1.0  0.14024  0.75473  0.73652  1.0000
  S   S61       1.0  0.20004  0.76218  0.66940  1.0000
  Fe  Fe33      1.0  0.12673  0.71782  0.77050  1.0000
  S   S62       1.0  0.13120  0.71816  0.83827  1.0000
  Fe  Fe34      1.0  0.10645  0.73337  0.69587  1.0000
  S   S63       1.0  0.08293  0.75235  0.67212  1.0000
  S   S64       1.0  0.14947  0.70377  0.73309  1.0000
  S   S65       1.0  0.12739  0.71970  0.65525  1.0000
  C   C426      1.0  0.99637  0.66404  0.62809  1.0000
  H   H326      1.0  0.17138  0.80842  0.90062  1.0000
  C   C427      1.0  0.06712  0.76485  0.54333  1.0000
  C   C428      1.0  0.07497  0.74631  0.55250  1.0000
  C   C429      1.0  0.07971  0.74210  0.59163  1.0000
  C   C430      1.0  0.07720  0.75683  0.62217  1.0000
  C   C431      1.0  0.06934  0.77537  0.61298  1.0000
  C   C432      1.0  0.06448  0.77949  0.57385  1.0000
  H   H327      1.0  0.07747  0.73512  0.52918  1.0000
  H   H328      1.0  0.08560  0.72767  0.59810  1.0000
  H   H329      1.0  0.06712  0.78675  0.63632  1.0000
  H   H330      1.0  0.05860  0.79394  0.56740  1.0000
  C   C433      1.0  0.11623  0.69878  0.88011  1.0000
  C   C434      1.0  0.12912  0.70521  0.91658  1.0000
  H   H331      1.0  0.05474  0.57463  0.75453  1.0000
  H   H332      1.0  0.02844  0.57284  0.69767  1.0000
  C   C435      1.0  0.08083  0.66342  0.91254  1.0000
  C   C436      1.0  0.09199  0.67759  0.87837  1.0000
  H   H333      1.0  0.14793  0.72135  0.91850  1.0000
  C   C437      1.0  0.00838  0.58644  0.63557  1.0000
  H   H334      1.0  0.06197  0.64734  0.91071  1.0000
  H   H335      1.0  0.08166  0.67231  0.85084  1.0000
  C   C438      1.0  0.03846  0.49446  0.90747  1.0000
  C   C439      1.0  0.03464  0.58619  0.58098  1.0000
  H   H336      1.0  0.09451  0.54522  0.71404  1.0000
  H   H337      1.0  0.11063  0.59544  0.86283  1.0000
  S   S66       1.0  0.12907  0.50427  0.57971  1.0000
  H   H338      1.0  0.11431  0.63872  0.86882  1.0000
  C   C440      1.0  0.16207  0.92934  0.58435  1.0000
  C   C441      1.0  0.02294  0.60523  0.71653  1.0000
  C   C442      1.0  0.11512  0.78684  0.84395  1.0000
  C   C443      1.0  0.98278  0.48582  0.65615  1.0000
  C   C444      1.0  0.97797  0.68520  0.53559  1.0000
  H   H339      1.0  0.09374  0.93856  0.52246  1.0000
  H   H340      1.0  0.05820  0.69612  0.65842  1.0000
  H   H341      1.0  0.98429  0.73724  0.97040  1.0000
  P   P15       1.0  0.00272  0.60350  0.67553  1.0000
  C   C445      1.0  0.12232  0.58658  0.64655  1.0000
  C   C446      1.0  0.13942  0.61206  0.65621  1.0000
  C   C447      1.0  0.13054  0.63012  0.66400  1.0000
  C   C448      1.0  0.10441  0.62280  0.66226  1.0000
  C   C449      1.0  0.08728  0.59725  0.65304  1.0000
  C   C450      1.0  0.09615  0.57920  0.64522  1.0000
  H   H342      1.0  0.15969  0.61790  0.65735  1.0000
  H   H343      1.0  0.14394  0.64970  0.67106  1.0000
  H   H344      1.0  0.06706  0.59139  0.65185  1.0000
  H   H345      1.0  0.06375  0.60704  0.80722  1.0000
  C   C451      1.0  0.12339  0.84402  0.53055  1.0000
  C   C452      1.0  0.14211  0.86804  0.54361  1.0000
  P   P16       1.0  0.14266  0.87707  0.59439  1.0000
  C   C453      1.0  0.11224  0.87529  0.60747  1.0000
  C   C454      1.0  0.14988  0.85514  0.62187  1.0000
  C   C455      1.0  0.13102  0.83567  0.64392  1.0000
  C   C456      1.0  0.13693  0.81883  0.66491  1.0000
  C   C457      1.0  0.16150  0.82099  0.66355  1.0000
  C   C458      1.0  0.18014  0.83978  0.64068  1.0000
  C   C459      1.0  0.17423  0.85650  0.61941  1.0000
  C   C460      1.0  0.10677  0.87723  0.64701  1.0000
  C   C461      1.0  0.08359  0.87667  0.65748  1.0000
  C   C462      1.0  0.06595  0.87464  0.62851  1.0000
  C   C463      1.0  0.07155  0.87336  0.58907  1.0000
  C   C464      1.0  0.09465  0.87385  0.57850  1.0000
  C   C465      1.0  0.16541  0.91011  0.60337  1.0000
  C   C466      1.0  0.08186  0.54443  0.77401  1.0000
  C   C467      1.0  0.07854  0.53765  0.73403  1.0000
  C   C468      1.0  0.18537  0.91713  0.63083  1.0000
  C   C469      1.0  0.04714  0.58814  0.75248  1.0000
  H   H346      1.0  0.10926  0.83114  0.55064  1.0000
  H   H347      1.0  0.11163  0.83304  0.64455  1.0000
  H   H348      1.0  0.12231  0.80379  0.68181  1.0000
  H   H349      1.0  0.16588  0.80763  0.67938  1.0000
  H   H350      1.0  0.05090  0.59634  0.56221  1.0000
  H   H351      1.0  0.18868  0.87059  0.60121  1.0000
  H   H352      1.0  0.12048  0.87932  0.66969  1.0000
  H   H353      1.0  0.07940  0.87807  0.68803  1.0000
  H   H354      1.0  0.04808  0.87442  0.63650  1.0000
  H   H355      1.0  0.05817  0.87241  0.56645  1.0000
  H   H356      1.0  0.09876  0.87363  0.54765  1.0000
  H   H357      1.0  0.18798  0.90298  0.64710  1.0000
  C   C470      1.0  0.17749  0.59011  0.72662  1.0000
  C   C471      1.0  0.17611  0.56726  0.71210  1.0000
  C   C472      1.0  0.15594  0.54397  0.72287  1.0000
  C   C473      1.0  0.13687  0.54351  0.74760  1.0000
  C   C474      1.0  0.13770  0.56642  0.76141  1.0000
  C   C475      1.0  0.15854  0.58974  0.75156  1.0000
  S   S67       1.0  0.06060  0.76865  0.49347  1.0000
  H   H358      1.0  0.19043  0.56758  0.69197  1.0000
  H   H359      1.0  0.05049  0.49390  0.88397  1.0000
  H   H360      1.0  0.16023  0.60769  0.76268  1.0000
  H   H361      1.0  0.11537  0.60270  0.73705  1.0000
  H   H362      1.0  0.11852  0.64574  0.74380  1.0000
  H   H363      1.0  0.05212  0.51471  0.68881  1.0000
  C   C476      1.0  0.97369  0.55554  0.49159  1.0000
  H   H364      1.0  0.20259  0.80613  0.71472  1.0000
  C   C477      1.0  0.98927  0.59674  0.52415  1.0000
  C   C478      1.0  0.02911  0.59940  0.61063  1.0000
  C   C479      1.0  0.08980  0.64591  0.52729  1.0000
  H   H365      1.0  0.18612  0.85513  0.89704  1.0000
  C   C480      1.0  0.01969  0.55985  0.57632  1.0000
  Fe  Fe35      1.0  0.15638  0.96330  0.96119  1.0000
  H   H366      1.0  0.03856  0.69546  0.51780  1.0000
  C   C481      1.0  0.17128  0.81699  0.52918  1.0000
  C   C482      1.0  0.04335  0.62454  0.77864  1.0000
  C   C483      1.0  0.03234  0.58735  0.72000  1.0000
  H   H367      1.0  0.04155  0.61957  0.61493  1.0000
  H   H368      1.0  0.04912  0.65296  0.67903  1.0000
  H   H369      1.0  0.97773  0.59645  0.75248  1.0000
  H   H370      1.0  0.09859  0.49896  0.89219  1.0000
  H   H371      1.0  0.07875  0.67303  0.60851  1.0000
  H   H372      1.0  0.12013  0.78794  0.81324  1.0000
  H   H373      1.0  0.97860  0.54913  0.65158  1.0000
  C   C484      1.0  0.97823  0.64641  0.51201  1.0000
  H   H374      1.0  0.06250  0.54067  0.82921  1.0000
  Fe  Fe36      1.0  0.20754  0.96215  0.96897  1.0000
  C   C485      1.0  0.03415  0.65574  0.66503  1.0000
  C   C486      1.0  0.11718  0.63482  0.76972  1.0000
  H   H375      1.0  0.01159  0.75663  0.56824  1.0000
  C   C487      1.0  0.19110  0.84725  0.92221  1.0000
  C   C488      1.0  0.05242  0.60655  0.78196  1.0000
  C   C489      1.0  0.11840  0.80874  0.86470  1.0000
  C   C490      1.0  0.03944  0.68027  0.65314  1.0000
  C   C491      1.0  0.10487  0.76330  0.86260  1.0000
  C   C492      1.0  0.09818  0.76163  0.90209  1.0000
  C   C493      1.0  0.10223  0.78367  0.92350  1.0000
  C   C494      1.0  0.11175  0.80715  0.90427  1.0000
  C   C495      1.0  0.97452  0.75058  0.54886  1.0000
  C   C496      1.0  0.99179  0.74985  0.57617  1.0000
  H   H376      1.0  0.20325  0.52025  0.97117  1.0000
  C   C497      1.0  0.99096  0.63949  0.64019  1.0000
  H   H377      1.0  0.16951  0.77540  0.61749  1.0000
  C   C498      1.0  0.03319  0.50447  0.97473  1.0000
  C   C499      1.0  0.00975  0.63516  0.65917  1.0000
  H   H378      1.0  0.98802  0.52617  0.59837  1.0000
  H   H379      1.0  0.17604  0.96979  0.57710  1.0000
  C   C500      1.0  0.99641  0.48491  0.93146  1.0000
  H   H380      1.0  0.98106  0.51521  0.85672  1.0000
  C   C501      1.0  0.11541  0.61042  0.76602  1.0000
  C   C502      1.0  0.06837  0.64200  0.50492  1.0000
  H   H381      1.0  0.10344  0.63996  0.51605  1.0000
  C   C503      1.0  0.00686  0.49505  0.96847  1.0000
  C   C504      1.0  0.97411  0.57027  0.52419  1.0000
  C   C505      1.0  0.11719  0.64514  0.80675  1.0000
  C   C506      1.0  0.18286  0.82096  0.92423  1.0000
  C   C507      1.0  0.19420  0.81894  0.54466  1.0000
  H   H382      1.0  0.10195  0.74624  0.84636  1.0000
  H   H383      1.0  0.08993  0.74312  0.91588  1.0000
  H   H384      1.0  0.11375  0.82418  0.91954  1.0000
  C   C508      1.0  0.98356  0.74067  0.61374  1.0000
  C   C509      1.0  0.10463  0.52780  0.84955  1.0000
  H   H385      1.0  0.01488  0.49696  0.73314  1.0000
  S   S68       1.0  0.19268  0.97798  0.82365  1.0000
  C   C510      1.0  0.04649  0.78189  0.96289  1.0000
  C   C511      1.0  0.12910  0.53546  0.90971  1.0000
  C   C512      1.0  0.01802  0.68506  0.52043  1.0000
  H   H386      1.0  0.18206  0.50135  0.64545  1.0000
  H   H387      1.0  0.11876  0.66417  0.80950  1.0000
  H   H388      1.0  0.15935  0.57372  0.91839  1.0000
  H   H389      1.0  0.06925  0.51161  0.94954  1.0000
  C   C513      1.0  0.00496  0.74551  0.97111  1.0000
  H   H390      1.0  0.98929  0.60785  0.54966  1.0000
  H   H391      1.0  0.10993  0.65994  0.58226  1.0000
  C   C514      1.0  0.96968  0.58746  0.69049  1.0000
  H   H392      1.0  0.13305  0.52853  0.93681  1.0000
  H   H393      1.0  0.10741  0.81837  0.48135  1.0000
  H   H394      1.0  0.17438  0.92072  0.75311  1.0000
  C   C515      1.0  0.14390  0.56093  0.89936  1.0000
  H   H395      1.0  0.14561  0.82057  0.97677  1.0000
  C   C516      1.0  0.13429  0.95657  0.51114  1.0000
  H   H396      1.0  0.98098  0.75798  0.51984  1.0000
  H   H397      1.0  0.01488  0.71826  0.54032  1.0000
  C   C517      1.0  0.00500  0.65898  0.51063  1.0000
  C   C518      1.0  0.17001  0.78682  0.59255  1.0000
  H   H398      1.0  0.01075  0.78283  0.95416  1.0000
  H   H399      1.0  0.12938  0.77152  0.58937  1.0000
  H   H400      1.0  0.12573  0.82687  0.84996  1.0000
  C   C519      1.0  0.20215  0.94289  0.63808  1.0000
  H   H401      1.0  0.11794  0.89933  0.96332  1.0000
  C   C520      1.0  0.01985  0.77114  0.96184  1.0000
  C   C521      1.0  0.11886  0.55360  0.83959  1.0000
  P   P17       1.0  0.11309  0.56529  0.79392  1.0000
  C   C522      1.0  0.05422  0.66039  0.55737  1.0000
  C   C523      1.0  0.07588  0.66462  0.57936  1.0000
  C   C524      1.0  0.09355  0.65723  0.56451  1.0000
  H   H402      1.0  0.16636  0.87784  0.72802  1.0000
  C   C525      1.0  0.11478  0.63079  0.84016  1.0000
  C   C526      1.0  0.05051  0.64939  0.51969  1.0000
  H   H403      1.0  0.97249  0.54171  0.80871  1.0000
  S   S69       1.0  0.07104  0.88920  0.48441  1.0000
  H   H404      1.0  0.09000  0.51445  0.82998  1.0000
  C   C527      1.0  0.18899  0.81074  0.95696  1.0000
  H   H405      1.0  0.04031  0.66529  0.57025  1.0000
  H   H406      1.0  0.15104  0.58955  0.85616  1.0000
  C   C528      1.0  0.10348  0.91370  0.48740  1.0000
  C   C529      1.0  0.11409  0.59629  0.79946  1.0000
  C   C530      1.0  0.18563  0.89339  0.72908  1.0000
  C   C531      1.0  0.21501  0.93742  0.74502  1.0000
  H   H407      1.0  0.05768  0.80180  0.95546  1.0000
  C   C532      1.0  0.10908  0.93643  0.50839  1.0000
  H   H408      1.0  0.13193  0.76407  0.95835  1.0000
  C   C533      1.0  0.00458  0.69808  0.53303  1.0000
  H   H409      1.0  0.99708  0.74027  0.63497  1.0000
  C   C534      1.0  0.09366  0.66999  0.94908  1.0000
  S   S70       1.0  0.07341  0.50380  0.59081  1.0000
  C   C535      1.0  0.11295  0.60632  0.83658  1.0000
  H   H410      1.0  0.14644  0.92444  0.56376  1.0000
  C   C536      1.0  0.10962  0.51885  0.88465  1.0000
  H   H411      1.0  0.13009  0.79788  0.53305  1.0000
  C   C537      1.0  0.05441  0.52063  0.71939  1.0000
  H   H412      1.0  0.04779  0.63905  0.80125  1.0000
  C   C538      1.0  0.02057  0.68446  0.63474  1.0000
  C   C539      1.0  0.19338  0.80430  0.57726  1.0000
  H   H413      1.0  0.12126  0.52528  0.75534  1.0000
  C   C540      1.0  0.03339  0.51073  0.74429  1.0000
  C   C541      1.0  0.14787  0.79964  0.54495  1.0000
  H   H414      1.0  0.17150  0.82896  0.50524  1.0000
  H   H415      1.0  0.02157  0.63786  0.74417  1.0000
  C   C542      1.0  0.17877  0.95507  0.59191  1.0000
  H   H416      1.0  0.20265  0.87080  0.70538  1.0000
  H   H417      1.0  0.00328  0.49717  0.65933  1.0000
  C   C543      1.0  0.11810  0.69080  0.95058  1.0000
  C   C544      1.0  0.20603  0.88944  0.71613  1.0000
  H   H418      1.0  0.19306  0.60814  0.71797  1.0000
  C   C545      1.0  0.13902  0.56990  0.86421  1.0000
  H   H419      1.0  0.01997  0.51029  0.80290  1.0000
  C   C546      1.0  0.19011  0.91746  0.74316  1.0000
  C   C547      1.0  0.02865  0.62390  0.74609  1.0000
  H   H420      1.0  0.15484  0.52629  0.71128  1.0000
  C   C548      1.0  0.05848  0.76717  0.97392  1.0000
  C   C549      1.0  0.99935  0.54666  0.60162  1.0000
  C   C550      1.0  0.03635  0.51809  0.78376  1.0000
  C   C551      1.0  0.06046  0.53508  0.79855  1.0000
  C   C552      1.0  0.99388  0.55982  0.63147  1.0000
  C   C553      1.0  0.04896  0.50430  0.94433  1.0000
  C   C554      1.0  0.14731  0.78459  0.57656  1.0000
  C   C555      1.0  0.19897  0.96186  0.61842  1.0000
  H   H421      1.0  0.17477  0.90300  0.52618  1.0000
  C   C556      1.0  0.16026  0.88430  0.51705  1.0000
  H   H422      1.0  0.02413  0.54962  0.55349  1.0000
  C   C557      1.0  0.21405  0.49461  0.66135  1.0000
  H   H423      1.0  0.09889  0.56654  0.50973  1.0000
  H   H424      1.0  0.06426  0.52504  0.48662  1.0000
  H   H425      1.0  0.98166  0.66725  0.61400  1.0000
  H   H426      1.0  0.19908  0.84114  0.63906  1.0000
  C   C558      1.0  0.15439  0.95433  0.49281  1.0000
  P   P18       1.0  0.09287  0.78111  0.97418  1.0000
  C   C559      1.0  0.18811  0.48715  0.65278  1.0000
  C   C560      1.0  0.00361  0.60876  0.49100  1.0000
  H   H427      1.0  0.21075  0.80645  0.59129  1.0000
  C   C561      1.0  0.96931  0.50635  0.83108  1.0000
  H   H428      1.0  0.18161  0.79027  0.95836  1.0000
  H   H429      1.0  0.97474  0.49782  0.71144  1.0000
  H   H430      1.0  0.13810  0.97387  0.52726  1.0000
  C   C562      1.0  0.01222  0.48469  0.90111  1.0000
  Fe  Fe37      1.0  0.08967  0.48298  0.55298  1.0000
  P   P19       1.0  0.02245  0.64308  0.49091  1.0000
  C   C563      1.0  0.20547  0.86335  0.95296  1.0000
  H   H431      1.0  0.21209  0.88356  0.50873  1.0000
  H   H432      1.0  0.20787  0.73713  0.96786  1.0000
  H   H433      1.0  0.97204  0.62410  0.63503  1.0000
  H   H434      1.0  0.08724  0.85390  0.97388  1.0000
  H   H435      1.0  0.21148  0.88372  0.95182  1.0000
  C   C564      1.0  0.09194  0.56440  0.47977  1.0000
  C   C565      1.0  0.09971  0.89443  0.97676  1.0000
  H   H436      1.0  0.12853  0.69562  0.97798  1.0000
  H   H437      1.0  0.21808  0.95588  0.75623  1.0000
  H   H438      1.0  0.21751  0.94817  0.65917  1.0000
  H   H439      1.0  0.22602  0.02051  0.07651  1.0000
  H   H440      1.0  0.35599  0.30244  0.38520  1.0000
  S   S71       1.0  0.38870  0.43936  0.16547  1.0000
  H   H441      1.0  0.34987  0.02750  0.06495  1.0000
  C   C566      1.0  0.23415  0.40552  0.24069  1.0000
  C   C567      1.0  0.35291  0.99382  0.16384  1.0000
  S   S72       1.0  0.28174  0.45036  0.14602  1.0000
  H   H442      1.0  0.22474  0.22738  0.30442  1.0000
  S   S73       1.0  0.33871  0.44860  0.09691  1.0000
  Fe  Fe38      1.0  0.43710  0.40631  0.37178  1.0000
  C   C568      1.0  0.34101  0.27957  0.08034  1.0000
  S   S74       1.0  0.41536  0.42629  0.34417  1.0000
  Fe  Fe39      1.0  0.45001  0.39256  0.45460  1.0000
  C   C569      1.0  0.27974  0.45305  0.03155  1.0000
  C   C570      1.0  0.31971  0.26753  0.10436  1.0000
  C   C571      1.0  0.39203  0.21146  0.40028  1.0000
  H   H443      1.0  0.38252  0.19970  0.00937  1.0000
  H   H444      1.0  0.45833  0.47559  0.26979  1.0000
  S   S75       1.0  0.41804  0.37223  0.41101  1.0000
  C   C572      1.0  0.25475  0.00388  0.27777  1.0000
  H   H445      1.0  0.23187  0.31729  0.32941  1.0000
  H   H446      1.0  0.29407  0.13034  0.97877  1.0000
  C   C573      1.0  0.22630  0.22197  0.24175  1.0000
  S   S76       1.0  0.23589  0.26763  0.41686  1.0000
  P   P20       1.0  0.30167  0.02171  0.18249  1.0000
  H   H447      1.0  0.38753  0.06408  0.09379  1.0000
  Fe  Fe40      1.0  0.25803  0.23750  0.01865  1.0000
  C   C574      1.0  0.30660  0.24092  0.10539  1.0000
  C   C575      1.0  0.28951  0.39849  0.21042  1.0000
  S   S77       1.0  0.23804  0.25295  0.05942  1.0000
  S   S78       1.0  0.24906  0.20341  0.05679  1.0000
  Fe  Fe41      1.0  0.44673  0.19670  0.30354  1.0000
  S   S79       1.0  0.41006  0.17664  0.26942  1.0000
  C   C576      1.0  0.23455  0.00053  0.12221  1.0000
  Fe  Fe42      1.0  0.45249  0.14798  0.31000  1.0000
  S   S80       1.0  0.41559  0.12435  0.27689  1.0000
  Fe  Fe43      1.0  0.42931  0.15725  0.23498  1.0000
  S   S81       1.0  0.42338  0.15413  0.16755  1.0000
  Fe  Fe44      1.0  0.39918  0.14528  0.31396  1.0000
  S   S82       1.0  0.35768  0.12704  0.33618  1.0000
  C   C577      1.0  0.23105  0.09983  0.01929  1.0000
  S   S83       1.0  0.43506  0.16653  0.34978  1.0000
  H   H448      1.0  0.29039  0.25067  0.44983  1.0000
  P   P21       1.0  0.34622  0.21905  0.02808  1.0000
  C   C578      1.0  0.25003  0.41320  0.06084  1.0000
  C   C579      1.0  0.27808  0.02113  0.14779  1.0000
  C   C580      1.0  0.22996  0.41886  0.05300  1.0000
  H   H449      1.0  0.23548  0.20989  0.24465  1.0000
  H   H450      1.0  0.35378  0.02734  0.19015  1.0000
  C   C581      1.0  0.36000  0.20491  0.09911  1.0000
  C   C582      1.0  0.43518  0.14438  0.12559  1.0000
  C   C583      1.0  0.42502  0.14467  0.08827  1.0000
  C   C584      1.0  0.43415  0.13804  0.05395  1.0000
  C   C585      1.0  0.45342  0.13052  0.05634  1.0000
  C   C586      1.0  0.22113  0.22794  0.20398  1.0000
  C   C587      1.0  0.45435  0.13670  0.12805  1.0000
  H   H451      1.0  0.34337  0.40134  0.25164  1.0000
  H   H452      1.0  0.40105  0.18110  0.12208  1.0000
  H   H453      1.0  0.44871  0.24660  0.04914  1.0000
  C   C588      1.0  0.40705  0.98097  0.31894  1.0000
  C   C589      1.0  0.34308  0.11593  0.38282  1.0000
  C   C590      1.0  0.35722  0.11787  0.41680  1.0000
  H   H454      1.0  0.24665  0.10141  0.03774  1.0000
  C   C591      1.0  0.32620  0.06688  0.22722  1.0000
  C   C592      1.0  0.30373  0.09531  0.42159  1.0000
  C   C593      1.0  0.31626  0.10478  0.38565  1.0000
  H   H455      1.0  0.37781  0.12640  0.41536  1.0000
  H   H456      1.0  0.36522  0.27482  0.03802  1.0000
  H   H457      1.0  0.28313  0.08667  0.42302  1.0000
  H   H458      1.0  0.30503  0.10322  0.35975  1.0000
  P   P22       1.0  0.23852  0.37730  0.23323  1.0000
  Fe  Fe45      1.0  0.22653  0.21753  0.09503  1.0000
  C   C594      1.0  0.39027  0.43443  0.05160  1.0000
  H   H459      1.0  0.45234  0.25088  0.43222  1.0000
  H   H460      1.0  0.31299  0.27880  0.12148  1.0000
  C   C595      1.0  0.29832  0.19756  0.99210  1.0000
  C   C596      1.0  0.25491  0.43013  0.23977  1.0000
  C   C597      1.0  0.25111  0.45164  0.24574  1.0000
  H   H461      1.0  0.30639  0.98145  0.06150  1.0000
  C   C598      1.0  0.36445  0.38102  0.47099  1.0000
  H   H462      1.0  0.29917  0.21620  0.99546  1.0000
  C   C599      1.0  0.43632  0.29477  0.35217  1.0000
  H   H463      1.0  0.34495  0.10172  0.26119  1.0000
  C   C600      1.0  0.42968  0.25295  0.32702  1.0000
  C   C601      1.0  0.45573  0.26019  0.33135  1.0000
  C   C602      1.0  0.27402  0.00804  0.01431  1.0000
  C   C603      1.0  0.29726  0.14304  0.47052  1.0000
  C   C604      1.0  0.39393  0.24934  0.43176  1.0000
  C   C605      1.0  0.30159  0.17156  0.41745  1.0000
  C   C606      1.0  0.36791  0.23778  0.99020  1.0000
  C   C607      1.0  0.34469  0.10852  0.45278  1.0000
  C   C608      1.0  0.25726  0.46010  0.14889  1.0000
  C   C609      1.0  0.23167  0.44129  0.15179  1.0000
  C   C610      1.0  0.27177  0.38498  0.23956  1.0000
  S   S84       1.0  0.22701  0.05294  0.99729  1.0000
  H   H464      1.0  0.38989  0.31413  0.44690  1.0000
  C   C611      1.0  0.39656  0.43662  0.21534  1.0000
  C   C612      1.0  0.40768  0.42061  0.22409  1.0000
  C   C613      1.0  0.41378  0.41741  0.26307  1.0000
  C   C614      1.0  0.40874  0.43012  0.29410  1.0000
  C   C615      1.0  0.39769  0.44620  0.28536  1.0000
  C   C616      1.0  0.39175  0.44954  0.24635  1.0000
  H   H465      1.0  0.41157  0.41052  0.20051  1.0000
  H   H466      1.0  0.42227  0.40498  0.26902  1.0000
  H   H467      1.0  0.39360  0.45613  0.30895  1.0000
  H   H468      1.0  0.36240  0.33484  0.45761  1.0000
  H   H469      1.0  0.37895  0.98005  0.04310  1.0000
  H   H470      1.0  0.29918  0.46605  0.02374  1.0000
  C   C617      1.0  0.34262  0.39786  0.42938  1.0000
  C   C618      1.0  0.31522  0.40436  0.21486  1.0000
  H   H471      1.0  0.27398  0.43302  0.23351  1.0000
  Fe  Fe46      1.0  0.32431  0.47241  0.13108  1.0000
  H   H472      1.0  0.34308  0.41023  0.40583  1.0000
  H   H473      1.0  0.34723  0.21076  0.11360  1.0000
  C   C619      1.0  0.32339  0.39660  0.24822  1.0000
  H   H474      1.0  0.39621  0.46825  0.02077  1.0000
  C   C620      1.0  0.32581  0.05421  0.19190  1.0000
  H   H475      1.0  0.28974  0.23162  0.12341  1.0000
  C   C621      1.0  0.43991  0.04236  0.25786  1.0000
  C   C622      1.0  0.27481  0.43009  0.04956  1.0000
  C   C623      1.0  0.23884  0.34931  0.16699  1.0000
  C   C624      1.0  0.34919  0.26502  0.05720  1.0000
  C   C625      1.0  0.37009  0.39486  0.01428  1.0000
  C   C626      1.0  0.31465  0.22631  0.08216  1.0000
  C   C627      1.0  0.30182  0.97936  0.14553  1.0000
  H   H476      1.0  0.35070  0.30019  0.07870  1.0000
  H   H477      1.0  0.34456  0.05781  0.13613  1.0000
  H   H478      1.0  0.45013  0.98312  0.26668  1.0000
  C   C628      1.0  0.37364  0.19570  0.12192  1.0000
  C   C629      1.0  0.25975  0.45907  0.02410  1.0000
  H   H479      1.0  0.37256  0.99912  0.17150  1.0000
  C   C630      1.0  0.33609  0.23824  0.05799  1.0000
  C   C631      1.0  0.39573  0.02756  0.00407  1.0000
  C   C632      1.0  0.30758  0.25457  0.43366  1.0000
  H   H480      1.0  0.24653  0.39596  0.07621  1.0000
  H   H481      1.0  0.38271  0.40837  0.42539  1.0000
  C   C633      1.0  0.25325  0.00070  0.14771  1.0000
  C   C634      1.0  0.21997  0.23167  0.27581  1.0000
  C   C635      1.0  0.28528  0.00749  0.22738  1.0000
  C   C636      1.0  0.31656  0.00282  0.16467  1.0000
  C   C637      1.0  0.45752  0.23539  0.06025  1.0000
  C   C638      1.0  0.24049  0.02061  0.09636  1.0000
  C   C639      1.0  0.30584  0.38296  0.27720  1.0000
  C   C640      1.0  0.42007  0.27012  0.33744  1.0000
  C   C641      1.0  0.27323  0.23065  0.34264  1.0000
  C   C642      1.0  0.27522  0.21485  0.31352  1.0000
  C   C643      1.0  0.28495  0.22481  0.27684  1.0000
  C   C644      1.0  0.29274  0.25059  0.26925  1.0000
  C   C645      1.0  0.29067  0.26660  0.29829  1.0000
  C   C646      1.0  0.28095  0.25641  0.33513  1.0000
  P   P23       1.0  0.30311  0.30050  0.29002  1.0000
  C   C647      1.0  0.28704  0.31255  0.32275  1.0000
  C   C648      1.0  0.33710  0.31605  0.29928  1.0000
  C   C649      1.0  0.34981  0.34207  0.30972  1.0000
  C   C650      1.0  0.37618  0.35419  0.31605  1.0000
  C   C651      1.0  0.39009  0.34055  0.31165  1.0000
  C   C652      1.0  0.37766  0.31472  0.30113  1.0000
  C   C653      1.0  0.35127  0.30247  0.29498  1.0000
  C   C654      1.0  0.26359  0.31132  0.31166  1.0000
  C   C655      1.0  0.46317  0.12964  0.09375  1.0000
  C   C656      1.0  0.41995  0.25816  0.43939  1.0000
  C   C657      1.0  0.28320  0.32891  0.38675  1.0000
  C   C658      1.0  0.29672  0.32128  0.36065  1.0000
  C   C659      1.0  0.29730  0.30725  0.24046  1.0000
  C   C660      1.0  0.27665  0.28912  0.21856  1.0000
  C   C661      1.0  0.27205  0.29435  0.18035  1.0000
  C   C662      1.0  0.28770  0.31803  0.16399  1.0000
  C   C663      1.0  0.30797  0.33648  0.18588  1.0000
  C   C664      1.0  0.31281  0.33112  0.22391  1.0000
  H   H482      1.0  0.26563  0.22298  0.37114  1.0000
  H   H483      1.0  0.26911  0.19486  0.31930  1.0000
  H   H484      1.0  0.28618  0.21247  0.25409  1.0000
  H   H485      1.0  0.30044  0.25802  0.24077  1.0000
  H   H486      1.0  0.27923  0.26820  0.35823  1.0000
  H   H487      1.0  0.33947  0.35312  0.31270  1.0000
  H   H488      1.0  0.38591  0.37422  0.32418  1.0000
  H   H489      1.0  0.41054  0.34991  0.31647  1.0000
  H   H490      1.0  0.38861  0.30423  0.29801  1.0000
  H   H491      1.0  0.34220  0.28249  0.28678  1.0000
  H   H492      1.0  0.25501  0.30356  0.28337  1.0000
  H   H493      1.0  0.25743  0.01123  0.01781  1.0000
  H   H494      1.0  0.30252  0.38425  0.44106  1.0000
  H   H495      1.0  0.29006  0.33467  0.41641  1.0000
  H   H496      1.0  0.31430  0.32156  0.37042  1.0000
  H   H497      1.0  0.26398  0.27098  0.23108  1.0000
  H   H498      1.0  0.25628  0.27998  0.16347  1.0000
  H   H499      1.0  0.28408  0.32209  0.13441  1.0000
  H   H500      1.0  0.31998  0.35499  0.17339  1.0000
  H   H501      1.0  0.32859  0.34574  0.24018  1.0000
  H   H502      1.0  0.42745  0.20919  0.39863  1.0000
  C   C665      1.0  0.37122  0.02006  0.01930  1.0000
  H   H503      1.0  0.29031  0.42568  0.05574  1.0000
  C   C666      1.0  0.41797  0.22020  0.40842  1.0000
  H   H504      1.0  0.37127  0.19447  0.15343  1.0000
  C   C667      1.0  0.31983  0.38323  0.44909  1.0000
  P   P24       1.0  0.34641  0.21502  0.39931  1.0000
  C   C668      1.0  0.33698  0.23999  0.40714  1.0000
  C   C669      1.0  0.37984  0.22617  0.41126  1.0000
  C   C670      1.0  0.31828  0.19309  0.00612  1.0000
  C   C671      1.0  0.22662  0.44884  0.25260  1.0000
  H   H505      1.0  0.22736  0.42144  0.15045  1.0000
  Fe  Fe47      1.0  0.22042  0.28654  0.45966  1.0000
  C   C672      1.0  0.33764  0.18060  0.46037  1.0000
  C   C673      1.0  0.35176  0.26447  0.39189  1.0000
  C   C674      1.0  0.34435  0.28365  0.39708  1.0000
  C   C675      1.0  0.39357  0.18962  0.06362  1.0000
  H   H506      1.0  0.39984  0.25718  0.03015  1.0000
  C   C676      1.0  0.31486  0.23527  0.42831  1.0000
  C   C677      1.0  0.34196  0.20461  0.34845  1.0000
  C   C678      1.0  0.34193  0.22071  0.31842  1.0000
  C   C679      1.0  0.33904  0.21252  0.27926  1.0000
  C   C680      1.0  0.33602  0.18819  0.26971  1.0000
  C   C681      1.0  0.33583  0.17200  0.29932  1.0000
  C   C682      1.0  0.33874  0.18010  0.33846  1.0000
  H   H507      1.0  0.26911  0.98924  0.06951  1.0000
  C   C683      1.0  0.29018  0.98938  0.24710  1.0000
  C   C684      1.0  0.26734  0.01453  0.24289  1.0000
  H   H508      1.0  0.29319  0.17623  0.39257  1.0000
  H   H509      1.0  0.24118  0.00964  0.28991  1.0000
  C   C685      1.0  0.38358  0.31560  0.47623  1.0000
  C   C686      1.0  0.45505  0.06152  0.32183  1.0000
  H   H510      1.0  0.24827  0.98494  0.16755  1.0000
  C   C687      1.0  0.36281  0.09247  0.17021  1.0000
  S   S85       1.0  0.46516  0.12082  0.01422  1.0000
  H   H511      1.0  0.36917  0.26886  0.37607  1.0000
  H   H512      1.0  0.31652  0.29352  0.42199  1.0000
  H   H513      1.0  0.30225  0.30921  0.47630  1.0000
  C   C688      1.0  0.46550  0.98146  0.25190  1.0000
  H   H514      1.0  0.34425  0.23960  0.32475  1.0000
  H   H515      1.0  0.33934  0.22515  0.25629  1.0000
  H   H516      1.0  0.33399  0.18189  0.23940  1.0000
  H   H517      1.0  0.33373  0.15318  0.29206  1.0000
  H   H518      1.0  0.33873  0.16716  0.36078  1.0000
  C   C689      1.0  0.41389  0.06138  0.05296  1.0000
  H   H519      1.0  0.25298  0.34582  0.18239  1.0000
  C   C690      1.0  0.31785  0.09700  0.45550  1.0000
  H   H520      1.0  0.42483  0.06413  0.29007  1.0000
  P   P25       1.0  0.34373  0.99308  0.99830  1.0000
  C   C691      1.0  0.23033  0.33805  0.13002  1.0000
  C   C692      1.0  0.26514  0.04091  0.09601  1.0000
  C   C693      1.0  0.31618  0.99858  0.00427  1.0000
  S   S86       1.0  0.23102  0.21617  0.16216  1.0000
  C   C694      1.0  0.31678  0.16877  0.00082  1.0000
  H   H521      1.0  0.39861  0.01742  0.97950  1.0000
  H   H522      1.0  0.31255  0.05750  0.25008  1.0000
  H   H523      1.0  0.43039  0.07737  0.06576  1.0000
  C   C695      1.0  0.32721  0.18722  0.42807  1.0000
  Fe  Fe48      1.0  0.37234  0.46465  0.13888  1.0000
  H   H524      1.0  0.35738  0.19206  0.46900  1.0000
  C   C696      1.0  0.38066  0.40796  0.04941  1.0000
  C   C697      1.0  0.38969  0.05382  0.06873  1.0000
  C   C698      1.0  0.43200  0.24367  0.42752  1.0000
  C   C699      1.0  0.36841  0.03318  0.05207  1.0000
  H   H525      1.0  0.38123  0.39766  0.07515  1.0000
  C   C700      1.0  0.38910  0.44777  0.01878  1.0000
  C   C701      1.0  0.36495  0.39681  0.44041  1.0000
  S   S87       1.0  0.46723  0.42818  0.41766  1.0000
  C   C702      1.0  0.36308  0.20657  0.05827  1.0000
  H   H526      1.0  0.40984  0.14995  0.08586  1.0000
  H   H527      1.0  0.42598  0.13833  0.02573  1.0000
  H   H528      1.0  0.30265  0.05736  0.12089  1.0000
  C   C703      1.0  0.43843  0.05651  0.29001  1.0000
  H   H529      1.0  0.37709  0.12450  0.21057  1.0000
  H   H530      1.0  0.43101  0.27664  0.45338  1.0000
  C   C704      1.0  0.39043  0.18810  0.10422  1.0000
  H   H531      1.0  0.38517  0.26097  0.44138  1.0000
  C   C705      1.0  0.36285  0.10493  0.20528  1.0000
  C   C706      1.0  0.26009  0.32804  0.37522  1.0000
  H   H532      1.0  0.23519  0.13706  0.03645  1.0000
  H   H533      1.0  0.37718  0.10253  0.14838  1.0000
  H   H534      1.0  0.39989  0.26413  0.33428  1.0000
  H   H535      1.0  0.26330  0.02850  0.22826  1.0000
  C   C707      1.0  0.28671  0.14957  0.43863  1.0000
  C   C708      1.0  0.34437  0.06721  0.16349  1.0000
  H   H536      1.0  0.26702  0.13739  0.43020  1.0000
  H   H537      1.0  0.45961  0.02328  0.23167  1.0000
  H   H538      1.0  0.46748  0.47582  0.38312  1.0000
  H   H539      1.0  0.46376  0.00386  0.35443  1.0000
  H   H540      1.0  0.33185  0.16473  0.01117  1.0000
  H   H541      1.0  0.42739  0.03896  0.23283  1.0000
  C   C709      1.0  0.46476  0.21322  0.11439  1.0000
  H   H542      1.0  0.28352  0.40484  0.18447  1.0000
  H   H543      1.0  0.46544  0.44389  0.30785  1.0000
  C   C710      1.0  0.34466  0.09211  0.23378  1.0000
  Fe  Fe49      1.0  0.44388  0.35784  0.38319  1.0000
  H   H544      1.0  0.32891  0.41519  0.19257  1.0000
  H   H545      1.0  0.22799  0.38141  0.31592  1.0000
  H   H546      1.0  0.39139  0.99141  0.26933  1.0000
  H   H547      1.0  0.26693  0.36674  0.29580  1.0000
  S   S88       1.0  0.29902  0.26397  0.99838  1.0000
  H   H548      1.0  0.41688  0.23401  0.31612  1.0000
  C   C711      1.0  0.28013  0.37719  0.27295  1.0000
  C   C712      1.0  0.25030  0.31914  0.33779  1.0000
  H   H549      1.0  0.36272  0.37432  0.01297  1.0000
  C   C713      1.0  0.34222  0.00989  0.17393  1.0000
  S   S89       1.0  0.22338  0.21659  0.98051  1.0000
  C   C714      1.0  0.25980  0.98597  0.29723  1.0000
  H   H550      1.0  0.22360  0.46557  0.25580  1.0000
  S   S90       1.0  0.42295  0.31517  0.36674  1.0000
  C   C715      1.0  0.32226  0.27869  0.41795  1.0000
  C   C716      1.0  0.28388  0.04124  0.12159  1.0000
  H   H551      1.0  0.46229  0.13607  0.15634  1.0000
  H   H552      1.0  0.40669  0.18383  0.04986  1.0000
  C   C717      1.0  0.30161  0.99101  0.03855  1.0000
  H   H553      1.0  0.30375  0.98336  0.23595  1.0000
  C   C718      1.0  0.28058  0.99564  0.04342  1.0000
  H   H554      1.0  0.45430  0.07307  0.34630  1.0000
  H   H555      1.0  0.38315  0.46187  0.24033  1.0000
  H   H556      1.0  0.24932  0.33340  0.39576  1.0000
  H   H557      1.0  0.21881  0.44531  0.02778  1.0000
  C   C719      1.0  0.41690  0.04834  0.02062  1.0000
  H   H558      1.0  0.31217  0.37705  0.30316  1.0000
  H   H559      1.0  0.30393  0.20569  0.08270  1.0000
  H   H560      1.0  0.44457  0.23560  0.11928  1.0000
  C   C720      1.0  0.37993  0.19875  0.04076  1.0000
  H   H561      1.0  0.38172  0.19335  0.38502  1.0000
  H   H562      1.0  0.30304  0.21680  0.44081  1.0000
  S   S91       1.0  0.46077  0.39071  0.34099  1.0000
  H   H563      1.0  0.39822  0.44455  0.07896  1.0000
  H   H564      1.0  0.43575  0.05451  0.00833  1.0000
  H   H565      1.0  0.26960  0.05647  0.07588  1.0000
  C   C721      1.0  0.45808  0.03329  0.25750  1.0000
  C   C722      1.0  0.23470  0.44150  0.03414  1.0000
  C   C723      1.0  0.28869  0.01609  0.98046  1.0000
  C   C724      1.0  0.46242  0.30214  0.35589  1.0000
  S   S92       1.0  0.46688  0.17961  0.26642  1.0000
  C   C725      1.0  0.22882  0.36455  0.18414  1.0000
  C   C726      1.0  0.39338  0.25465  0.99995  1.0000
  C   C727      1.0  0.37806  0.43469  0.98378  1.0000
  C   C728      1.0  0.22457  0.12009  0.01868  1.0000
  H   H566      1.0  0.26706  0.47056  0.24347  1.0000
  H   H567      1.0  0.26096  0.17751  0.47501  1.0000
  S   S93       1.0  0.23743  0.21018  0.46320  1.0000
  C   C729      1.0  0.29547  0.14923  0.98218  1.0000
  H   H568      1.0  0.46197  0.20754  0.14481  1.0000
  C   C730      1.0  0.45489  0.22897  0.09990  1.0000
  H   H569      1.0  0.23800  0.32621  0.11701  1.0000
  H   H570      1.0  0.41186  0.99860  0.33495  1.0000
  C   C731      1.0  0.36886  0.40816  0.98114  1.0000
  S   S94       1.0  0.44261  0.39598  0.52041  1.0000
  H   H571      1.0  0.37130  0.14019  0.81408  1.0000
  Fe  Fe50      1.0  0.29971  0.44656  0.76540  1.0000
  H   H572      1.0  0.27794  0.02722  0.86224  1.0000
  S   S95       1.0  0.29691  0.43942  0.83248  1.0000
  Fe  Fe51      1.0  0.28587  0.41814  0.68351  1.0000
  S   S96       1.0  0.29851  0.45487  0.65112  1.0000
  S   S97       1.0  0.26948  0.37762  0.65570  1.0000
  H   H573      1.0  0.28879  0.00457  0.58614  1.0000
  H   H574      1.0  0.25525  0.99631  0.69980  1.0000
  C   C732      1.0  0.32140  0.46640  0.55426  1.0000
  S   S98       1.0  0.32094  0.43379  0.72269  1.0000
  S   S99       1.0  0.26340  0.42787  0.72856  1.0000
  H   H575      1.0  0.30998  0.15869  0.83459  1.0000
  C   C733      1.0  0.34230  0.12772  0.76844  1.0000
  Fe  Fe52      1.0  0.43043  0.32370  0.73511  1.0000
  C   C734      1.0  0.37746  0.24855  0.92167  1.0000
  S   S100      1.0  0.42964  0.32358  0.66720  1.0000
  Fe  Fe53      1.0  0.39853  0.30338  0.81200  1.0000
  S   S101      1.0  0.43384  0.31484  0.84885  1.0000
  S   S102      1.0  0.35724  0.28007  0.83389  1.0000
  Fe  Fe54      1.0  0.45079  0.35135  0.81427  1.0000
  Fe  Fe55      1.0  0.44742  0.29848  0.79986  1.0000
  H   H576      1.0  0.24275  0.32574  0.62728  1.0000
  S   S103      1.0  0.41428  0.34083  0.77977  1.0000
  S   S104      1.0  0.41149  0.28512  0.76432  1.0000
  H   H577      1.0  0.46730  0.25409  0.90878  1.0000
  C   C735      1.0  0.40012  0.25264  0.55439  1.0000
  Fe  Fe56      1.0  0.26168  0.06535  0.52421  1.0000
  C   C736      1.0  0.34502  0.20889  0.67793  1.0000
  H   H578      1.0  0.34151  0.34075  0.68380  1.0000
  S   S105      1.0  0.25198  0.08432  0.57472  1.0000
  S   S106      1.0  0.24532  0.02760  0.55563  1.0000
  C   C737      1.0  0.34048  0.24023  0.71928  1.0000
  C   C738      1.0  0.34523  0.22922  0.75234  1.0000
  S   S107      1.0  0.42627  0.10323  0.90857  1.0000
  C   C739      1.0  0.34034  0.23012  0.68176  1.0000
  H   H579      1.0  0.38908  0.37218  0.57488  1.0000
  Fe  Fe57      1.0  0.44682  0.08787  0.86903  1.0000
  S   S108      1.0  0.42803  0.04636  0.84628  1.0000
  C   C740      1.0  0.23304  0.14306  0.50209  1.0000
  C   C741      1.0  0.26609  0.18462  0.60955  1.0000
  C   C742      1.0  0.25477  0.45318  0.89040  1.0000
  C   C743      1.0  0.36137  0.01088  0.92318  1.0000
  H   H580      1.0  0.41535  0.25447  0.53494  1.0000
  H   H581      1.0  0.37575  0.43511  0.56940  1.0000
  H   H582      1.0  0.29979  0.30172  0.68341  1.0000
  C   C744      1.0  0.42578  0.40879  0.79111  1.0000
  C   C745      1.0  0.39607  0.00904  0.72506  1.0000
  H   H583      1.0  0.38593  0.19631  0.92350  1.0000
  C   C746      1.0  0.41043  0.00716  0.79146  1.0000
  C   C747      1.0  0.41680  0.03297  0.79871  1.0000
  C   C748      1.0  0.41326  0.04691  0.76858  1.0000
  C   C749      1.0  0.40281  0.03496  0.73219  1.0000
  C   C750      1.0  0.44310  0.20752  0.96399  1.0000
  C   C751      1.0  0.29557  0.30402  0.50588  1.0000
  H   H584      1.0  0.41796  0.06674  0.77360  1.0000
  C   C752      1.0  0.35064  0.12390  0.61965  1.0000
  H   H585      1.0  0.43939  0.40304  0.60350  1.0000
  C   C753      1.0  0.28968  0.19973  0.62769  1.0000
  C   C754      1.0  0.25737  0.19459  0.57958  1.0000
  C   C755      1.0  0.27227  0.21963  0.56743  1.0000
  H   H586      1.0  0.34530  0.20099  0.64922  1.0000
  C   C756      1.0  0.23906  0.03482  0.74913  1.0000
  C   C757      1.0  0.33270  0.37403  0.58864  1.0000
  H   H587      1.0  0.25661  0.05246  0.75115  1.0000
  S   S109      1.0  0.30324  0.08552  0.50204  1.0000
  H   H588      1.0  0.38081  0.33793  0.66467  1.0000
  C   C758      1.0  0.30477  0.22500  0.61582  1.0000
  P   P26       1.0  0.33558  0.24474  0.63836  1.0000
  C   C759      1.0  0.41774  0.20112  0.83700  1.0000
  C   C760      1.0  0.42786  0.22720  0.82780  1.0000
  H   H589      1.0  0.30709  0.25433  0.57595  1.0000
  H   H590      1.0  0.23906  0.18281  0.56564  1.0000
  H   H591      1.0  0.39741  0.18987  0.84067  1.0000
  H   H592      1.0  0.41536  0.23592  0.82445  1.0000
  C   C761      1.0  0.36385  0.39945  0.63799  1.0000
  H   H593      1.0  0.45069  0.13858  0.74542  1.0000
  S   S110      1.0  0.38213  0.99498  0.67870  1.0000
  C   C762      1.0  0.44438  0.17172  0.74482  1.0000
  C   C763      1.0  0.31488  0.26786  0.95246  1.0000
  C   C764      1.0  0.30236  0.25407  0.91869  1.0000
  C   C765      1.0  0.31564  0.25815  0.88292  1.0000
  C   C766      1.0  0.34166  0.27593  0.88023  1.0000
  C   C767      1.0  0.35427  0.28951  0.91416  1.0000
  C   C768      1.0  0.34094  0.28553  0.94989  1.0000
  H   H594      1.0  0.28235  0.24045  0.92001  1.0000
  H   H595      1.0  0.30560  0.24750  0.85702  1.0000
  H   H596      1.0  0.37430  0.30302  0.91297  1.0000
  C   C769      1.0  0.24164  0.16750  0.48569  1.0000
  H   H597      1.0  0.40008  0.42032  0.52575  1.0000
  H   H598      1.0  0.33740  0.25685  0.72330  1.0000
  H   H599      1.0  0.26727  0.47056  0.83421  1.0000
  C   C770      1.0  0.29577  0.23491  0.58570  1.0000
  C   C771      1.0  0.31534  0.27708  0.66265  1.0000
  C   C772      1.0  0.34987  0.20812  0.74828  1.0000
  C   C773      1.0  0.22728  0.02627  0.71219  1.0000
  H   H600      1.0  0.33091  0.15284  0.50539  1.0000
  C   C774      1.0  0.33739  0.27546  0.65086  1.0000
  C   C775      1.0  0.25123  0.34130  0.53052  1.0000
  C   C776      1.0  0.24322  0.32623  0.56398  1.0000
  C   C777      1.0  0.24887  0.33771  0.60177  1.0000
  C   C778      1.0  0.26225  0.36445  0.60692  1.0000
  C   C779      1.0  0.26999  0.37956  0.57343  1.0000
  C   C780      1.0  0.26465  0.36804  0.53562  1.0000
  S   S111      1.0  0.22793  0.99772  0.93271  1.0000
  H   H601      1.0  0.45944  0.46710  0.72358  1.0000
  H   H602      1.0  0.28030  0.40010  0.57668  1.0000
  H   H603      1.0  0.27095  0.38000  0.51012  1.0000
  C   C781      1.0  0.44148  0.37667  0.56130  1.0000
  C   C782      1.0  0.44185  0.35323  0.55679  1.0000
  C   C783      1.0  0.43891  0.33774  0.58964  1.0000
  C   C784      1.0  0.43576  0.34538  0.62767  1.0000
  C   C785      1.0  0.43625  0.36925  0.63241  1.0000
  C   C786      1.0  0.43916  0.38473  0.59948  1.0000
  C   C787      1.0  0.40760  0.47220  0.57967  1.0000
  H   H604      1.0  0.43882  0.31950  0.58545  1.0000
  H   H605      1.0  0.24567  0.13442  0.50394  1.0000
  H   H606      1.0  0.30856  0.39439  0.95048  1.0000
  C   C788      1.0  0.30425  0.37456  0.95384  1.0000
  C   C789      1.0  0.32007  0.45107  0.94808  1.0000
  C   C790      1.0  0.30615  0.44125  0.91269  1.0000
  C   C791      1.0  0.31569  0.45284  0.87633  1.0000
  H   H607      1.0  0.25450  0.31712  0.97628  1.0000
  H   H608      1.0  0.37075  0.23626  0.51010  1.0000
  C   C792      1.0  0.31949  0.12776  0.75638  1.0000
  H   H609      1.0  0.40301  0.29644  0.50289  1.0000
  S   S112      1.0  0.46749  0.33597  0.76822  1.0000
  H   H610      1.0  0.29592  0.19153  0.65086  1.0000
  C   C793      1.0  0.33965  0.47442  0.87613  1.0000
  H   H611      1.0  0.41714  0.39236  0.80994  1.0000
  H   H612      1.0  0.42503  0.26848  0.60459  1.0000
  H   H613      1.0  0.41323  0.99619  0.81442  1.0000
  C   C794      1.0  0.34961  0.19785  0.71109  1.0000
  C   C795      1.0  0.28477  0.99577  0.61471  1.0000
  C   C796      1.0  0.43661  0.14550  0.74327  1.0000
  Fe  Fe58      1.0  0.33229  0.47142  0.69266  1.0000
  H   H614      1.0  0.24567  0.44091  0.94961  1.0000
  C   C797      1.0  0.30305  0.47208  0.53738  1.0000
  H   H615      1.0  0.23288  0.30569  0.56080  1.0000
  C   C798      1.0  0.33447  0.40045  0.86917  1.0000
  H   H616      1.0  0.39063  0.26390  0.64921  1.0000
  H   H617      1.0  0.37953  0.15166  0.92606  1.0000
  H   H618      1.0  0.31684  0.38373  0.87576  1.0000
  H   H619      1.0  0.30147  0.35602  0.49436  1.0000
  H   H620      1.0  0.43235  0.20107  0.74485  1.0000
  C   C799      1.0  0.35860  0.43417  0.82384  1.0000
  H   H621      1.0  0.29049  0.13905  0.77052  1.0000
  H   H622      1.0  0.22844  0.12344  0.68613  1.0000
  C   C800      1.0  0.26630  0.47389  0.86535  1.0000
  C   C801      1.0  0.41601  0.37708  0.91384  1.0000
  H   H623      1.0  0.26557  0.22700  0.54353  1.0000
  C   C802      1.0  0.38113  0.34882  0.87174  1.0000
  C   C803      1.0  0.25428  0.45727  0.93075  1.0000
  H   H624      1.0  0.37124  0.24663  0.89134  1.0000
  C   C804      1.0  0.40030  0.16348  0.73967  1.0000
  C   C805      1.0  0.31182  0.08779  0.64056  1.0000
  H   H625      1.0  0.24530  0.25853  0.55473  1.0000
  H   H626      1.0  0.37384  0.33453  0.84849  1.0000
  C   C806      1.0  0.30982  0.31908  0.53772  1.0000
  C   C807      1.0  0.22242  0.47650  0.67101  1.0000
  C   C808      1.0  0.43492  0.45550  0.53039  1.0000
  C   C809      1.0  0.40928  0.43935  0.53852  1.0000
  H   H627      1.0  0.43592  0.38493  0.92248  1.0000
  H   H628      1.0  0.31237  0.44171  0.97543  1.0000
  C   C810      1.0  0.29272  0.32343  0.96384  1.0000
  H   H629      1.0  0.44104  0.43495  0.83923  1.0000
  H   H630      1.0  0.24127  0.05840  0.91777  1.0000
  C   C811      1.0  0.32328  0.36689  0.94793  1.0000
  C   C812      1.0  0.24664  0.08369  0.81214  1.0000
  C   C813      1.0  0.26762  0.08282  0.82995  1.0000
  C   C814      1.0  0.26574  0.07385  0.86808  1.0000
  C   C815      1.0  0.24281  0.06551  0.88830  1.0000
  H   H631      1.0  0.25912  0.13872  0.95420  1.0000
  C   C816      1.0  0.26177  0.98805  0.84286  1.0000
  C   C817      1.0  0.30966  0.01137  0.97536  1.0000
  H   H632      1.0  0.31956  0.40610  0.81457  1.0000
  C   C818      1.0  0.45380  0.47755  0.92158  1.0000
  C   C819      1.0  0.43607  0.42662  0.72627  1.0000
  C   C820      1.0  0.22178  0.06622  0.87058  1.0000
  C   C821      1.0  0.36426  0.00803  0.88306  1.0000
  C   C822      1.0  0.36094  0.29760  0.65206  1.0000
  H   H633      1.0  0.24845  0.09040  0.78241  1.0000
  H   H634      1.0  0.28524  0.08876  0.81400  1.0000
  H   H635      1.0  0.28196  0.07320  0.88193  1.0000
  C   C823      1.0  0.27706  0.17801  0.97354  1.0000
  H   H636      1.0  0.32066  0.01773  0.94886  1.0000
  C   C824      1.0  0.39562  0.44765  0.56318  1.0000
  Fe  Fe59      1.0  0.27780  0.46538  0.69777  1.0000
  C   C825      1.0  0.40556  0.26041  0.59358  1.0000
  H   H637      1.0  0.44476  0.44870  0.51045  1.0000
  H   H638      1.0  0.36904  0.41203  0.66347  1.0000
  S   S113      1.0  0.24207  0.04495  0.66983  1.0000
  H   H639      1.0  0.46312  0.01407  0.79258  1.0000
  Fe  Fe60      1.0  0.46176  0.12052  0.94650  1.0000
  H   H640      1.0  0.32559  0.39528  0.63457  1.0000
  H   H641      1.0  0.43408  0.37562  0.66134  1.0000
  H   H642      1.0  0.42579  0.23156  0.94812  1.0000
  C   C826      1.0  0.27259  0.28205  0.51216  1.0000
  C   C827      1.0  0.22840  0.02080  0.78353  1.0000
  H   H643      1.0  0.40818  0.40104  0.95322  1.0000
  H   H644      1.0  0.36956  0.02995  0.93584  1.0000
  C   C828      1.0  0.27067  0.98085  0.77569  1.0000
  C   C829      1.0  0.26339  0.27529  0.55010  1.0000
  C   C830      1.0  0.27749  0.29011  0.58198  1.0000
  C   C831      1.0  0.30080  0.31170  0.57591  1.0000
  C   C832      1.0  0.40062  0.19231  0.93583  1.0000
  H   H645      1.0  0.35039  0.15904  0.85611  1.0000
  H   H646      1.0  0.35083  0.06712  0.69722  1.0000
  C   C833      1.0  0.34161  0.15014  0.82840  1.0000
  C   C834      1.0  0.43915  0.18221  0.96585  1.0000
  S   S114      1.0  0.46819  0.27485  0.81189  1.0000
  H   H647      1.0  0.37499  0.02469  0.86543  1.0000
  C   C835      1.0  0.37854  0.43020  0.88366  1.0000
  C   C836      1.0  0.40017  0.38601  0.93124  1.0000
  H   H648      1.0  0.33620  0.23224  0.55371  1.0000
  C   C837      1.0  0.38162  0.39282  0.62111  1.0000
  C   C838      1.0  0.33605  0.41283  0.83390  1.0000
  H   H649      1.0  0.45789  0.46858  0.94622  1.0000
  P   P27       1.0  0.35526  0.39053  0.93634  1.0000
  H   H650      1.0  0.39978  0.04588  0.70939  1.0000
  H   H651      1.0  0.27032  0.28490  0.61141  1.0000
  H   H652      1.0  0.31169  0.32250  0.60111  1.0000
  C   C839      1.0  0.31892  0.15001  0.81623  1.0000
  H   H653      1.0  0.29923  0.04436  0.79883  1.0000
  C   C840      1.0  0.30796  0.13894  0.78015  1.0000
  H   H654      1.0  0.29703  0.26017  0.66331  1.0000
  H   H655      1.0  0.25453  0.16504  0.61841  1.0000
  C   C841      1.0  0.28554  0.00728  0.77143  1.0000
  H   H656      1.0  0.30999  0.07809  0.70113  1.0000
  H   H657      1.0  0.32064  0.44790  0.54918  1.0000
  H   H658      1.0  0.37832  0.29701  0.64409  1.0000
  H   H659      1.0  0.34575  0.23742  0.78114  1.0000
  H   H660      1.0  0.28776  0.42451  0.91348  1.0000
  C   C842      1.0  0.27949  0.35666  0.96382  1.0000
  H   H661      1.0  0.26472  0.01623  0.63481  1.0000
  C   C843      1.0  0.36072  0.24823  0.60486  1.0000
  C   C844      1.0  0.45126  0.45461  0.78368  1.0000
  C   C845      1.0  0.31684  0.30057  0.67429  1.0000
  C   C846      1.0  0.34035  0.32257  0.67467  1.0000
  C   C847      1.0  0.36241  0.32104  0.66379  1.0000
  H   H662      1.0  0.34037  0.22273  0.94242  1.0000
  C   C848      1.0  0.37459  0.37623  0.91906  1.0000
  H   H663      1.0  0.41616  0.27574  0.90896  1.0000
  H   H664      1.0  0.35947  0.44404  0.79687  1.0000
  C   C849      1.0  0.37989  0.44275  0.84858  1.0000
  C   C850      1.0  0.42625  0.18071  0.74277  1.0000
  C   C851      1.0  0.35023  0.36675  0.57213  1.0000
  C   C852      1.0  0.39692  0.16719  0.93754  1.0000
  H   H665      1.0  0.23767  0.02775  0.81155  1.0000
  H   H666      1.0  0.37943  0.14261  0.66365  1.0000
  C   C853      1.0  0.36049  0.12732  0.65781  1.0000
  S   S115      1.0  0.24582  0.32782  0.48190  1.0000
  H   H667      1.0  0.41351  0.14273  0.95318  1.0000
  H   H668      1.0  0.41384  0.38651  0.73768  1.0000
  C   C854      1.0  0.39227  0.13705  0.73860  1.0000
  H   H669      1.0  0.28586  0.12568  0.48643  1.0000
  H   H670      1.0  0.36248  0.32180  0.58151  1.0000
  C   C855      1.0  0.40054  0.99537  0.75476  1.0000
  H   H671      1.0  0.29517  0.01508  0.74424  1.0000
  C   C856      1.0  0.36151  0.33111  0.52088  1.0000
  C   C857      1.0  0.35332  0.13920  0.80457  1.0000
  C   C858      1.0  0.42405  0.40550  0.75043  1.0000
  H   H672      1.0  0.31059  0.11954  0.72855  1.0000
  C   C859      1.0  0.45019  0.01920  0.63254  1.0000
  H   H673      1.0  0.38879  0.29986  0.57000  1.0000
  C   C860      1.0  0.32159  0.09106  0.67871  1.0000
  C   C861      1.0  0.27124  0.00238  0.64220  1.0000
  H   H674      1.0  0.37635  0.44534  0.95938  1.0000
  H   H675      1.0  0.39552  0.43649  0.90171  1.0000
  H   H676      1.0  0.29297  0.07249  0.63373  1.0000
  C   C862      1.0  0.41066  0.12818  0.74003  1.0000
  C   C863      1.0  0.41614  0.16215  0.95270  1.0000
  Fe  Fe61      1.0  0.44560  0.13891  0.87257  1.0000
  C   C864      1.0  0.27572  0.15391  0.96834  1.0000
  H   H677      1.0  0.43752  0.03806  0.67468  1.0000
  C   C865      1.0  0.37493  0.37668  0.58808  1.0000
  C   C866      1.0  0.32634  0.10418  0.61105  1.0000
  H   H678      1.0  0.28827  0.30362  0.96796  1.0000
  C   C867      1.0  0.43943  0.43318  0.80771  1.0000
  H   H679      1.0  0.34581  0.35053  0.87822  1.0000
  C   C868      1.0  0.38296  0.30750  0.54553  1.0000
  C   C869      1.0  0.28814  0.02398  0.80256  1.0000
  P   P28       1.0  0.35857  0.11488  0.73713  1.0000
  C   C870      1.0  0.34602  0.11090  0.68769  1.0000
  S   S116      1.0  0.42049  0.15673  0.85279  1.0000
  H   H680      1.0  0.43519  0.42396  0.69475  1.0000
  H   H681      1.0  0.41892  0.35203  0.87042  1.0000
  C   C871      1.0  0.43382  0.18959  0.84158  1.0000
  S   S117      1.0  0.22523  0.05546  0.49098  1.0000
  H   H682      1.0  0.35398  0.19997  0.77395  1.0000
  H   H683      1.0  0.38654  0.17082  0.73899  1.0000
  C   C872      1.0  0.45419  0.24193  0.82292  1.0000
  C   C873      1.0  0.33942  0.39011  0.62164  1.0000
  C   C874      1.0  0.26608  0.99116  0.67911  1.0000
  C   C875      1.0  0.40646  0.35851  0.88420  1.0000
  H   H684      1.0  0.28816  0.45803  0.51887  1.0000
  C   C876      1.0  0.38595  0.25795  0.61881  1.0000
  C   C877      1.0  0.35540  0.24032  0.56541  1.0000
  H   H685      1.0  0.31366  0.36702  0.57630  1.0000
  S   S118      1.0  0.46392  0.12242  0.83097  1.0000
  C   C878      1.0  0.42352  0.21238  0.94935  1.0000
  C   C879      1.0  0.40275  0.26521  0.93162  1.0000
  H   H686      1.0  0.39745  0.45896  0.84028  1.0000
  H   H687      1.0  0.36086  0.09639  0.81602  1.0000
  C   C880      1.0  0.35438  0.08440  0.75499  1.0000
  C   C881      1.0  0.35562  0.40923  0.89467  1.0000
  H   H688      1.0  0.25231  0.98050  0.87032  1.0000
  H   H689      1.0  0.40066  0.40035  0.63345  1.0000
  H   H690      1.0  0.31877  0.10147  0.58143  1.0000
  H   H691      1.0  0.34844  0.02708  0.72143  1.0000
  C   C882      1.0  0.35713  0.08115  0.79513  1.0000
  H   H692      1.0  0.35329  0.18156  0.70788  1.0000
  H   H693      1.0  0.44390  0.34680  0.52784  1.0000
  C   C883      1.0  0.46005  0.20428  0.83637  1.0000
  C   C884      1.0  0.37503  0.24248  0.54039  1.0000
  C   C885      1.0  0.44974  0.45106  0.74277  1.0000
  C   C886      1.0  0.36524  0.35772  0.88895  1.0000
  C   C887      1.0  0.35618  0.05841  0.80858  1.0000
  C   C888      1.0  0.35264  0.03879  0.78212  1.0000
  C   C889      1.0  0.35031  0.04198  0.74212  1.0000
  H   H694      1.0  0.35245  0.02138  0.79240  1.0000
  C   C890      1.0  0.35149  0.06476  0.72852  1.0000
  H   H695      1.0  0.26177  0.27021  0.48771  1.0000
  H   H696      1.0  0.40512  0.10796  0.73939  1.0000
  H   H697      1.0  0.36189  0.13639  0.59650  1.0000
  H   H698      1.0  0.35887  0.05628  0.83946  1.0000
  H   H699      1.0  0.35093  0.29628  0.97575  1.0000
  H   H700      1.0  0.46228  0.03335  0.72940  1.0000
  C   C891      1.0  0.27370  0.33107  0.96864  1.0000
  H   H701      1.0  0.43835  0.02044  0.60918  1.0000
  C   C892      1.0  0.36845  0.32787  0.48261  1.0000
  H   H702      1.0  0.28363  0.02582  0.95804  1.0000
  Fe  Fe62      1.0  0.23277  0.04579  0.60381  1.0000
  C   C893      1.0  0.44961  0.02901  0.66971  1.0000
  C   C894      1.0  0.39090  0.30549  0.50771  1.0000
  C   C895      1.0  0.34140  0.36550  0.48984  1.0000
  C   C896      1.0  0.31751  0.34127  0.95389  1.0000
  C   C897      1.0  0.36835  0.32025  0.55209  1.0000
  P   P29       1.0  0.34089  0.34564  0.52989  1.0000
  C   C898      1.0  0.35999  0.23503  0.95083  1.0000
  C   C899      1.0  0.27625  0.01436  0.83826  1.0000
  C   C900      1.0  0.22554  0.17918  0.48351  1.0000
  H   H703      1.0  0.22330  0.12022  0.75807  1.0000
  C   C901      1.0  0.46380  0.02637  0.70061  1.0000
  H   H704      1.0  0.26150  0.18152  0.96350  1.0000
  H   H705      1.0  0.46442  0.18511  0.74841  1.0000
  H   H706      1.0  0.24698  0.43393  0.87848  1.0000
  H   H707      1.0  0.33197  0.33491  0.95108  1.0000
  C   C902      1.0  0.34395  0.47274  0.94788  1.0000
  C   C903      1.0  0.22350  0.07535  0.83232  1.0000
  C   C904      1.0  0.34824  0.98933  0.94659  1.0000
  H   H708      1.0  0.26480  0.36264  0.96779  1.0000
  C   C905      1.0  0.35376  0.98373  0.86576  1.0000
  C   C906      1.0  0.46410  0.47720  0.88483  1.0000
  H   H709      1.0  0.45392  0.17792  0.97716  1.0000
  C   C907      1.0  0.41066  0.26845  0.97077  1.0000
  C   C908      1.0  0.46550  0.00724  0.62584  1.0000
  H   H710      1.0  0.46562  0.99923  0.59716  1.0000
  H   H711      1.0  0.39700  0.47869  0.59877  1.0000
  H   H712      1.0  0.35632  0.98162  0.83471  1.0000
  C   C909      1.0  0.32270  0.15849  0.48131  1.0000
  C   C910      1.0  0.31922  0.36710  0.47922  1.0000
  H   H713      1.0  0.35591  0.11002  0.47868  1.0000
  H   H714      1.0  0.38210  0.38095  0.47987  1.0000
  H   H715      1.0  0.43022  0.28161  0.97839  1.0000
  S   S119      1.0  0.34411  0.50657  0.09265  1.0000
  Fe  Fe63      1.0  0.37824  0.51860  0.13342  1.0000
  S   S120      1.0  0.40029  0.55943  0.15857  1.0000
  Fe  Fe64      1.0  0.29236  0.88643  0.27024  1.0000
  S   S121      1.0  0.30842  0.86462  0.23479  1.0000
  S   S122      1.0  0.29234  0.88232  0.33795  1.0000
  Fe  Fe65      1.0  0.27173  0.89990  0.19373  1.0000
  S   S123      1.0  0.28702  0.87927  0.15493  1.0000
  S   S124      1.0  0.24768  0.91842  0.16975  1.0000
  Fe  Fe66      1.0  0.27149  0.84839  0.20013  1.0000
  S   S125      1.0  0.25191  0.80580  0.18476  1.0000
  Fe  Fe67      1.0  0.32254  0.89726  0.19291  1.0000
  S   S126      1.0  0.36190  0.91828  0.16428  1.0000
  S   S127      1.0  0.25444  0.86804  0.23748  1.0000
  S   S128      1.0  0.30822  0.92024  0.22959  1.0000
  C   C911      1.0  0.24225  0.87083  0.41562  1.0000
  C   C912      1.0  0.24145  0.92296  0.11999  1.0000
  H   H716      1.0  0.22844  0.78582  0.27610  1.0000
  C   C913      1.0  0.24567  0.91895  0.04949  1.0000
  C   C914      1.0  0.25028  0.91401  0.08835  1.0000
  C   C915      1.0  0.43366  0.91259  0.44938  1.0000
  H   H717      1.0  0.26069  0.90333  0.09390  1.0000
  C   C916      1.0  0.30906  0.89671  0.38304  1.0000
  C   C917      1.0  0.30336  0.88167  0.41693  1.0000
  H   H718      1.0  0.38962  0.91801  0.26096  1.0000
  H   H719      1.0  0.37239  0.82090  0.31745  1.0000
  C   C918      1.0  0.33789  0.93322  0.42369  1.0000
  C   C919      1.0  0.32680  0.92259  0.38668  1.0000
  H   H720      1.0  0.28987  0.86162  0.41482  1.0000
  C   C920      1.0  0.42750  0.56062  0.26210  1.0000
  H   H721      1.0  0.35112  0.95334  0.42603  1.0000
  H   H722      1.0  0.33152  0.93459  0.36123  1.0000
  C   C921      1.0  0.38754  0.91009  0.16394  1.0000
  C   C922      1.0  0.38617  0.88872  0.18328  1.0000
  C   C923      1.0  0.40685  0.88285  0.18167  1.0000
  C   C924      1.0  0.42922  0.89823  0.16092  1.0000
  C   C925      1.0  0.43064  0.91972  0.14184  1.0000
  C   C926      1.0  0.40998  0.92562  0.14347  1.0000
  H   H723      1.0  0.36911  0.87654  0.19916  1.0000
  H   H724      1.0  0.40541  0.86611  0.19641  1.0000
  H   H725      1.0  0.41136  0.94223  0.12844  1.0000
  H   H726      1.0  0.38063  0.95120  0.23241  1.0000
  H   H727      1.0  0.23908  0.81006  0.09835  1.0000
  C   C927      1.0  0.43343  0.58200  0.16056  1.0000
  C   C928      1.0  0.44084  0.60563  0.17988  1.0000
  H   H728      1.0  0.32832  0.81583  0.31201  1.0000
  C   C929      1.0  0.45245  0.57705  0.14406  1.0000
  H   H729      1.0  0.42639  0.60970  0.19294  1.0000
  C   C930      1.0  0.44186  0.90441  0.28178  1.0000
  H   H730      1.0  0.44716  0.55900  0.12922  1.0000
  H   H731      1.0  0.43061  0.50897  0.24642  1.0000
  C   C931      1.0  0.28887  0.85457  0.02412  1.0000
  C   C932      1.0  0.41454  0.91704  0.38863  1.0000
  H   H732      1.0  0.25446  0.88448  0.47414  1.0000
  C   C933      1.0  0.44631  0.51283  0.33521  1.0000
  C   C934      1.0  0.39446  0.93545  0.27758  1.0000
  H   H733      1.0  0.41423  0.57717  0.36710  1.0000
  C   C935      1.0  0.38947  0.95432  0.26117  1.0000
  C   C936      1.0  0.38972  0.86182  0.32473  1.0000
  H   H734      1.0  0.22473  0.75170  0.17168  1.0000
  H   H735      1.0  0.42699  0.49052  0.18027  1.0000
  H   H736      1.0  0.43997  0.94638  0.22203  1.0000
  C   C937      1.0  0.24120  0.86852  0.45632  1.0000
  C   C938      1.0  0.29693  0.51305  0.01226  1.0000
  C   C939      1.0  0.31172  0.92181  0.04658  1.0000
  H   H737      1.0  0.28213  0.50052  0.14847  1.0000
  H   H738      1.0  0.46846  0.53724  0.41506  1.0000
  H   H739      1.0  0.38255  0.92530  0.39600  1.0000
  H   H740      1.0  0.22246  0.86585  0.00951  1.0000
  C   C940      1.0  0.34431  0.83464  0.31619  1.0000
  C   C941      1.0  0.25279  0.82267  0.07750  1.0000
  C   C942      1.0  0.31869  0.51539  0.99229  1.0000
  H   H741      1.0  0.25269  0.91206  0.02529  1.0000
  C   C943      1.0  0.44581  0.49342  0.35887  1.0000
  Fe  Fe68      1.0  0.35959  0.48335  0.05967  1.0000
  H   H742      1.0  0.28493  0.82769  0.11318  1.0000
  C   C944      1.0  0.40539  0.93904  0.31516  1.0000
  H   H743      1.0  0.22798  0.85285  0.09544  1.0000
  C   C945      1.0  0.44159  0.91924  0.31408  1.0000
  C   C946      1.0  0.26279  0.84455  0.01546  1.0000
  C   C947      1.0  0.41780  0.57229  0.33787  1.0000
  C   C948      1.0  0.22319  0.94163  0.07329  1.0000
  C   C949      1.0  0.33182  0.91823  0.45773  1.0000
  H   H744      1.0  0.44494  0.90613  0.39242  1.0000
  S   S129      1.0  0.35676  0.48619  0.17506  1.0000
  C   C950      1.0  0.39733  0.92232  0.41045  1.0000
  H   H745      1.0  0.23120  0.82634  0.30214  1.0000
  P   P30       1.0  0.41193  0.91465  0.33591  1.0000
  H   H746      1.0  0.29908  0.94337  0.01031  1.0000
  H   H747      1.0  0.35953  0.53634  0.98695  1.0000
  H   H748      1.0  0.38677  0.57663  0.31145  1.0000
  H   H749      1.0  0.32950  0.90502  0.08370  1.0000
  H   H750      1.0  0.44759  0.93170  0.12556  1.0000
  C   C951      1.0  0.43236  0.91162  0.40843  1.0000
  H   H751      1.0  0.24705  0.51237  0.15767  1.0000
  C   C952      1.0  0.45964  0.96051  0.22690  1.0000
  C   C953      1.0  0.31472  0.89224  0.45372  1.0000
  C   C954      1.0  0.33939  0.96478  0.02426  1.0000
  C   C955      1.0  0.32405  0.55017  0.05231  1.0000
  C   C956      1.0  0.44407  0.50764  0.18861  1.0000
  H   H752      1.0  0.30292  0.86675  0.00336  1.0000
  H   H753      1.0  0.36829  0.58710  0.45469  1.0000
  C   C957      1.0  0.41205  0.96211  0.33548  1.0000
  C   C958      1.0  0.23394  0.49632  0.05052  1.0000
  C   C959      1.0  0.46369  0.51937  0.16167  1.0000
  C   C960      1.0  0.38569  0.88350  0.32597  1.0000
  H   H754      1.0  0.24229  0.48964  0.07307  1.0000
  S   S130      1.0  0.45456  0.88956  0.15983  1.0000
  C   C961      1.0  0.34282  0.53508  0.00199  1.0000
  H   H755      1.0  0.32626  0.56332  0.07618  1.0000
  H   H756      1.0  0.40871  0.86358  0.32829  1.0000
  C   C962      1.0  0.29687  0.84860  0.05937  1.0000
  S   S131      1.0  0.39507  0.49752  0.09859  1.0000
  H   H757      1.0  0.25702  0.84888  0.98761  1.0000
  H   H758      1.0  0.28369  0.52900  0.05928  1.0000
  C   C963      1.0  0.33799  0.97040  0.14517  1.0000
  C   C964      1.0  0.31251  0.96321  0.13594  1.0000
  H   H759      1.0  0.39556  0.56643  0.24425  1.0000
  H   H760      1.0  0.37229  0.94199  0.08034  1.0000
  H   H761      1.0  0.42863  0.51360  0.32938  1.0000
  H   H762      1.0  0.34601  0.95751  0.13880  1.0000
  C   C965      1.0  0.24456  0.82877  0.04240  1.0000
  C   C966      1.0  0.27882  0.83256  0.08592  1.0000
  C   C967      1.0  0.31524  0.94334  0.02543  1.0000
  C   C968      1.0  0.36004  0.96401  0.04373  1.0000
  C   C969      1.0  0.22756  0.93646  0.11211  1.0000
  H   H763      1.0  0.42428  0.89039  0.26829  1.0000
  H   H764      1.0  0.29302  0.90545  0.04785  1.0000
  S   S132      1.0  0.22759  0.93931  0.99205  1.0000
  H   H765      1.0  0.30080  0.94474  0.12239  1.0000
  H   H766      1.0  0.43118  0.55680  0.23233  1.0000
  C   C970      1.0  0.34551  0.55251  0.03191  1.0000
  H   H767      1.0  0.31705  0.85620  0.06610  1.0000
  C   C971      1.0  0.36059  0.88033  0.32434  1.0000
  C   C972      1.0  0.29985  0.53051  0.04264  1.0000
  C   C973      1.0  0.35643  0.94240  0.06473  1.0000
  H   H768      1.0  0.36432  0.56737  0.04006  1.0000
  H   H769      1.0  0.45016  0.56730  0.35570  1.0000
  C   C974      1.0  0.33225  0.92144  0.06652  1.0000
  H   H770      1.0  0.42095  0.96553  0.36414  1.0000
  C   C975      1.0  0.44287  0.56045  0.29344  1.0000
  C   C976      1.0  0.40236  0.57205  0.30658  1.0000
  C   C977      1.0  0.24161  0.49745  0.01139  1.0000
  H   H771      1.0  0.22038  0.94322  0.13626  1.0000
  C   C978      1.0  0.40725  0.56626  0.26874  1.0000
  H   H772      1.0  0.22843  0.85180  0.36025  1.0000
  H   H773      1.0  0.28127  0.96469  0.29686  1.0000
  C   C979      1.0  0.46813  0.49131  0.36561  1.0000
  C   C980      1.0  0.23226  0.93296  0.04165  1.0000
  H   H774      1.0  0.32072  0.85368  0.31817  1.0000
  C   C981      1.0  0.24262  0.49244  0.15601  1.0000
  C   C982      1.0  0.44616  0.51825  0.22607  1.0000
  C   C983      1.0  0.36914  0.83753  0.31913  1.0000
  C   C984      1.0  0.34004  0.85599  0.31932  1.0000
  H   H775      1.0  0.35668  0.89651  0.32746  1.0000
  C   C985      1.0  0.43807  0.56662  0.33133  1.0000
  H   H776      1.0  0.25596  0.88845  0.40243  1.0000
  H   H777      1.0  0.44731  0.90825  0.46459  1.0000
  C   C986      1.0  0.46480  0.93861  0.32865  1.0000
  C   C987      1.0  0.41693  0.91857  0.47084  1.0000
  C   C988      1.0  0.39878  0.92338  0.45135  1.0000
  H   H778      1.0  0.38553  0.92752  0.46805  1.0000
  C   C989      1.0  0.21911  0.78530  0.17456  1.0000
  C   C990      1.0  0.46783  0.54095  0.23676  1.0000
  C   C991      1.0  0.39560  0.97698  0.28191  1.0000
  C   C992      1.0  0.23031  0.50604  0.98279  1.0000
  S   S133      1.0  0.36274  0.48630  0.99163  1.0000
  C   C993      1.0  0.26259  0.48579  0.15056  1.0000
  H   H779      1.0  0.46172  0.51135  0.13239  1.0000
  H   H780      1.0  0.46498  0.95085  0.35258  1.0000
  C   C994      1.0  0.46509  0.90771  0.26625  1.0000
  C   C995      1.0  0.22395  0.84555  0.47358  1.0000
  H   H781      1.0  0.28181  0.97302  0.13932  1.0000
  P   P31       1.0  0.26575  0.48789  0.99847  1.0000
  C   C996      1.0  0.46675  0.62416  0.18236  1.0000
  H   H782      1.0  0.42793  0.47948  0.37114  1.0000
  C   C997      1.0  0.22669  0.85004  0.39178  1.0000
  H   H783      1.0  0.46522  0.89596  0.24166  1.0000
  H   H784      1.0  0.25014  0.97783  0.32438  1.0000
  C   C998      1.0  0.27742  0.97866  0.28182  1.0000
  S   S134      1.0  0.37369  0.49239  0.67111  1.0000
  Fe  Fe69      1.0  0.37628  0.90840  0.63274  1.0000
  S   S135      1.0  0.38780  0.94544  0.60143  1.0000
  S   S136      1.0  0.39993  0.88714  0.64232  1.0000
  Fe  Fe70      1.0  0.32187  0.90075  0.64755  1.0000
  S   S137      1.0  0.33028  0.93758  0.61744  1.0000
  S   S138      1.0  0.28312  0.88011  0.67823  1.0000
  Fe  Fe71      1.0  0.34934  0.92525  0.57025  1.0000
  S   S139      1.0  0.34603  0.93300  0.50415  1.0000
  Fe  Fe72      1.0  0.36773  0.95474  0.65085  1.0000
  S   S140      1.0  0.33903  0.88755  0.59909  1.0000
  S   S141      1.0  0.35822  0.91868  0.68360  1.0000
  C   C999      1.0  0.24473  0.80403  0.64894  1.0000
  C   C1000     1.0  0.26334  0.82990  0.65023  1.0000
  C   C1001     1.0  0.26017  0.84729  0.67496  1.0000
  H   H785      1.0  0.24755  0.79074  0.62994  1.0000
  H   H786      1.0  0.28022  0.83630  0.63231  1.0000
  C   C1002     1.0  0.28760  0.96620  0.66072  1.0000
  H   H787      1.0  0.37203  0.50088  0.91066  1.0000
  C   C1003     1.0  0.45007  0.92526  0.65224  1.0000
  C   C1004     1.0  0.43327  0.89912  0.65073  1.0000
  C   C1005     1.0  0.44306  0.88169  0.65662  1.0000
  C   C1006     1.0  0.24156  0.80509  0.53133  1.0000
  H   H788      1.0  0.44289  0.93886  0.64716  1.0000
  H   H789      1.0  0.43034  0.86144  0.65485  1.0000
  H   H790      1.0  0.30047  0.80824  0.53903  1.0000
  C   C1007     1.0  0.42287  0.57870  0.65024  1.0000
  C   C1008     1.0  0.43146  0.56109  0.63897  1.0000
  C   C1009     1.0  0.41617  0.53481  0.64559  1.0000
  C   C1010     1.0  0.39213  0.52576  0.66347  1.0000
  C   C1011     1.0  0.38364  0.54338  0.67496  1.0000
  C   C1012     1.0  0.39892  0.56965  0.66835  1.0000
  H   H791      1.0  0.44978  0.56772  0.62493  1.0000
  H   H792      1.0  0.42305  0.52141  0.63703  1.0000
  H   H793      1.0  0.36535  0.53678  0.68907  1.0000
  H   H794      1.0  0.39214  0.58309  0.67736  1.0000
  S   S142      1.0  0.44084  0.61196  0.64138  1.0000
  C   C1013     1.0  0.29758  0.91398  0.78177  1.0000
  C   C1014     1.0  0.32296  0.92635  0.76968  1.0000
  H   H795      1.0  0.35133  0.95843  0.73908  1.0000
  C   C1015     1.0  0.43307  0.50109  0.89476  1.0000
  C   C1016     1.0  0.28946  0.94616  0.74972  1.0000
  C   C1017     1.0  0.28095  0.92403  0.77234  1.0000
  H   H796      1.0  0.24779  0.95101  0.81595  1.0000
  H   H797      1.0  0.25202  0.86531  0.59926  1.0000
  H   H798      1.0  0.23140  0.54758  0.54402  1.0000
  C   C1018     1.0  0.42961  0.82964  0.73671  1.0000
  H   H799      1.0  0.41136  0.60873  0.48565  1.0000
  C   C1019     1.0  0.27230  0.56690  0.53700  1.0000
  C   C1020     1.0  0.23793  0.83854  0.69777  1.0000
  H   H800      1.0  0.32269  0.97683  0.72341  1.0000
  H   H801      1.0  0.28028  0.86937  0.53454  1.0000
  C   C1021     1.0  0.38259  0.77883  0.84881  1.0000
  H   H802      1.0  0.45290  0.85714  0.86046  1.0000
  C   C1022     1.0  0.39489  0.59660  0.50287  1.0000
  C   C1023     1.0  0.44735  0.47993  0.54783  1.0000
  C   C1024     1.0  0.34282  0.58057  0.63858  1.0000
  C   C1025     1.0  0.25909  0.97135  0.81180  1.0000
  H   H803      1.0  0.35481  0.60808  0.68608  1.0000
  C   C1026     1.0  0.43327  0.48837  0.57171  1.0000
  C   C1027     1.0  0.45553  0.81955  0.69137  1.0000
  H   H804      1.0  0.29062  0.89626  0.79758  1.0000
  H   H805      1.0  0.33569  0.91821  0.77587  1.0000
  C   C1028     1.0  0.43943  0.93620  0.74908  1.0000
  C   C1029     1.0  0.22297  0.88823  0.53580  1.0000
  H   H806      1.0  0.26138  0.91419  0.78209  1.0000
  H   H807      1.0  0.33346  0.57556  0.73705  1.0000
  H   H808      1.0  0.23529  0.85178  0.71708  1.0000
  H   H809      1.0  0.42552  0.52023  0.72050  1.0000
  H   H810      1.0  0.39475  0.75549  0.88213  1.0000
  C   C1030     1.0  0.41614  0.81503  0.81609  1.0000
  C   C1031     1.0  0.25017  0.90062  0.60653  1.0000
  C   C1032     1.0  0.40070  0.77205  0.86367  1.0000
  H   H811      1.0  0.27227  0.58281  0.52153  1.0000
  H   H812      1.0  0.28983  0.50007  0.53023  1.0000
  C   C1033     1.0  0.31532  0.95920  0.73956  1.0000
  H   H813      1.0  0.29346  0.95167  0.66676  1.0000
  H   H814      1.0  0.31304  0.58233  0.53590  1.0000
  H   H815      1.0  0.42221  0.92298  0.73375  1.0000
  H   H816      1.0  0.35611  0.52194  0.60440  1.0000
  H   H817      1.0  0.37638  0.87967  0.71936  1.0000
  H   H818      1.0  0.35133  0.59511  0.61662  1.0000
  H   H819      1.0  0.33182  0.94338  0.87505  1.0000
  H   H820      1.0  0.23569  0.50701  0.95238  1.0000
  C   C1034     1.0  0.46442  0.87060  0.83860  1.0000
  H   H821      1.0  0.44043  0.78089  0.86515  1.0000
  C   C1035     1.0  0.40852  0.81710  0.71145  1.0000
  C   C1036     1.0  0.34118  0.50814  0.58575  1.0000
  C   C1037     1.0  0.24532  0.87794  0.58665  1.0000
  C   C1038     1.0  0.23196  0.87174  0.55087  1.0000
  C   C1039     1.0  0.34449  0.58806  0.67793  1.0000
  C   C1040     1.0  0.43412  0.80765  0.83016  1.0000
  C   C1041     1.0  0.41124  0.80677  0.67572  1.0000
  H   H822      1.0  0.37582  0.80463  0.81269  1.0000
  H   H823      1.0  0.24643  0.90607  0.70679  1.0000
  H   H824      1.0  0.24534  0.93468  0.60636  1.0000
  C   C1042     1.0  0.24926  0.54710  0.54976  1.0000
  C   C1043     1.0  0.23088  0.90947  0.71728  1.0000
  C   C1044     1.0  0.29547  0.54573  0.56466  1.0000
  C   C1045     1.0  0.28594  0.81460  0.53715  1.0000
  H   H825      1.0  0.40764  0.86307  0.72040  1.0000
  H   H826      1.0  0.30869  0.52997  0.71791  1.0000
  C   C1046     1.0  0.31787  0.53639  0.65678  1.0000
  H   H827      1.0  0.33078  0.55924  0.49388  1.0000
  C   C1047     1.0  0.27730  0.49877  0.88055  1.0000
  C   C1048     1.0  0.27683  0.50297  0.92086  1.0000
  H   H828      1.0  0.36257  0.76741  0.85555  1.0000
  P   P32       1.0  0.26787  0.95882  0.73661  1.0000
  C   C1049     1.0  0.39022  0.80012  0.82482  1.0000
  H   H829      1.0  0.26083  0.90548  0.63384  1.0000
  C   C1050     1.0  0.24930  0.52692  0.57069  1.0000
  C   C1051     1.0  0.45605  0.86805  0.79948  1.0000
  H   H830      1.0  0.41681  0.60194  0.55599  1.0000
  C   C1052     1.0  0.22798  0.91095  0.55567  1.0000
  C   C1053     1.0  0.44335  0.50079  0.85795  1.0000
  C   C1054     1.0  0.42644  0.78639  0.85418  1.0000
  H   H831      1.0  0.37977  0.57422  0.59514  1.0000
  C   C1055     1.0  0.44683  0.92905  0.78377  1.0000
  C   C1056     1.0  0.27436  0.84905  0.53501  1.0000
  C   C1057     1.0  0.23562  0.93340  0.73286  1.0000
  H   H832      1.0  0.31301  0.85435  0.53706  1.0000
  C   C1058     1.0  0.33182  0.94904  0.74894  1.0000
  H   H833      1.0  0.36653  0.86955  0.84368  1.0000
  H   H834      1.0  0.41763  0.91901  0.50261  1.0000
  C   C1059     1.0  0.31892  0.54403  0.69595  1.0000
  H   H835      1.0  0.35570  0.88310  0.78066  1.0000
  H   H836      1.0  0.39000  0.81534  0.71917  1.0000
  C   C1060     1.0  0.39798  0.59285  0.54244  1.0000
  C   C1061     1.0  0.29290  0.97764  0.62395  1.0000
  C   C1062     1.0  0.45437  0.96038  0.73370  1.0000
  C   C1063     1.0  0.24154  0.91711  0.59103  1.0000
  C   C1064     1.0  0.33005  0.55459  0.62784  1.0000
  C   C1065     1.0  0.43816  0.48937  0.92649  1.0000
  C   C1066     1.0  0.37061  0.58449  0.48553  1.0000
  C   C1067     1.0  0.33253  0.56978  0.70663  1.0000
  H   H837      1.0  0.43695  0.80019  0.63790  1.0000
  P   P33       1.0  0.42610  0.84185  0.78382  1.0000
  H   H838      1.0  0.44222  0.50744  0.58440  1.0000
  C   C1068     1.0  0.29300  0.84066  0.53672  1.0000
  C   C1069     1.0  0.33728  0.96497  0.92880  1.0000
  P   P34       1.0  0.32502  0.54522  0.57687  1.0000
  C   C1070     1.0  0.32268  0.51390  0.56926  1.0000
  C   C1071     1.0  0.34012  0.96221  0.88857  1.0000
  H   H839      1.0  0.39625  0.97568  0.74960  1.0000
  C   C1072     1.0  0.40374  0.85485  0.78255  1.0000
  H   H840      1.0  0.30696  0.51635  0.64905  1.0000
  C   C1073     1.0  0.35220  0.56586  0.54802  1.0000
  H   H841      1.0  0.42805  0.48855  0.76409  1.0000
  C   C1074     1.0  0.39836  0.86365  0.74743  1.0000
  H   H842      1.0  0.22777  0.51461  0.66060  1.0000
  H   H843      1.0  0.46477  0.55913  0.70250  1.0000
  H   H844      1.0  0.31715  0.50183  0.96947  1.0000
  C   C1075     1.0  0.37530  0.86774  0.81677  1.0000
  C   C1076     1.0  0.39257  0.85758  0.81741  1.0000
  C   C1077     1.0  0.27478  0.97343  0.68901  1.0000
  C   C1078     1.0  0.36926  0.87547  0.78140  1.0000
  C   C1079     1.0  0.38085  0.87348  0.74682  1.0000
  H   H845      1.0  0.39721  0.85184  0.84507  1.0000
  H   H846      1.0  0.39508  0.79768  0.65588  1.0000
  C   C1080     1.0  0.37680  0.57731  0.56479  1.0000
  H   H847      1.0  0.21960  0.78306  0.97186  1.0000
  H   H848      1.0  0.25472  0.77657  0.53435  1.0000
  C   C1081     1.0  0.34936  0.56895  0.50791  1.0000
  S   S143      1.0  0.25546  0.48725  0.68160  1.0000
  H   H849      1.0  0.27199  0.51091  0.59584  1.0000
  C   C1082     1.0  0.24845  0.83130  0.53266  1.0000
  H   H850      1.0  0.28568  0.52237  0.93226  1.0000
  S   S144      1.0  0.31278  0.48482  0.73716  1.0000
  H   H851      1.0  0.23153  0.51184  0.58140  1.0000
  C   C1083     1.0  0.27231  0.52636  0.57851  1.0000
  C   C1084     1.0  0.29537  0.56638  0.54476  1.0000
  C   C1085     1.0  0.22265  0.79517  0.67211  1.0000
  C   C1086     1.0  0.44395  0.52330  0.73171  1.0000
  H   H852      1.0  0.43524  0.91032  0.79565  1.0000
  C   C1087     1.0  0.34058  0.48452  0.57814  1.0000
  H   H853      1.0  0.44795  0.96546  0.70709  1.0000
  C   C1088     1.0  0.45286  0.82998  0.72699  1.0000
  H   H854      1.0  0.32655  0.94805  0.94580  1.0000
  H   H855      1.0  0.45407  0.81824  0.82235  1.0000
  C   C1089     1.0  0.30384  0.49586  0.54441  1.0000
  P   P35       1.0  0.22454  0.84199  0.52589  1.0000
  C   C1090     1.0  0.45860  0.48841  0.85250  1.0000
  C   C1091     1.0  0.46607  0.54520  0.72159  1.0000
  H   H856      1.0  0.31012  0.88026  0.47902  1.0000
  C   C1092     1.0  0.44544  0.50541  0.75663  1.0000
  H   H857      1.0  0.46453  0.88543  0.74252  1.0000
  H   H858      1.0  0.42097  0.51030  0.89868  1.0000
  C   C1093     1.0  0.43479  0.80817  0.66556  1.0000
  H   H859      1.0  0.22184  0.79094  0.52766  1.0000
  H   H860      1.0  0.34744  0.48363  0.84869  1.0000
  H   H861      1.0  0.42999  0.48953  0.95488  1.0000
  C   C1094     1.0  0.21929  0.81265  0.69642  1.0000
  H   H862      1.0  0.28658  0.51475  0.86106  1.0000
  C   C1095     1.0  0.26020  0.79681  0.53447  1.0000
  H   H863      1.0  0.22140  0.92387  0.54369  1.0000
  H   H864      1.0  0.43900  0.50998  0.83400  1.0000
  H   H865      1.0  0.30319  0.97231  0.60245  1.0000
  C   C1096     1.0  0.35362  0.48416  0.91150  1.0000
  H   H866      1.0  0.35472  0.48012  0.59148  1.0000
  C   C1097     1.0  0.26539  0.48223  0.94630  1.0000
  S   S145      1.0  0.53288  0.43206  0.37518  1.0000
  Fe  Fe73      1.0  0.63817  0.13345  0.44056  1.0000
  S   S146      1.0  0.65228  0.16795  0.40160  1.0000
  C   C1098     1.0  0.69332  0.99636  0.04864  1.0000
  Fe  Fe74      1.0  0.62201  0.09638  0.36764  1.0000
  S   S147      1.0  0.63622  0.12876  0.32517  1.0000
  S   S148      1.0  0.60107  0.05356  0.35038  1.0000
  Fe  Fe75      1.0  0.67036  0.14861  0.36555  1.0000
  Fe  Fe76      1.0  0.61690  0.14548  0.36455  1.0000
  S   S149      1.0  0.59505  0.16461  0.33595  1.0000
  S   S150      1.0  0.65770  0.11478  0.40586  1.0000
  S   S151      1.0  0.60125  0.11246  0.40572  1.0000
  C   C1099     1.0  0.51056  0.99597  0.24065  1.0000
  C   C1100     1.0  0.56151  0.15397  0.33574  1.0000
  C   C1101     1.0  0.55174  0.16866  0.31664  1.0000
  C   C1102     1.0  0.52528  0.16087  0.31522  1.0000
  C   C1103     1.0  0.50824  0.13836  0.33349  1.0000
  C   C1104     1.0  0.51802  0.12371  0.35274  1.0000
  C   C1105     1.0  0.54448  0.13146  0.35395  1.0000
  H   H867      1.0  0.56476  0.18627  0.30310  1.0000
  H   H868      1.0  0.51812  0.17252  0.30071  1.0000
  H   H869      1.0  0.50505  0.10641  0.36725  1.0000
  H   H870      1.0  0.55167  0.12007  0.36911  1.0000
  C   C1106     1.0  0.59297  0.03780  0.30338  1.0000
  C   C1107     1.0  0.59944  0.05117  0.26819  1.0000
  C   C1108     1.0  0.59275  0.03787  0.23184  1.0000
  C   C1109     1.0  0.57930  0.01100  0.22986  1.0000
  C   C1110     1.0  0.57245  0.99759  0.26505  1.0000
  C   C1111     1.0  0.57936  0.01090  0.30143  1.0000
  H   H871      1.0  0.60978  0.07179  0.26896  1.0000
  C   C1112     1.0  0.47453  0.03787  0.28977  1.0000
  H   H872      1.0  0.57412  0.00026  0.32832  1.0000
  H   H873      1.0  0.58290  0.00176  0.10269  1.0000
  H   H874      1.0  0.59113  0.11371  0.24598  1.0000
  C   C1113     1.0  0.48906  0.12150  0.23104  1.0000
  C   C1114     1.0  0.54382  0.21448  0.07095  1.0000
  C   C1115     1.0  0.64109  0.31094  0.42342  1.0000
  C   C1116     1.0  0.52815  0.22363  0.36965  1.0000
  C   C1117     1.0  0.58049  0.46998  0.35583  1.0000
  H   H875      1.0  0.52052  0.23473  0.35447  1.0000
  C   C1118     1.0  0.55429  0.23409  0.37808  1.0000
  H   H876      1.0  0.53598  0.07210  0.33311  1.0000
  C   C1119     1.0  0.67991  0.99156  0.20050  1.0000
  C   C1120     1.0  0.62137  0.23480  0.29497  1.0000
  H   H877      1.0  0.48630  0.05714  0.34615  1.0000
  C   C1121     1.0  0.52308  0.46205  0.47618  1.0000
  S   S152      1.0  0.57180  0.99546  0.18271  1.0000
  H   H878      1.0  0.56676  0.25346  0.36932  1.0000
  H   H879      1.0  0.53263  0.45260  0.46100  1.0000
  H   H880      1.0  0.53042  0.00905  0.24645  1.0000
  H   H881      1.0  0.50558  0.44051  0.30015  1.0000
  C   C1122     1.0  0.52997  0.01045  0.38454  1.0000
  H   H882      1.0  0.49151  0.19047  0.37378  1.0000
  H   H883      1.0  0.66941  0.41222  0.02035  1.0000
  H   H884      1.0  0.51825  0.15221  0.04201  1.0000
  C   C1123     1.0  0.52782  0.05488  0.27495  1.0000
  C   C1124     1.0  0.71356  0.47074  0.98948  1.0000
  C   C1125     1.0  0.68755  0.42927  0.01821  1.0000
  H   H885      1.0  0.48895  0.20210  0.03052  1.0000
  C   C1126     1.0  0.62545  0.31746  0.44671  1.0000
  C   C1127     1.0  0.60889  0.26647  0.42320  1.0000
  H   H886      1.0  0.56317  0.25194  0.97983  1.0000
  C   C1128     1.0  0.47202  0.28495  0.34553  1.0000
  H   H887      1.0  0.65297  0.06316  0.09763  1.0000
  H   H888      1.0  0.57493  0.25868  0.45653  1.0000
  P   P36       1.0  0.49883  0.02732  0.28921  1.0000
  C   C1129     1.0  0.48863  0.30855  0.98668  1.0000
  C   C1130     1.0  0.53607  0.05805  0.23591  1.0000
  C   C1131     1.0  0.54035  0.18748  0.12632  1.0000
  C   C1132     1.0  0.59083  0.99685  0.04277  1.0000
  H   H889      1.0  0.55381  0.24257  0.28924  1.0000
  H   H890      1.0  0.70230  0.05358  0.01256  1.0000
  P   P37       1.0  0.47237  0.23297  0.98327  1.0000
  H   H891      1.0  0.49221  0.29084  0.34884  1.0000
  H   H892      1.0  0.64591  0.23019  0.39848  1.0000
  C   C1133     1.0  0.50939  0.99953  0.41017  1.0000
  H   H893      1.0  0.48417  0.19095  0.10008  1.0000
  C   C1134     1.0  0.50309  0.01745  0.33724  1.0000
  H   H894      1.0  0.71538  0.02582  0.20960  1.0000
  C   C1135     1.0  0.57332  0.09747  0.25381  1.0000
  C   C1136     1.0  0.54378  0.23393  0.26221  1.0000
  C   C1137     1.0  0.57753  0.19089  0.18767  1.0000
  H   H895      1.0  0.70875  0.98140  0.14222  1.0000
  H   H896      1.0  0.60858  0.16165  0.46233  1.0000
  H   H897      1.0  0.51816  0.25071  0.26711  1.0000
  H   H898      1.0  0.52508  0.04423  0.21344  1.0000
  C   C1138     1.0  0.60265  0.19252  0.44000  1.0000
  C   C1139     1.0  0.51056  0.22726  0.21506  1.0000
  C   C1140     1.0  0.55896  0.07907  0.22556  1.0000
  C   C1141     1.0  0.50236  0.45420  0.28307  1.0000
  C   C1142     1.0  0.53343  0.19303  0.04615  1.0000
  Fe  Fe77      1.0  0.49007  0.41106  0.38866  1.0000
  H   H899      1.0  0.64759  0.20473  0.20933  1.0000
  C   C1143     1.0  0.59743  0.20730  0.16356  1.0000
  P   P38       1.0  0.54485  0.18423  0.17805  1.0000
  H   H900      1.0  0.58937  0.23532  0.32368  1.0000
  C   C1144     1.0  0.55050  0.21776  0.24031  1.0000
  C   C1145     1.0  0.56481  0.09487  0.29239  1.0000
  C   C1146     1.0  0.69010  0.44861  0.99258  1.0000
  C   C1147     1.0  0.69203  0.01949  0.04679  1.0000
  H   H901      1.0  0.55429  0.18273  0.42304  1.0000
  P   P39       1.0  0.67456  0.02733  0.08332  1.0000
  C   C1148     1.0  0.64168  0.01484  0.06751  1.0000
  C   C1149     1.0  0.49100  0.99991  0.25768  1.0000
  H   H902      1.0  0.56578  0.21410  0.25082  1.0000
  H   H903      1.0  0.57597  0.10916  0.31424  1.0000
  H   H904      1.0  0.49468  0.23049  0.20595  1.0000
  C   C1150     1.0  0.52651  0.16887  0.06126  1.0000
  H   H905      1.0  0.68116  0.98329  0.22810  1.0000
  C   C1151     1.0  0.62272  0.01228  0.09450  1.0000
  C   C1152     1.0  0.59746  0.00350  0.08199  1.0000
  H   H906      1.0  0.60406  0.99345  0.98551  1.0000
  H   H907      1.0  0.47759  0.12324  0.09627  1.0000
  C   C1153     1.0  0.63483  0.00807  0.02803  1.0000
  C   C1154     1.0  0.68877  0.06164  0.08996  1.0000
  H   H908      1.0  0.53066  0.19499  0.01519  1.0000
  H   H909      1.0  0.58630  0.45509  0.35776  1.0000
  C   C1155     1.0  0.52129  0.18431  0.40042  1.0000
  C   C1156     1.0  0.65290  0.23167  0.33689  1.0000
  H   H910      1.0  0.67284  0.10973  0.10618  1.0000
  H   H911      1.0  0.48924  0.28159  0.02761  1.0000
  C   C1157     1.0  0.55486  0.46403  0.36287  1.0000
  C   C1158     1.0  0.47980  0.45617  0.28756  1.0000
  H   H912      1.0  0.50581  0.20129  0.16753  1.0000
  C   C1159     1.0  0.47314  0.05242  0.32165  1.0000
  C   C1160     1.0  0.60944  0.99892  0.01585  1.0000
  C   C1161     1.0  0.52677  0.01913  0.34808  1.0000
  C   C1162     1.0  0.61556  0.23256  0.36554  1.0000
  H   H913      1.0  0.49764  0.16058  0.22454  1.0000
  H   H914      1.0  0.62743  0.01734  0.12514  1.0000
  H   H915      1.0  0.64539  0.28094  0.39381  1.0000
  C   C1163     1.0  0.63290  0.28554  0.41172  1.0000
  C   C1164     1.0  0.54213  0.07375  0.30296  1.0000
  H   H916      1.0  0.55543  0.22858  0.12965  1.0000
  H   H917      1.0  0.71465  0.20227  0.41895  1.0000
  C   C1165     1.0  0.47587  0.47410  0.26613  1.0000
  C   C1166     1.0  0.49620  0.10252  0.22223  1.0000
  H   H918      1.0  0.59935  0.47401  0.16050  1.0000
  C   C1167     1.0  0.56417  0.21968  0.39774  1.0000
  H   H919      1.0  0.47775  0.47345  0.09414  1.0000
  H   H920      1.0  0.56567  0.08099  0.19569  1.0000
  C   C1168     1.0  0.54743  0.19459  0.40857  1.0000
  C   C1169     1.0  0.52380  0.23866  0.24964  1.0000
  H   H921      1.0  0.53820  0.46796  0.25415  1.0000
  H   H922      1.0  0.71289  0.04487  0.14743  1.0000
  C   C1170     1.0  0.69908  0.01559  0.19026  1.0000
  C   C1171     1.0  0.51698  0.21080  0.19336  1.0000
  H   H923      1.0  0.59811  0.04853  0.20497  1.0000
  C   C1172     1.0  0.52091  0.46994  0.25682  1.0000
  C   C1173     1.0  0.67351  0.07388  0.09646  1.0000
  H   H924      1.0  0.59363  0.21612  0.13853  1.0000
  H   H925      1.0  0.54807  0.13658  0.16625  1.0000
  S   S153      1.0  0.47477  0.12812  0.33445  1.0000
  H   H926      1.0  0.65535  0.23371  0.27413  1.0000
  C   C1174     1.0  0.64427  0.23346  0.29952  1.0000
  C   C1175     1.0  0.51718  0.10792  0.19830  1.0000
  C   C1176     1.0  0.59339  0.27313  0.44694  1.0000
  H   H927      1.0  0.70458  0.21331  0.34788  1.0000
  H   H928      1.0  0.67056  0.23042  0.34037  1.0000
  C   C1177     1.0  0.67663  0.01339  0.12930  1.0000
  C   C1178     1.0  0.60849  0.18505  0.22795  1.0000
  C   C1179     1.0  0.58334  0.18007  0.22024  1.0000
  C   C1180     1.0  0.60705  0.23436  0.32783  1.0000
  C   C1181     1.0  0.65774  0.98895  0.13942  1.0000
  C   C1182     1.0  0.50323  0.14611  0.21661  1.0000
  H   H929      1.0  0.63788  0.22470  0.15243  1.0000
  C   C1183     1.0  0.52471  0.15189  0.19328  1.0000
  H   H930      1.0  0.61698  0.98179  0.28728  1.0000
  C   C1184     1.0  0.70336  0.03579  0.01516  1.0000
  C   C1185     1.0  0.48016  0.21047  0.04976  1.0000
  C   C1186     1.0  0.52341  0.24322  0.98176  1.0000
  C   C1187     1.0  0.53147  0.13253  0.18399  1.0000
  C   C1188     1.0  0.62261  0.21225  0.17137  1.0000
  C   C1189     1.0  0.62811  0.20102  0.20341  1.0000
  H   H931      1.0  0.61467  0.23602  0.26591  1.0000
  H   H932      1.0  0.52432  0.14709  0.11188  1.0000
  C   C1190     1.0  0.48235  0.00601  0.36274  1.0000
  C   C1191     1.0  0.54728  0.21175  0.11086  1.0000
  C   C1192     1.0  0.69755  0.02642  0.15477  1.0000
  H   H933      1.0  0.54921  0.23323  0.05924  1.0000
  H   H934      1.0  0.59582  0.18316  0.41188  1.0000
  C   C1193     1.0  0.70685  0.99025  0.02040  1.0000
  C   C1194     1.0  0.53717  0.20610  0.20565  1.0000
  P   P40       1.0  0.59807  0.23357  0.40840  1.0000
  H   H935      1.0  0.61273  0.17658  0.25319  1.0000
  H   H936      1.0  0.56846  0.16760  0.23967  1.0000
  C   C1195     1.0  0.71541  0.07644  0.08872  1.0000
  C   C1196     1.0  0.52997  0.16606  0.10111  1.0000
  C   C1197     1.0  0.68474  0.10042  0.10137  1.0000
  H   H937      1.0  0.68445  0.98333  0.07232  1.0000
  H   H938      1.0  0.50847  0.16481  0.40830  1.0000
  H   H939      1.0  0.64896  0.00995  0.00645  1.0000
  C   C1198     1.0  0.63871  0.23135  0.36980  1.0000
  C   C1199     1.0  0.51169  0.19874  0.38077  1.0000
  H   H940      1.0  0.47289  0.11733  0.24989  1.0000
  H   H941      1.0  0.65960  0.32560  0.41439  1.0000
  H   H942      1.0  0.54856  0.01234  0.39278  1.0000
  C   C1200     1.0  0.60996  0.18031  0.46849  1.0000
  C   C1201     1.0  0.60478  0.21689  0.44734  1.0000
  H   H943      1.0  0.52257  0.09313  0.19134  1.0000
  H   H944      1.0  0.63181  0.33717  0.45565  1.0000
  C   C1202     1.0  0.48482  0.28429  0.99782  1.0000
  H   H945      1.0  0.57118  0.98993  0.03330  1.0000
  C   C1203     1.0  0.60163  0.29855  0.45851  1.0000
  H   H946      1.0  0.54288  0.02731  0.32847  1.0000
  C   C1204     1.0  0.70832  0.43188  0.04106  1.0000
  C   C1205     1.0  0.48555  0.99725  0.39923  1.0000
  C   C1206     1.0  0.47735  0.20395  0.08928  1.0000
  C   C1207     1.0  0.71692  0.02965  0.98703  1.0000
  S   S154      1.0  0.47496  0.37676  0.42862  1.0000
  S   S155      1.0  0.71210  0.16734  0.34551  1.0000
  H   H947      1.0  0.47519  0.32099  0.36713  1.0000
  H   H948      1.0  0.51193  0.99283  0.43845  1.0000
  H   H949      1.0  0.49535  0.32410  0.00795  1.0000
  H   H950      1.0  0.52532  0.25274  0.00978  1.0000
  H   H951      1.0  0.58953  0.30363  0.47662  1.0000
  C   C1208     1.0  0.71124  0.11496  0.09983  1.0000
  H   H952      1.0  0.70629  0.41688  0.06092  1.0000
  H   H953      1.0  0.48567  0.08375  0.23434  1.0000
  H   H954      1.0  0.46955  0.98862  0.41901  1.0000
  C   C1209     1.0  0.47075  0.22670  0.03508  1.0000
  S   S156      1.0  0.46886  0.23910  0.31971  1.0000
  C   C1210     1.0  0.50120  0.09011  0.71138  1.0000
  H   H955      1.0  0.62499  0.06641  0.49408  1.0000
  C   C1211     1.0  0.68628  0.01400  0.57120  1.0000
  S   S157      1.0  0.70770  0.17131  0.84575  1.0000
  C   C1212     1.0  0.61573  0.07710  0.54996  1.0000
  Fe  Fe78      1.0  0.70066  0.15461  0.73226  1.0000
  S   S158      1.0  0.68765  0.18154  0.75993  1.0000
  S   S159      1.0  0.69749  0.14115  0.66702  1.0000
  H   H956      1.0  0.62782  0.05909  0.63846  1.0000
  Fe  Fe79      1.0  0.67166  0.15304  0.80861  1.0000
  S   S160      1.0  0.63113  0.13406  0.83436  1.0000
  H   H957      1.0  0.69625  0.12064  0.58955  1.0000
  S   S161      1.0  0.68320  0.12529  0.77955  1.0000
  Fe  Fe80      1.0  0.49704  0.13762  0.87393  1.0000
  S   S162      1.0  0.53792  0.16116  0.85164  1.0000
  C   C1213     1.0  0.60606  0.14277  0.84023  1.0000
  C   C1214     1.0  0.60751  0.16551  0.82586  1.0000
  C   C1215     1.0  0.58671  0.17102  0.83034  1.0000
  C   C1216     1.0  0.56408  0.15383  0.84888  1.0000
  C   C1217     1.0  0.56277  0.13126  0.86374  1.0000
  C   C1218     1.0  0.58366  0.12588  0.85958  1.0000
  H   H958      1.0  0.62468  0.17886  0.81140  1.0000
  H   H959      1.0  0.58811  0.18867  0.81916  1.0000
  H   H960      1.0  0.54575  0.11808  0.87868  1.0000
  H   H961      1.0  0.58256  0.10856  0.87169  1.0000
  C   C1219     1.0  0.66846  0.02500  0.67836  1.0000
  C   C1220     1.0  0.62280  0.21181  0.74017  1.0000
  H   H962      1.0  0.60928  0.08504  0.60931  1.0000
  H   H963      1.0  0.67526  0.99621  0.58620  1.0000
  C   C1221     1.0  0.56581  0.03777  0.67984  1.0000
  C   C1222     1.0  0.60620  0.08597  0.76015  1.0000
  H   H964      1.0  0.49549  0.43841  0.88705  1.0000
  C   C1223     1.0  0.69485  0.05714  0.55539  1.0000
  S   S163      1.0  0.63818  0.14089  0.50760  1.0000
  H   H965      1.0  0.63368  0.16207  0.71336  1.0000
  C   C1224     1.0  0.54413  0.11717  0.75877  1.0000
  C   C1225     1.0  0.65554  0.14130  0.55122  1.0000
  C   C1226     1.0  0.67198  0.13014  0.55291  1.0000
  C   C1227     1.0  0.68409  0.12984  0.58866  1.0000
  C   C1228     1.0  0.68077  0.14142  0.62309  1.0000
  C   C1229     1.0  0.66460  0.15285  0.62128  1.0000
  C   C1230     1.0  0.65184  0.15244  0.58586  1.0000
  H   H966      1.0  0.67490  0.12119  0.52690  1.0000
  H   H967      1.0  0.56654  0.08731  0.63949  1.0000
  H   H968      1.0  0.66182  0.16194  0.64724  1.0000
  H   H969      1.0  0.63911  0.16102  0.58529  1.0000
  C   C1231     1.0  0.50263  0.41217  0.85105  1.0000
  C   C1232     1.0  0.52165  0.40767  0.83361  1.0000
  C   C1233     1.0  0.54763  0.42555  0.83835  1.0000
  C   C1234     1.0  0.55501  0.44819  0.86046  1.0000
  C   C1235     1.0  0.53597  0.45263  0.87810  1.0000
  C   C1236     1.0  0.50999  0.43475  0.87333  1.0000
  H   H970      1.0  0.51638  0.39043  0.81639  1.0000
  H   H971      1.0  0.56212  0.42183  0.82460  1.0000
  H   H972      1.0  0.56628  0.08724  0.56707  1.0000
  H   H973      1.0  0.49150  0.99524  0.65077  1.0000
  C   C1237     1.0  0.62157  0.21651  0.51234  1.0000
  H   H974      1.0  0.57869  0.09950  0.76944  1.0000
  H   H975      1.0  0.56029  0.97922  0.70091  1.0000
  C   C1238     1.0  0.58247  0.14989  0.62503  1.0000
  H   H976      1.0  0.48452  0.08022  0.69283  1.0000
  C   C1239     1.0  0.47617  0.26412  0.97028  1.0000
  C   C1240     1.0  0.48013  0.00501  0.65639  1.0000
  C   C1241     1.0  0.57720  0.12751  0.64546  1.0000
  C   C1242     1.0  0.62823  0.99800  0.60301  1.0000
  H   H977      1.0  0.57682  0.12718  0.53143  1.0000
  C   C1243     1.0  0.63840  0.04896  0.58273  1.0000
  C   C1244     1.0  0.59623  0.16049  0.71582  1.0000
  C   C1245     1.0  0.50274  0.03066  0.77502  1.0000
  C   C1246     1.0  0.52562  0.09981  0.69524  1.0000
  H   H978      1.0  0.68282  0.46957  0.82243  1.0000
  C   C1247     1.0  0.47270  0.26896  0.93109  1.0000
  H   H979      1.0  0.60770  0.08860  0.53724  1.0000
  H   H980      1.0  0.62608  0.18317  0.52599  1.0000
  H   H981      1.0  0.50299  0.43094  0.51555  1.0000
  H   H982      1.0  0.63871  0.46084  0.84036  1.0000
  C   C1248     1.0  0.70721  0.01683  0.54874  1.0000
  C   C1249     1.0  0.51161  0.47547  0.79120  1.0000
  C   C1250     1.0  0.62491  0.08568  0.73545  1.0000
  C   C1251     1.0  0.59633  0.11054  0.71255  1.0000
  C   C1252     1.0  0.49376  0.46184  0.52596  1.0000
  H   H983      1.0  0.69074  0.07319  0.55837  1.0000
  H   H984      1.0  0.54400  0.05019  0.76878  1.0000
  H   H985      1.0  0.48763  0.33183  0.93901  1.0000
  H   H986      1.0  0.71207  0.00125  0.54616  1.0000
  H   H987      1.0  0.56055  0.12812  0.77735  1.0000
  C   C1253     1.0  0.49965  0.23136  0.96243  1.0000
  H   H988      1.0  0.54126  0.46991  0.89518  1.0000
  C   C1254     1.0  0.52605  0.01210  0.71364  1.0000
  C   C1255     1.0  0.58298  0.17460  0.72408  1.0000
  C   C1256     1.0  0.59624  0.20012  0.73635  1.0000
  C   C1257     1.0  0.59213  0.09854  0.74896  1.0000
  H   H989      1.0  0.55939  0.23094  0.91495  1.0000
  C   C1258     1.0  0.63614  0.19802  0.73154  1.0000
  H   H990      1.0  0.58609  0.16695  0.56849  1.0000
  C   C1259     1.0  0.62294  0.17242  0.71950  1.0000
  H   H991      1.0  0.58999  0.01996  0.66988  1.0000
  C   C1260     1.0  0.53250  0.06318  0.81977  1.0000
  H   H992      1.0  0.57881  0.05547  0.66630  1.0000
  H   H993      1.0  0.51591  0.07205  0.87014  1.0000
  C   C1261     1.0  0.57652  0.12716  0.56321  1.0000
  C   C1262     1.0  0.62983  0.09829  0.69975  1.0000
  H   H994      1.0  0.47182  0.04056  0.85255  1.0000
  C   C1263     1.0  0.54488  0.24295  0.96482  1.0000
  P   P41       1.0  0.57911  0.12786  0.69835  1.0000
  H   H995      1.0  0.52727  0.09703  0.66426  1.0000
  C   C1264     1.0  0.67920  0.03375  0.71553  1.0000
  P   P42       1.0  0.49649  0.00904  0.73371  1.0000
  C   C1265     1.0  0.54735  0.11344  0.71890  1.0000
  C   C1266     1.0  0.48737  0.04295  0.83350  1.0000
  H   H996      1.0  0.47256  0.19553  0.83909  1.0000
  C   C1267     1.0  0.47018  0.23032  0.82733  1.0000
  S   S164      1.0  0.58815  0.47020  0.86476  1.0000
  H   H997      1.0  0.51799  0.21150  0.87960  1.0000
  H   H998      1.0  0.51748  0.11052  0.80561  1.0000
  C   C1268     1.0  0.54270  0.03488  0.69522  1.0000
  H   H999      1.0  0.69960  0.19805  0.48743  1.0000
  H   H1000     1.0  0.58712  0.16763  0.64049  1.0000
  C   C1269     1.0  0.64817  0.47082  0.90109  1.0000
  H   H1001     1.0  0.63634  0.07664  0.74479  1.0000
  H   H1002     1.0  0.60345  0.07754  0.78890  1.0000
  C   C1270     1.0  0.62761  0.06076  0.60698  1.0000
  H   H1003     1.0  0.47395  0.29681  0.88973  1.0000
  C   C1271     1.0  0.61565  0.11070  0.68837  1.0000
  C   C1272     1.0  0.51972  0.10728  0.77484  1.0000
  H   H1004     1.0  0.65673  0.20710  0.73477  1.0000
  H   H1005     1.0  0.58586  0.21072  0.74351  1.0000
  H   H1006     1.0  0.62892  0.46705  0.90872  1.0000
  C   C1273     1.0  0.71558  0.05978  0.53268  1.0000
  C   C1274     1.0  0.58201  0.14964  0.58407  1.0000
  H   H1007     1.0  0.64528  0.09928  0.68157  1.0000
  C   C1275     1.0  0.57100  0.10483  0.62429  1.0000
  H   H1008     1.0  0.47932  0.08602  0.76383  1.0000
  C   C1276     1.0  0.49823  0.09360  0.75124  1.0000
  C   C1277     1.0  0.48438  0.31297  0.94786  1.0000
  C   C1278     1.0  0.65370  0.46726  0.86247  1.0000
  H   H1009     1.0  0.62026  0.12098  0.66113  1.0000
  H   H1010     1.0  0.63306  0.23148  0.75021  1.0000
  C   C1279     1.0  0.57077  0.10470  0.58332  1.0000
  H   H1011     1.0  0.48003  0.21188  0.90938  1.0000
  H   H1012     1.0  0.64427  0.04094  0.52251  1.0000
  C   C1280     1.0  0.51948  0.22033  0.90821  1.0000
  C   C1281     1.0  0.54286  0.23133  0.92816  1.0000
  C   C1282     1.0  0.51229  0.06060  0.84360  1.0000
  C   C1283     1.0  0.68837  0.05947  0.72601  1.0000
  S   S165      1.0  0.48108  0.10204  0.90988  1.0000
  C   C1284     1.0  0.49797  0.22044  0.92521  1.0000
  S   S166      1.0  0.47980  0.15698  0.91260  1.0000
  C   C1285     1.0  0.68713  0.07652  0.69913  1.0000
  C   C1286     1.0  0.47931  0.01445  0.69409  1.0000
  C   C1287     1.0  0.62254  0.98338  0.56824  1.0000
  C   C1288     1.0  0.62567  0.06473  0.52561  1.0000
  C   C1289     1.0  0.67972  0.03402  0.57413  1.0000
  C   C1290     1.0  0.55556  0.99493  0.69971  1.0000
  H   H1013     1.0  0.47610  0.46785  0.88145  1.0000
  C   C1291     1.0  0.53252  0.99201  0.71542  1.0000
  C   C1292     1.0  0.47656  0.29321  0.92008  1.0000
  S   S167      1.0  0.46951  0.39036  0.84595  1.0000
  H   H1014     1.0  0.66197  0.00509  0.67049  1.0000
  C   C1293     1.0  0.67849  0.47217  0.85247  1.0000
  H   H1015     1.0  0.62920  0.22590  0.54025  1.0000
  C   C1294     1.0  0.50641  0.44987  0.50684  1.0000
  C   C1295     1.0  0.57222  0.01779  0.68206  1.0000
  H   H1016     1.0  0.56240  0.16594  0.72128  1.0000
  H   H1017     1.0  0.61613  0.99889  0.66266  1.0000
  H   H1018     1.0  0.68056  0.02059  0.73615  1.0000
  H   H1019     1.0  0.69475  0.09658  0.70704  1.0000
  H   H1020     1.0  0.67642  0.08164  0.64122  1.0000
  P   P43       1.0  0.65298  0.03070  0.60338  1.0000
  H   H1021     1.0  0.53789  0.05050  0.69330  1.0000
  H   H1022     1.0  0.63391  0.99093  0.54225  1.0000
  H   H1023     1.0  0.49056  0.24156  0.82353  1.0000
  C   C1296     1.0  0.67646  0.06788  0.66192  1.0000
  C   C1297     1.0  0.61256  0.98791  0.63576  1.0000
  C   C1298     1.0  0.66635  0.04188  0.65165  1.0000
  H   H1024     1.0  0.54357  0.46796  0.78047  1.0000
  C   C1299     1.0  0.48256  0.02804  0.79940  1.0000
  C   C1300     1.0  0.52783  0.04825  0.78574  1.0000
  H   H1025     1.0  0.69678  0.06632  0.75479  1.0000
  C   C1301     1.0  0.61412  0.22874  0.48395  1.0000
  C   C1302     1.0  0.61667  0.07511  0.59060  1.0000
  H   H1026     1.0  0.55187  0.07656  0.82795  1.0000
  H   H1027     1.0  0.49859  0.45876  0.77464  1.0000
  C   C1303     1.0  0.61972  0.19242  0.50445  1.0000
  C   C1304     1.0  0.63680  0.05054  0.54188  1.0000
  H   H1028     1.0  0.48110  0.45210  0.54989  1.0000
  H   H1029     1.0  0.50194  0.98305  0.80253  1.0000
  H   H1030     1.0  0.61625  0.24759  0.49053  1.0000
  H   H1031     1.0  0.67372  0.44602  0.97525  1.0000
  Fe  Fe81      1.0  0.54895  0.95479  0.15603  1.0000
  S   S168      1.0  0.52659  0.91770  0.18716  1.0000
  C   C1305     1.0  0.57844  0.58263  0.06087  1.0000
  Fe  Fe82      1.0  0.53613  0.92740  0.07335  1.0000
  S   S169      1.0  0.51238  0.88880  0.09976  1.0000
  S   S170      1.0  0.54685  0.93744  0.00830  1.0000
  Fe  Fe83      1.0  0.49649  0.90903  0.13992  1.0000
  H   H1032     1.0  0.67587  0.82320  0.27450  1.0000
  Fe  Fe84      1.0  0.54381  0.90028  0.14483  1.0000
  S   S171      1.0  0.56616  0.87819  0.15888  1.0000
  S   S172      1.0  0.51813  0.94699  0.11056  1.0000
  S   S173      1.0  0.56836  0.93813  0.11671  1.0000
  H   H1033     1.0  0.49282  0.59165  0.13319  1.0000
  S   S174      1.0  0.61550  0.54063  0.03369  1.0000
  Fe  Fe85      1.0  0.53778  0.68246  0.19528  1.0000
  S   S175      1.0  0.57531  0.69311  0.22621  1.0000
  S   S176      1.0  0.51884  0.64196  0.16790  1.0000
  Fe  Fe86      1.0  0.54307  0.73597  0.21017  1.0000
  S   S177      1.0  0.58028  0.74948  0.24245  1.0000
  S   S178      1.0  0.52290  0.76078  0.20332  1.0000
  Fe  Fe87      1.0  0.59087  0.73019  0.19348  1.0000
  S   S179      1.0  0.63239  0.74920  0.17162  1.0000
  Fe  Fe88      1.0  0.56192  0.71136  0.27280  1.0000
  S   S180      1.0  0.57218  0.71033  0.33789  1.0000
  S   S181      1.0  0.55441  0.71852  0.15939  1.0000
  S   S182      1.0  0.52363  0.69894  0.24374  1.0000
  C   C1306     1.0  0.67822  0.75067  0.45669  1.0000
  C   C1307     1.0  0.64841  0.69055  0.14683  1.0000
  H   H1034     1.0  0.66964  0.94539  0.35325  1.0000
  Fe  Fe89      1.0  0.65676  0.56425  0.31690  1.0000
  S   S183      1.0  0.66966  0.60131  0.28465  1.0000
  S   S184      1.0  0.61407  0.54664  0.33296  1.0000
  Fe  Fe90      1.0  0.69057  0.58711  0.24425  1.0000
  S   S185      1.0  0.69280  0.59460  0.17763  1.0000
  C   C1308     1.0  0.50515  0.48924  0.14132  1.0000
  C   C1309     1.0  0.48772  0.55235  0.20979  1.0000
  S   S186      1.0  0.67644  0.54936  0.27462  1.0000
  S   S187      1.0  0.69028  0.58135  0.35915  1.0000
  C   C1310     1.0  0.54904  0.51512  0.12175  1.0000
  C   C1311     1.0  0.49100  0.50858  0.34855  1.0000
  H   H1035     1.0  0.55869  0.57762  0.30120  1.0000
  H   H1036     1.0  0.50815  0.50649  0.35287  1.0000
  C   C1312     1.0  0.55580  0.81967  0.07010  1.0000
  C   C1313     1.0  0.68926  0.94314  0.11790  1.0000
  H   H1037     1.0  0.58058  0.56543  0.00585  1.0000
  H   H1038     1.0  0.62034  0.51841  0.26702  1.0000
  C   C1314     1.0  0.64586  0.75930  0.12421  1.0000
  C   C1315     1.0  0.67238  0.76864  0.11927  1.0000
  C   C1316     1.0  0.68386  0.77635  0.08218  1.0000
  C   C1317     1.0  0.66898  0.77496  0.04937  1.0000
  C   C1318     1.0  0.64250  0.76581  0.05445  1.0000
  C   C1319     1.0  0.63099  0.75793  0.09142  1.0000
  H   H1039     1.0  0.68414  0.76981  0.14433  1.0000
  H   H1040     1.0  0.70423  0.78339  0.07903  1.0000
  H   H1041     1.0  0.63072  0.76476  0.02962  1.0000
  H   H1042     1.0  0.61062  0.75081  0.09457  1.0000
  C   C1320     1.0  0.53119  0.66154  0.44573  1.0000
  C   C1321     1.0  0.55514  0.68289  0.44937  1.0000
  C   C1322     1.0  0.56738  0.69734  0.41608  1.0000
  C   C1323     1.0  0.55549  0.69137  0.37888  1.0000
  C   C1324     1.0  0.53121  0.67042  0.37546  1.0000
  C   C1325     1.0  0.51944  0.65533  0.40845  1.0000
  H   H1043     1.0  0.63304  0.95520  0.32075  1.0000
  H   H1044     1.0  0.58616  0.71340  0.41925  1.0000
  H   H1045     1.0  0.52156  0.66566  0.34733  1.0000
  H   H1046     1.0  0.50094  0.63887  0.40508  1.0000
  C   C1326     1.0  0.63826  0.55467  0.07258  1.0000
  C   C1327     1.0  0.66089  0.57728  0.06780  1.0000
  C   C1328     1.0  0.67739  0.58894  0.10013  1.0000
  C   C1329     1.0  0.67169  0.57815  0.13768  1.0000
  C   C1330     1.0  0.64944  0.55511  0.14219  1.0000
  C   C1331     1.0  0.63271  0.54365  0.11000  1.0000
  H   H1047     1.0  0.66537  0.58595  0.03930  1.0000
  H   H1048     1.0  0.69468  0.60651  0.09615  1.0000
  H   H1049     1.0  0.64489  0.54638  0.17069  1.0000
  H   H1050     1.0  0.61530  0.52616  0.11417  1.0000
  H   H1051     1.0  0.66984  0.95144  0.42482  1.0000
  C   C1332     1.0  0.55381  0.84559  0.17155  1.0000
  C   C1333     1.0  0.57053  0.83464  0.17359  1.0000
  C   C1334     1.0  0.56145  0.80866  0.18287  1.0000
  C   C1335     1.0  0.53553  0.79345  0.19069  1.0000
  C   C1336     1.0  0.51891  0.80451  0.18885  1.0000
  C   C1337     1.0  0.52795  0.83041  0.17934  1.0000
  H   H1052     1.0  0.59058  0.84631  0.16779  1.0000
  H   H1053     1.0  0.57445  0.80043  0.18429  1.0000
  H   H1054     1.0  0.49884  0.79292  0.19485  1.0000
  H   H1055     1.0  0.51486  0.83856  0.17796  1.0000
  C   C1338     1.0  0.60467  0.67625  0.01719  1.0000
  C   C1339     1.0  0.65355  0.93209  0.37007  1.0000
  H   H1056     1.0  0.60137  0.69672  0.09756  1.0000
  C   C1340     1.0  0.59173  0.51459  0.34433  1.0000
  C   C1341     1.0  0.70452  0.76671  0.45557  1.0000
  H   H1057     1.0  0.58895  0.92494  0.03773  1.0000
  H   H1058     1.0  0.61786  0.68451  0.24564  1.0000
  C   C1342     1.0  0.48573  0.61937  0.16540  1.0000
  H   H1059     1.0  0.57469  0.66358  0.14469  1.0000
  H   H1060     1.0  0.61199  0.69481  0.31373  1.0000
  H   H1061     1.0  0.50584  0.95727  0.32376  1.0000
  C   C1343     1.0  0.57106  0.75490  0.42489  1.0000
  H   H1062     1.0  0.66429  0.66754  0.35335  1.0000
  C   C1344     1.0  0.61602  0.62838  0.03015  1.0000
  C   C1345     1.0  0.54371  0.83820  0.00256  1.0000
  P   P44       1.0  0.66427  0.89470  0.08257  1.0000
  C   C1346     1.0  0.67389  0.88091  0.04234  1.0000
  C   C1347     1.0  0.65229  0.87184  0.12164  1.0000
  C   C1348     1.0  0.63712  0.84578  0.11289  1.0000
  C   C1349     1.0  0.62846  0.82792  0.14293  1.0000
  C   C1350     1.0  0.63455  0.83596  0.18191  1.0000
  C   C1351     1.0  0.64931  0.86189  0.19088  1.0000
  C   C1352     1.0  0.65817  0.87979  0.16088  1.0000
  C   C1353     1.0  0.67241  0.88768  0.00347  1.0000
  C   C1354     1.0  0.63999  0.90337  0.06665  1.0000
  C   C1355     1.0  0.47924  0.95750  0.20851  1.0000
  C   C1356     1.0  0.47838  0.59563  0.14642  1.0000
  H   H1063     1.0  0.59500  0.64825  0.19387  1.0000
  C   C1357     1.0  0.55658  0.58490  0.20288  1.0000
  C   C1358     1.0  0.61418  0.88830  0.07608  1.0000
  C   C1359     1.0  0.55641  0.57270  0.27026  1.0000
  H   H1064     1.0  0.67046  0.94138  0.12347  1.0000
  H   H1065     1.0  0.63216  0.83921  0.08286  1.0000
  H   H1066     1.0  0.61703  0.80777  0.13608  1.0000
  H   H1067     1.0  0.62769  0.82204  0.20507  1.0000
  C   C1360     1.0  0.69679  0.79977  0.42636  1.0000
  C   C1361     1.0  0.47290  0.54067  0.44602  1.0000
  C   C1362     1.0  0.59589  0.89601  0.06530  1.0000
  C   C1363     1.0  0.70694  0.68779  0.10222  1.0000
  H   H1068     1.0  0.62943  0.49345  0.21635  1.0000
  C   C1364     1.0  0.56096  0.58643  0.47832  1.0000
  H   H1069     1.0  0.54940  0.55603  0.15934  1.0000
  C   C1365     1.0  0.68253  0.69620  0.05246  1.0000
  H   H1070     1.0  0.60801  0.87089  0.09244  1.0000
  C   C1366     1.0  0.57239  0.83651  0.27392  1.0000
  C   C1367     1.0  0.58331  0.82000  0.27636  1.0000
  C   C1368     1.0  0.60919  0.82965  0.28577  1.0000
  C   C1369     1.0  0.62425  0.85590  0.29217  1.0000
  C   C1370     1.0  0.61356  0.87275  0.28871  1.0000
  C   C1371     1.0  0.58732  0.86272  0.28045  1.0000
  P   P45       1.0  0.63274  0.90649  0.29930  1.0000
  C   C1372     1.0  0.62041  0.92580  0.27526  1.0000
  C   C1373     1.0  0.63281  0.91155  0.35163  1.0000
  H   H1071     1.0  0.64172  0.97816  0.11995  1.0000
  H   H1072     1.0  0.50605  0.92930  0.26902  1.0000
  C   C1374     1.0  0.67470  0.83921  0.45723  1.0000
  C   C1375     1.0  0.61210  0.89902  0.41481  1.0000
  C   C1376     1.0  0.61193  0.89522  0.37427  1.0000
  C   C1377     1.0  0.60844  0.91857  0.23836  1.0000
  C   C1378     1.0  0.59919  0.93372  0.21987  1.0000
  C   C1379     1.0  0.61257  0.49625  0.21371  1.0000
  C   C1380     1.0  0.63302  0.91919  0.43297  1.0000
  H   H1073     1.0  0.62396  0.83851  0.00255  1.0000
  C   C1381     1.0  0.66498  0.91647  0.28245  1.0000
  C   C1382     1.0  0.67265  0.92766  0.24556  1.0000
  C   C1383     1.0  0.65664  0.86807  0.41515  1.0000
  H   H1074     1.0  0.50909  0.54037  0.31018  1.0000
  C   C1384     1.0  0.68199  0.67335  0.20551  1.0000
  C   C1385     1.0  0.68289  0.91372  0.30659  1.0000
  H   H1075     1.0  0.55230  0.82895  0.26645  1.0000
  H   H1076     1.0  0.57162  0.79970  0.27081  1.0000
  H   H1077     1.0  0.61747  0.81667  0.28801  1.0000
  H   H1078     1.0  0.64417  0.86292  0.29979  1.0000
  H   H1079     1.0  0.57823  0.87500  0.27900  1.0000
  C   C1386     1.0  0.70295  0.55569  0.98889  1.0000
  H   H1080     1.0  0.70222  0.84255  0.02562  1.0000
  C   C1387     1.0  0.58599  0.51438  0.23888  1.0000
  H   H1081     1.0  0.59602  0.88632  0.43223  1.0000
  H   H1082     1.0  0.59547  0.87955  0.36078  1.0000
  H   H1083     1.0  0.60620  0.90125  0.22367  1.0000
  H   H1084     1.0  0.58978  0.92797  0.19162  1.0000
  C   C1388     1.0  0.60696  0.62778  0.06833  1.0000
  H   H1085     1.0  0.65405  0.86815  0.22105  1.0000
  H   H1086     1.0  0.65930  0.92980  0.22611  1.0000
  C   C1389     1.0  0.56601  0.50863  0.35107  1.0000
  C   C1390     1.0  0.61024  0.68935  0.11818  1.0000
  C   C1391     1.0  0.48813  0.92651  0.28170  1.0000
  H   H1087     1.0  0.67755  0.90508  0.33509  1.0000
  C   C1392     1.0  0.49463  0.49028  0.24051  1.0000
  H   H1088     1.0  0.63515  0.68648  0.36788  1.0000
  C   C1393     1.0  0.53659  0.82725  0.07101  1.0000
  C   C1394     1.0  0.59879  0.49503  0.34659  1.0000
  C   C1395     1.0  0.71493  0.52144  0.98510  1.0000
  H   H1089     1.0  0.64480  0.95935  0.18238  1.0000
  C   C1396     1.0  0.71680  0.92605  0.09298  1.0000
  C   C1397     1.0  0.63673  0.69881  0.11863  1.0000
  H   H1090     1.0  0.55318  0.57419  0.45273  1.0000
  C   C1398     1.0  0.53095  0.50421  0.15161  1.0000
  C   C1399     1.0  0.64705  0.92612  0.04615  1.0000
  C   C1400     1.0  0.49736  0.58500  0.29270  1.0000
  C   C1401     1.0  0.51245  0.59056  0.32686  1.0000
  C   C1402     1.0  0.53311  0.61481  0.33273  1.0000
  C   C1403     1.0  0.53854  0.63380  0.30500  1.0000
  C   C1404     1.0  0.52297  0.62874  0.27187  1.0000
  C   C1405     1.0  0.50236  0.60455  0.26587  1.0000
  C   C1406     1.0  0.56348  0.83118  0.00146  1.0000
  H   H1091     1.0  0.56030  0.52358  0.34941  1.0000
  C   C1407     1.0  0.65369  0.93574  0.41060  1.0000
  H   H1092     1.0  0.50470  0.56965  0.21722  1.0000
  H   H1093     1.0  0.54452  0.61921  0.35931  1.0000
  H   H1094     1.0  0.55423  0.65276  0.30986  1.0000
  H   H1095     1.0  0.52651  0.64374  0.25115  1.0000
  H   H1096     1.0  0.53011  0.88393  0.98327  1.0000
  H   H1097     1.0  0.67966  0.71005  0.03555  1.0000
  C   C1408     1.0  0.69210  0.92333  0.09890  1.0000
  H   H1098     1.0  0.55580  0.51836  0.05956  1.0000
  C   C1409     1.0  0.68186  0.86452  0.46843  1.0000
  C   C1410     1.0  0.56923  0.82160  0.03554  1.0000
  C   C1411     1.0  0.57390  0.48900  0.17912  1.0000
  C   C1412     1.0  0.51586  0.49570  0.07244  1.0000
  H   H1099     1.0  0.71498  0.72542  0.08308  1.0000
  P   P46       1.0  0.64857  0.79533  0.41043  1.0000
  H   H1100     1.0  0.66478  0.90070  0.99665  1.0000
  C   C1413     1.0  0.64857  0.79093  0.35796  1.0000
  C   C1414     1.0  0.63493  0.76639  0.34136  1.0000
  C   C1415     1.0  0.63538  0.76256  0.30095  1.0000
  C   C1416     1.0  0.64986  0.78309  0.27682  1.0000
  C   C1417     1.0  0.66415  0.80745  0.29320  1.0000
  H   H1101     1.0  0.67551  0.83021  0.34590  1.0000
  H   H1102     1.0  0.54867  0.53393  0.27971  1.0000
  H   H1103     1.0  0.55407  0.74744  0.40652  1.0000
  H   H1104     1.0  0.70438  0.81870  0.41415  1.0000
  H   H1105     1.0  0.56008  0.81208  0.09627  1.0000
  C   C1418     1.0  0.56926  0.50421  0.20684  1.0000
  H   H1106     1.0  0.61841  0.49919  0.34150  1.0000
  H   H1107     1.0  0.68146  0.63635  0.20017  1.0000
  C   C1419     1.0  0.61013  0.71576  0.98848  1.0000
  H   H1108     1.0  0.63631  0.83440  0.37944  1.0000
  C   C1420     1.0  0.62879  0.68061  0.00352  1.0000
  H   H1109     1.0  0.62387  0.75013  0.35961  1.0000
  H   H1110     1.0  0.62446  0.74361  0.28830  1.0000
  H   H1111     1.0  0.65021  0.77997  0.24548  1.0000
  H   H1112     1.0  0.69986  0.62817  0.02486  1.0000
  C   C1421     1.0  0.64321  0.70258  0.98163  1.0000
  H   H1113     1.0  0.55844  0.59917  0.18168  1.0000
  P   P47       1.0  0.54142  0.50947  0.20235  1.0000
  H   H1114     1.0  0.62598  0.61641  0.26388  1.0000
  C   C1422     1.0  0.58765  0.58295  0.02310  1.0000
  C   C1423     1.0  0.59527  0.67086  0.14498  1.0000
  H   H1115     1.0  0.51870  0.51743  0.47526  1.0000
  H   H1116     1.0  0.56438  0.68793  0.47774  1.0000
  C   C1424     1.0  0.67114  0.65264  0.07029  1.0000
  H   H1117     1.0  0.67832  0.89856  0.45626  1.0000
  C   C1425     1.0  0.49767  0.48516  0.10188  1.0000
  C   C1426     1.0  0.55917  0.59112  0.24278  1.0000
  H   H1118     1.0  0.70404  0.94574  0.20556  1.0000
  H   H1119     1.0  0.68968  0.71264  0.21433  1.0000
  H   H1120     1.0  0.56909  0.52672  0.12882  1.0000
  H   H1121     1.0  0.50802  0.57659  0.34956  1.0000
  P   P48       1.0  0.64791  0.66082  0.21080  1.0000
  C   C1427     1.0  0.63358  0.67259  0.17473  1.0000
  C   C1428     1.0  0.63291  0.62677  0.20268  1.0000
  C   C1429     1.0  0.63073  0.61722  0.16427  1.0000
  C   C1430     1.0  0.62030  0.59099  0.15719  1.0000
  C   C1431     1.0  0.61259  0.57417  0.18851  1.0000
  C   C1432     1.0  0.61471  0.58352  0.22684  1.0000
  C   C1433     1.0  0.62446  0.60972  0.23393  1.0000
  C   C1434     1.0  0.71079  0.96572  0.12894  1.0000
  C   C1435     1.0  0.60317  0.91889  0.04555  1.0000
  H   H1122     1.0  0.63440  0.95177  0.02087  1.0000
  C   C1436     1.0  0.64333  0.66870  0.26051  1.0000
  C   C1437     1.0  0.65674  0.66449  0.29132  1.0000
  C   C1438     1.0  0.65374  0.67082  0.32988  1.0000
  C   C1439     1.0  0.63744  0.68153  0.33801  1.0000
  C   C1440     1.0  0.62437  0.68617  0.30748  1.0000
  C   C1441     1.0  0.62748  0.68000  0.26884  1.0000
  H   H1123     1.0  0.63764  0.63010  0.13987  1.0000
  H   H1124     1.0  0.61910  0.58377  0.12752  1.0000
  H   H1125     1.0  0.60547  0.55395  0.18305  1.0000
  H   H1126     1.0  0.60928  0.57059  0.25130  1.0000
  C   C1442     1.0  0.59565  0.48537  0.18230  1.0000
  S   S188      1.0  0.68215  0.78405  0.00145  1.0000
  Fe  Fe91      1.0  0.70428  0.61724  0.32418  1.0000
  H   H1127     1.0  0.56332  0.61023  0.25239  1.0000
  C   C1443     1.0  0.62877  0.93398  0.03607  1.0000
  C   C1444     1.0  0.48798  0.94222  0.31254  1.0000
  H   H1128     1.0  0.59270  0.65933  0.03333  1.0000
  C   C1445     1.0  0.60757  0.51050  0.24214  1.0000
  C   C1446     1.0  0.69370  0.85502  0.01946  1.0000
  H   H1129     1.0  0.57607  0.88450  0.07319  1.0000
  H   H1130     1.0  0.59616  0.77228  0.37699  1.0000
  C   C1447     1.0  0.69308  0.65684  0.20190  1.0000
  H   H1131     1.0  0.66971  0.89971  0.16841  1.0000
  C   C1448     1.0  0.54155  0.51057  0.08238  1.0000
  H   H1132     1.0  0.52621  0.82574  0.09780  1.0000
  H   H1133     1.0  0.58244  0.52514  0.26168  1.0000
  C   C1449     1.0  0.48558  0.54162  0.17233  1.0000
  H   H1134     1.0  0.66677  0.93793  0.03838  1.0000
  C   C1450     1.0  0.70269  0.70506  0.07956  1.0000
  H   H1135     1.0  0.66893  0.69842  0.14680  1.0000
  C   C1451     1.0  0.54858  0.54158  0.21781  1.0000
  H   H1136     1.0  0.47491  0.94121  0.18949  1.0000
  C   C1452     1.0  0.55132  0.56027  0.19037  1.0000
  H   H1137     1.0  0.70900  0.97305  0.02300  1.0000
  C   C1453     1.0  0.60631  0.60574  0.00765  1.0000
  C   C1454     1.0  0.61728  0.77754  0.43142  1.0000
  H   H1138     1.0  0.66962  0.65637  0.28564  1.0000
  C   C1455     1.0  0.55092  0.54799  0.25790  1.0000
  C   C1456     1.0  0.60686  0.66238  0.17300  1.0000
  C   C1457     1.0  0.53056  0.83652  0.03727  1.0000
  H   H1139     1.0  0.68681  0.85957  0.07983  1.0000
  C   C1458     1.0  0.58803  0.60506  0.08344  1.0000
  H   H1140     1.0  0.50062  0.55091  0.15124  1.0000
  C   C1459     1.0  0.62357  0.94882  0.29268  1.0000
  C   C1460     1.0  0.66116  0.75922  0.44292  1.0000
  C   C1461     1.0  0.69110  0.66159  0.09772  1.0000
  C   C1462     1.0  0.66370  0.81137  0.33367  1.0000
  H   H1141     1.0  0.52806  0.47920  0.36550  1.0000
  C   C1463     1.0  0.69787  0.69969  0.20989  1.0000
  C   C1464     1.0  0.68470  0.86454  0.05007  1.0000
  H   H1142     1.0  0.47197  0.64220  0.19724  1.0000
  H   H1143     1.0  0.58096  0.60484  0.11275  1.0000
  H   H1144     1.0  0.61451  0.64494  0.08636  1.0000
  C   C1465     1.0  0.65896  0.82835  0.42418  1.0000
  C   C1466     1.0  0.67034  0.78411  0.42861  1.0000
  H   H1145     1.0  0.57696  0.69046  0.02075  1.0000
  H   H1146     1.0  0.64946  0.87919  0.39923  1.0000
  C   C1467     1.0  0.65942  0.97815  0.17487  1.0000
  H   H1147     1.0  0.51557  0.84232  0.03806  1.0000
  C   C1468     1.0  0.66642  0.66989  0.04782  1.0000
  H   H1148     1.0  0.59540  0.96827  0.22270  1.0000
  P   P49       1.0  0.64094  0.65790  0.01169  1.0000
  C   C1469     1.0  0.61493  0.77314  0.47192  1.0000
  H   H1149     1.0  0.65939  0.63220  0.06679  1.0000
  H   H1150     1.0  0.51010  0.49215  0.04188  1.0000
  C   C1470     1.0  0.47734  0.56402  0.46310  1.0000
  H   H1151     1.0  0.64827  0.71322  0.09785  1.0000
  H   H1152     1.0  0.49152  0.50441  0.22475  1.0000
  C   C1471     1.0  0.59511  0.76877  0.40814  1.0000
  H   H1153     1.0  0.54076  0.49596  0.44174  1.0000
  H   H1154     1.0  0.56396  0.56499  0.07265  1.0000
  H   H1155     1.0  0.69428  0.64819  0.11554  1.0000
  H   H1156     1.0  0.58363  0.81518  0.03578  1.0000
  C   C1472     1.0  0.64942  0.84277  0.40387  1.0000
  C   C1473     1.0  0.69796  0.93662  0.23360  1.0000
  H   H1157     1.0  0.53281  0.60012  0.47758  1.0000
  H   H1158     1.0  0.67114  0.73153  0.46795  1.0000
  C   C1474     1.0  0.59548  0.69383  0.00982  1.0000
  C   C1475     1.0  0.49150  0.52781  0.32449  1.0000
  H   H1159     1.0  0.60306  0.72946  0.98310  1.0000
  H   H1160     1.0  0.68140  0.82823  0.47460  1.0000
  H   H1161     1.0  0.71784  0.76024  0.46641  1.0000
  C   C1476     1.0  0.60233  0.95647  0.23743  1.0000
  C   C1477     1.0  0.70820  0.92287  0.29460  1.0000
  H   H1162     1.0  0.64815  0.81353  0.00353  1.0000
  H   H1163     1.0  0.63326  0.92210  0.46439  1.0000
  C   C1478     1.0  0.52743  0.48642  0.46505  1.0000
  H   H1164     1.0  0.49011  0.60122  0.24049  1.0000
  H   H1165     1.0  0.64090  0.74631  0.44307  1.0000
  C   C1479     1.0  0.71376  0.79114  0.44007  1.0000
  C   C1480     1.0  0.51713  0.48805  0.23509  1.0000
  H   H1166     1.0  0.51974  0.97217  0.20228  1.0000
  H   H1167     1.0  0.70811  0.57449  0.04509  1.0000
  C   C1481     1.0  0.61455  0.96405  0.27379  1.0000
  H   H1168     1.0  0.68739  0.65434  0.98875  1.0000
  C   C1482     1.0  0.67290  0.87898  0.44734  1.0000
  C   C1483     1.0  0.54768  0.48352  0.36022  1.0000
  C   C1484     1.0  0.71025  0.55990  0.02830  1.0000
  Fe  Fe92      1.0  0.71123  0.56951  0.31433  1.0000
  C   C1485     1.0  0.50464  0.97501  0.21577  1.0000
  H   H1169     1.0  0.46980  0.50341  0.45557  1.0000
  C   C1486     1.0  0.71573  0.93433  0.25817  1.0000
  C   C1487     1.0  0.47387  0.52164  0.46901  1.0000
  H   H1170     1.0  0.47659  0.57885  0.44550  1.0000
  H   H1171     1.0  0.56197  0.97698  0.26428  1.0000
  C   C1488     1.0  0.56893  0.74996  0.46500  1.0000
  C   C1489     1.0  0.69192  0.86165  0.98091  1.0000
  H   H1172     1.0  0.56076  0.47976  0.15508  1.0000
  P   P50       1.0  0.46975  0.55429  0.28530  1.0000
  H   H1173     1.0  0.49074  0.48033  0.16336  1.0000
  C   C1490     1.0  0.46930  0.53043  0.31832  1.0000
  H   H1174     1.0  0.55027  0.73883  0.47776  1.0000
  C   C1491     1.0  0.61870  0.82252  0.98241  1.0000
  C   C1492     1.0  0.63268  0.80875  0.98270  1.0000
  Fe  Fe93      1.0  0.54310  0.85524  0.70440  1.0000
  S   S189      1.0  0.57798  0.87366  0.74270  1.0000
  S   S190      1.0  0.52031  0.81233  0.69235  1.0000
  Fe  Fe94      1.0  0.53842  0.90487  0.69971  1.0000
  S   S191      1.0  0.57337  0.92649  0.73793  1.0000
  S   S192      1.0  0.51888  0.92815  0.67839  1.0000
  Fe  Fe95      1.0  0.59101  0.90670  0.70085  1.0000
  S   S193      1.0  0.63303  0.92798  0.68158  1.0000
  Fe  Fe96      1.0  0.55751  0.89192  0.77653  1.0000
  S   S194      1.0  0.55155  0.88565  0.84331  1.0000
  S   S195      1.0  0.55698  0.88716  0.66058  1.0000
  S   S196      1.0  0.52184  0.87162  0.74008  1.0000
  Fe  Fe97      1.0  0.65959  0.55801  0.89906  1.0000
  S   S197      1.0  0.64268  0.57977  0.93250  1.0000
  S   S198      1.0  0.70268  0.58173  0.89090  1.0000
  Fe  Fe98      1.0  0.60720  0.51049  0.89181  1.0000
  S   S199      1.0  0.58746  0.52924  0.92526  1.0000
  H   H1175     1.0  0.65542  0.63504  0.78229  1.0000
  Fe  Fe99      1.0  0.61064  0.56346  0.88784  1.0000
  S   S200      1.0  0.59364  0.58831  0.86266  1.0000
  H   H1176     1.0  0.60193  0.76604  0.90943  1.0000
  S   S201      1.0  0.62890  0.54412  0.85235  1.0000
  S   S202      1.0  0.63977  0.52286  0.93562  1.0000
  Fe  Fe100     1.0  0.48238  0.63358  0.62177  1.0000
  S   S203      1.0  0.50294  0.61476  0.59168  1.0000
  C   C1493     1.0  0.48392  0.54945  0.52618  1.0000
  Fe  Fe101     1.0  0.52968  0.68601  0.62168  1.0000
  S   S204      1.0  0.55278  0.66931  0.59208  1.0000
  S   S205      1.0  0.55421  0.72848  0.63635  1.0000
  Fe  Fe102     1.0  0.51880  0.64897  0.55239  1.0000
  C   C1494     1.0  0.60650  0.78177  0.92983  1.0000
  Fe  Fe103     1.0  0.53716  0.63546  0.63620  1.0000
  S   S206      1.0  0.57002  0.60762  0.68582  1.0000
  S   S207      1.0  0.49619  0.66679  0.58023  1.0000
  S   S208      1.0  0.51394  0.65455  0.66543  1.0000
  H   H1177     1.0  0.66170  0.70628  0.97022  1.0000
  H   H1178     1.0  0.61884  0.65240  0.69863  1.0000
  C   C1495     1.0  0.58662  0.59269  0.81324  1.0000
  C   C1496     1.0  0.57481  0.60826  0.80608  1.0000
  C   C1497     1.0  0.56919  0.61274  0.76758  1.0000
  C   C1498     1.0  0.57562  0.60195  0.73543  1.0000
  C   C1499     1.0  0.58745  0.58636  0.74259  1.0000
  C   C1500     1.0  0.59273  0.58157  0.78118  1.0000
  H   H1179     1.0  0.56990  0.61692  0.83058  1.0000
  H   H1180     1.0  0.56009  0.62473  0.76305  1.0000
  H   H1181     1.0  0.59246  0.57779  0.71812  1.0000
  H   H1182     1.0  0.60150  0.56928  0.78605  1.0000
  C   C1501     1.0  0.66743  0.47963  0.92966  1.0000
  H   H1183     1.0  0.65790  0.90263  0.89836  1.0000
  C   C1502     1.0  0.48588  0.91633  0.66723  1.0000
  C   C1503     1.0  0.53024  0.78957  0.67577  1.0000
  C   C1504     1.0  0.55575  0.79620  0.66763  1.0000
  C   C1505     1.0  0.56265  0.77723  0.65560  1.0000
  C   C1506     1.0  0.54422  0.75152  0.65122  1.0000
  C   C1507     1.0  0.51871  0.74494  0.65917  1.0000
  C   C1508     1.0  0.51182  0.76386  0.67147  1.0000
  H   H1184     1.0  0.57015  0.81587  0.67054  1.0000
  H   H1185     1.0  0.58236  0.78248  0.64940  1.0000
  H   H1186     1.0  0.50430  0.72528  0.65596  1.0000
  H   H1187     1.0  0.49203  0.75850  0.67766  1.0000
  C   C1509     1.0  0.64618  0.93339  0.63340  1.0000
  C   C1510     1.0  0.63098  0.92375  0.59977  1.0000
  C   C1511     1.0  0.64221  0.92842  0.56227  1.0000
  H   H1188     1.0  0.61052  0.91268  0.60264  1.0000
  H   H1189     1.0  0.63011  0.92087  0.53668  1.0000
  C   C1512     1.0  0.60191  0.86660  0.94554  1.0000
  C   C1513     1.0  0.55811  0.93780  0.92957  1.0000
  C   C1514     1.0  0.55931  0.92702  0.89284  1.0000
  C   C1515     1.0  0.55011  0.90061  0.88857  1.0000
  C   C1516     1.0  0.53963  0.88526  0.92161  1.0000
  C   C1517     1.0  0.53839  0.89604  0.95835  1.0000
  H   H1190     1.0  0.56530  0.95824  0.93235  1.0000
  H   H1191     1.0  0.56751  0.93918  0.86794  1.0000
  H   H1192     1.0  0.53221  0.86481  0.91859  1.0000
  C   C1518     1.0  0.52057  0.51248  0.83231  1.0000
  H   H1193     1.0  0.57423  0.50563  0.81845  1.0000
  C   C1519     1.0  0.48451  0.97011  0.78737  1.0000
  H   H1194     1.0  0.61055  0.70905  0.49058  1.0000
  H   H1195     1.0  0.48562  0.58630  0.51627  1.0000
  H   H1196     1.0  0.51977  0.97392  0.72827  1.0000
  C   C1520     1.0  0.54617  0.51773  0.83490  1.0000
  C   C1521     1.0  0.63398  0.72013  0.97440  1.0000
  H   H1197     1.0  0.57492  0.85251  0.87816  1.0000
  C   C1522     1.0  0.59209  0.79511  0.92997  1.0000
  C   C1523     1.0  0.50158  0.51534  0.65474  1.0000
  C   C1524     1.0  0.61180  0.91142  0.94540  1.0000
  H   H1198     1.0  0.64668  0.93694  0.91707  1.0000
  H   H1199     1.0  0.67499  0.63734  0.86604  1.0000
  H   H1200     1.0  0.50989  0.53505  0.77247  1.0000
  H   H1201     1.0  0.67306  0.93956  0.78265  1.0000
  C   C1525     1.0  0.49460  0.90654  0.78369  1.0000
  C   C1526     1.0  0.69787  0.83502  0.79187  1.0000
  C   C1527     1.0  0.66901  0.64220  0.89340  1.0000
  C   C1528     1.0  0.64624  0.64399  0.89527  1.0000
  C   C1529     1.0  0.63789  0.64896  0.93113  1.0000
  C   C1530     1.0  0.51465  0.49838  0.48391  1.0000
  H   H1202     1.0  0.65357  0.85455  0.85143  1.0000
  C   C1531     1.0  0.63229  0.86246  0.65523  1.0000
  C   C1532     1.0  0.59796  0.81553  0.95649  1.0000
  C   C1533     1.0  0.61837  0.89822  0.82728  1.0000
  H   H1203     1.0  0.46904  0.48832  0.62240  1.0000
  H   H1204     1.0  0.68734  0.78293  0.68914  1.0000
  H   H1205     1.0  0.68085  0.88376  0.94310  1.0000
  C   C1534     1.0  0.71255  0.62024  0.79575  1.0000
  H   H1206     1.0  0.70012  0.53420  0.93654  1.0000
  P   P51       1.0  0.48063  0.50120  0.53865  1.0000
  C   C1535     1.0  0.66585  0.84914  0.83445  1.0000
  H   H1207     1.0  0.63454  0.64058  0.86918  1.0000
  H   H1208     1.0  0.61971  0.64936  0.93229  1.0000
  C   C1536     1.0  0.61716  0.87515  0.81406  1.0000
  H   H1209     1.0  0.68411  0.58270  0.81193  1.0000
  H   H1210     1.0  0.70456  0.96290  0.58857  1.0000
  C   C1537     1.0  0.70758  0.90575  0.58490  1.0000
  H   H1211     1.0  0.64210  0.71756  0.77572  1.0000
  C   C1538     1.0  0.62678  0.78861  0.95617  1.0000
  C   C1539     1.0  0.68760  0.60146  0.80220  1.0000
  C   C1540     1.0  0.64068  0.89802  0.91484  1.0000
  H   H1212     1.0  0.63892  0.93922  0.82541  1.0000
  C   C1541     1.0  0.67281  0.94752  0.62886  1.0000
  C   C1542     1.0  0.69951  0.89669  0.62260  1.0000
  H   H1213     1.0  0.67156  0.89898  0.76001  1.0000
  P   P52       1.0  0.70308  0.68166  0.76184  1.0000
  H   H1214     1.0  0.63089  0.84007  0.60419  1.0000
  H   H1215     1.0  0.69425  0.87291  0.49366  1.0000
  H   H1216     1.0  0.63216  0.80519  0.64245  1.0000
  H   H1217     1.0  0.60979  0.68521  0.73112  1.0000
  C   C1543     1.0  0.52616  0.53573  0.65294  1.0000
  C   C1544     1.0  0.48974  0.54916  0.73639  1.0000
  H   H1218     1.0  0.63798  0.77829  0.95618  1.0000
  S   S209      1.0  0.51624  0.64085  0.48588  1.0000
  H   H1219     1.0  0.68484  0.95498  0.65458  1.0000
  C   C1545     1.0  0.68143  0.87806  0.97292  1.0000
  H   H1220     1.0  0.71543  0.65194  0.70259  1.0000
  C   C1546     1.0  0.67162  0.63120  0.78474  1.0000
  C   C1547     1.0  0.53439  0.79735  0.92297  1.0000
  C   C1548     1.0  0.70206  0.84034  0.83195  1.0000
  C   C1549     1.0  0.50317  0.49152  0.80996  1.0000
  C   C1550     1.0  0.69661  0.65001  0.77702  1.0000
  H   H1221     1.0  0.69364  0.76385  0.62742  1.0000
  C   C1551     1.0  0.49129  0.53139  0.76157  1.0000
  C   C1552     1.0  0.66892  0.70238  0.76957  1.0000
  C   C1553     1.0  0.65665  0.89855  0.77892  1.0000
  C   C1554     1.0  0.70564  0.53686  0.96719  1.0000
  H   H1222     1.0  0.63174  0.78041  0.49057  1.0000
  C   C1555     1.0  0.48775  0.50452  0.62024  1.0000
  H   H1223     1.0  0.64790  0.59262  0.80304  1.0000
  C   C1556     1.0  0.63402  0.82333  0.69839  1.0000
  H   H1224     1.0  0.71032  0.82937  0.77580  1.0000
  C   C1557     1.0  0.70076  0.79498  0.66755  1.0000
  C   C1558     1.0  0.59197  0.96336  0.63402  1.0000
  H   H1225     1.0  0.71157  0.82934  0.70133  1.0000
  C   C1559     1.0  0.63226  0.84147  0.63587  1.0000
  H   H1226     1.0  0.68282  0.71682  0.78883  1.0000
  C   C1560     1.0  0.58667  0.94884  0.59950  1.0000
  C   C1561     1.0  0.63601  0.87519  0.78904  1.0000
  H   H1227     1.0  0.59790  0.94749  0.53994  1.0000
  C   C1562     1.0  0.63435  0.91738  0.92522  1.0000
  H   H1228     1.0  0.57656  0.78947  0.90915  1.0000
  C   C1563     1.0  0.54937  0.60084  0.49247  1.0000
  H   H1229     1.0  0.57068  0.92983  0.59830  1.0000
  H   H1230     1.0  0.62086  0.80409  0.82889  1.0000
  H   H1231     1.0  0.68611  0.66345  0.60960  1.0000
  C   C1564     1.0  0.60196  0.95883  0.56664  1.0000
  H   H1232     1.0  0.69518  0.53348  0.85394  1.0000
  C   C1565     1.0  0.68611  0.84747  0.85322  1.0000
  C   C1566     1.0  0.61374  0.70468  0.52019  1.0000
  C   C1567     1.0  0.62734  0.72443  0.54693  1.0000
  C   C1568     1.0  0.63145  0.71877  0.58506  1.0000
  C   C1569     1.0  0.62182  0.69336  0.59656  1.0000
  C   C1570     1.0  0.60762  0.67325  0.57017  1.0000
  C   C1571     1.0  0.60393  0.67922  0.53162  1.0000
  P   P53       1.0  0.59487  0.64029  0.58575  1.0000
  C   C1572     1.0  0.58158  0.61886  0.54397  1.0000
  C   C1573     1.0  0.62096  0.63569  0.60582  1.0000
  C   C1574     1.0  0.64657  0.65354  0.59946  1.0000
  C   C1575     1.0  0.66647  0.64955  0.61468  1.0000
  C   C1576     1.0  0.66105  0.62752  0.63574  1.0000
  C   C1577     1.0  0.63573  0.60929  0.64111  1.0000
  C   C1578     1.0  0.61584  0.61319  0.62569  1.0000
  C   C1579     1.0  0.55944  0.61676  0.52533  1.0000
  S   S210      1.0  0.68178  0.94784  0.50926  1.0000
  C   C1580     1.0  0.50331  0.90834  0.82223  1.0000
  C   C1581     1.0  0.64592  0.70306  0.76188  1.0000
  C   C1582     1.0  0.63311  0.82190  0.65744  1.0000
  C   C1583     1.0  0.56984  0.63256  0.62235  1.0000
  C   C1584     1.0  0.57371  0.65039  0.65706  1.0000
  C   C1585     1.0  0.55443  0.64262  0.68971  1.0000
  C   C1586     1.0  0.53072  0.61688  0.68796  1.0000
  C   C1587     1.0  0.52654  0.59908  0.65345  1.0000
  C   C1588     1.0  0.54604  0.60698  0.62070  1.0000
  Fe  Fe104     1.0  0.62144  0.54396  0.96685  1.0000
  H   H1233     1.0  0.63468  0.74412  0.53811  1.0000
  H   H1234     1.0  0.64204  0.73411  0.60579  1.0000
  H   H1235     1.0  0.62597  0.68947  0.62585  1.0000
  H   H1236     1.0  0.59346  0.66447  0.51013  1.0000
  C   C1589     1.0  0.52315  0.53463  0.58206  1.0000
  C   C1590     1.0  0.62779  0.68497  0.73654  1.0000
  H   H1237     1.0  0.67645  0.62435  0.64734  1.0000
  H   H1238     1.0  0.63142  0.59198  0.65693  1.0000
  H   H1239     1.0  0.59645  0.59843  0.62873  1.0000
  H   H1240     1.0  0.55026  0.62791  0.53563  1.0000
  C   C1591     1.0  0.66882  0.94265  0.55764  1.0000
  H   H1241     1.0  0.49955  0.76845  0.89704  1.0000
  H   H1242     1.0  0.59052  0.66847  0.65960  1.0000
  H   H1243     1.0  0.55766  0.65527  0.71463  1.0000
  H   H1244     1.0  0.51712  0.61122  0.71164  1.0000
  H   H1245     1.0  0.51001  0.58049  0.65251  1.0000
  H   H1246     1.0  0.54306  0.59370  0.59691  1.0000
  C   C1592     1.0  0.49823  0.51448  0.58363  1.0000
  H   H1247     1.0  0.61064  0.60591  0.54234  1.0000
  P   P54       1.0  0.47058  0.48607  0.80460  1.0000
  C   C1593     1.0  0.63844  0.92141  0.81591  1.0000
  H   H1248     1.0  0.50537  0.79140  0.83432  1.0000
  P   P55       1.0  0.63472  0.84569  0.77112  1.0000
  C   C1594     1.0  0.66136  0.84365  0.79415  1.0000
  C   C1595     1.0  0.60490  0.81888  0.78460  1.0000
  C   C1596     1.0  0.58236  0.81468  0.76489  1.0000
  C   C1597     1.0  0.55912  0.79390  0.77420  1.0000
  C   C1598     1.0  0.55818  0.77691  0.80300  1.0000
  C   C1599     1.0  0.58052  0.78076  0.82260  1.0000
  C   C1600     1.0  0.60383  0.80172  0.81362  1.0000
  C   C1601     1.0  0.67779  0.83694  0.77284  1.0000
  H   H1249     1.0  0.57995  0.95550  0.65934  1.0000
  H   H1250     1.0  0.65142  0.67034  0.58213  1.0000
  C   C1602     1.0  0.46909  0.50941  0.77214  1.0000
  C   C1603     1.0  0.68373  0.64593  0.92716  1.0000
  C   C1604     1.0  0.63508  0.84485  0.71809  1.0000
  H   H1251     1.0  0.47639  0.87654  0.66920  1.0000
  C   C1605     1.0  0.69778  0.48069  0.88109  1.0000
  C   C1606     1.0  0.46920  0.89020  0.66472  1.0000
  H   H1252     1.0  0.62929  0.85789  0.91522  1.0000
  C   C1607     1.0  0.63368  0.86419  0.69610  1.0000
  C   C1608     1.0  0.58291  0.58823  0.49675  1.0000
  H   H1253     1.0  0.69764  0.91400  0.56815  1.0000
  H   H1254     1.0  0.60116  0.85747  0.82254  1.0000
  H   H1255     1.0  0.58272  0.82726  0.74183  1.0000
  H   H1256     1.0  0.54187  0.79079  0.75855  1.0000
  H   H1257     1.0  0.54016  0.76059  0.80966  1.0000
  H   H1258     1.0  0.57977  0.76724  0.84433  1.0000
  C   C1609     1.0  0.54770  0.92246  0.96268  1.0000
  H   H1259     1.0  0.67536  0.83323  0.74171  1.0000
  C   C1610     1.0  0.67376  0.68334  0.75223  1.0000
  H   H1260     1.0  0.52189  0.92344  0.83073  1.0000
  H   H1261     1.0  0.54306  0.83333  0.82536  1.0000
  H   H1262     1.0  0.70094  0.64377  0.92552  1.0000
  C   C1611     1.0  0.65587  0.66590  0.72561  1.0000
  C   C1612     1.0  0.66719  0.60699  0.79693  1.0000
  H   H1263     1.0  0.55625  0.56062  0.61538  1.0000
  H   H1264     1.0  0.63081  0.87731  0.63865  1.0000
  H   H1265     1.0  0.63280  0.88030  0.71009  1.0000
  C   C1613     1.0  0.63287  0.66651  0.71821  1.0000
  C   C1614     1.0  0.68407  0.95209  0.59134  1.0000
  C   C1615     1.0  0.62442  0.87269  0.92456  1.0000
  H   H1266     1.0  0.63331  0.80739  0.71469  1.0000
  H   H1267     1.0  0.68333  0.89812  0.63511  1.0000
  C   C1616     1.0  0.59332  0.60450  0.52925  1.0000
  C   C1617     1.0  0.53706  0.54508  0.61660  1.0000
  H   H1268     1.0  0.53689  0.54426  0.67965  1.0000
  C   C1618     1.0  0.55603  0.82098  0.91783  1.0000
  C   C1619     1.0  0.55893  0.83393  0.88253  1.0000
  C   C1620     1.0  0.54077  0.82315  0.85252  1.0000
  C   C1621     1.0  0.51943  0.79955  0.85766  1.0000
  C   C1622     1.0  0.51619  0.78668  0.89294  1.0000
  H   H1269     1.0  0.53182  0.54225  0.55412  1.0000
  C   C1623     1.0  0.65252  0.65259  0.96531  1.0000
  C   C1624     1.0  0.47998  0.52611  0.50909  1.0000
  H   H1270     1.0  0.65944  0.65142  0.71117  1.0000
  H   H1271     1.0  0.69035  0.68749  0.84256  1.0000
  H   H1272     1.0  0.60646  0.92628  0.95269  1.0000
  H   H1273     1.0  0.53171  0.78709  0.95009  1.0000
  H   H1274     1.0  0.51448  0.52507  0.84718  1.0000
  H   H1275     1.0  0.60353  0.89817  0.84597  1.0000
  H   H1276     1.0  0.48904  0.95398  0.66204  1.0000
  C   C1625     1.0  0.65765  0.92157  0.79189  1.0000
  C   C1626     1.0  0.59084  0.75921  0.48856  1.0000
  C   C1627     1.0  0.47622  0.93378  0.66056  1.0000
  C   C1628     1.0  0.49698  0.48577  0.51364  1.0000
  H   H1277     1.0  0.70836  0.61151  0.96255  1.0000
  H   H1278     1.0  0.55956  0.53409  0.85179  1.0000
  C   C1629     1.0  0.71516  0.54718  0.85218  1.0000
  P   P56       1.0  0.58015  0.83366  0.95594  1.0000
  C   C1630     1.0  0.59583  0.88624  0.95598  1.0000
  H   H1279     1.0  0.50699  0.56606  0.72858  1.0000
  H   H1280     1.0  0.50626  0.92042  0.76232  1.0000
  H   H1281     1.0  0.46888  0.83805  0.74708  1.0000
  H   H1282     1.0  0.69918  0.85441  0.95741  1.0000
  C   C1631     1.0  0.70425  0.78423  0.63281  1.0000
  H   H1283     1.0  0.49330  0.50781  0.68290  1.0000
  C   C1632     1.0  0.71014  0.70109  0.83810  1.0000
  C   C1633     1.0  0.71473  0.82128  0.67455  1.0000
  H   H1284     1.0  0.59215  0.57733  0.48540  1.0000
  C   C1634     1.0  0.48257  0.56826  0.50318  1.0000
  C   C1635     1.0  0.48811  0.89055  0.84977  1.0000
  H   H1285     1.0  0.49495  0.89206  0.87968  1.0000
  H   H1286     1.0  0.68949  0.85159  0.88429  1.0000
  C   C1636     1.0  0.55450  0.50189  0.81579  1.0000
  C   C1637     1.0  0.47719  0.97745  0.75251  1.0000
  H   H1287     1.0  0.47368  0.82015  0.68391  1.0000
  H   H1288     1.0  0.70551  0.87852  0.67288  1.0000
  C   C1638     1.0  0.53721  0.48071  0.79414  1.0000
  C   C1639     1.0  0.67571  0.65140  0.96298  1.0000
  H   H1289     1.0  0.58902  0.75551  0.51974  1.0000
  C   C1640     1.0  0.46930  0.94604  0.80300  1.0000
  H   H1290     1.0  0.69487  0.56677  0.97508  1.0000
  H   H1291     1.0  0.57862  0.88230  0.97177  1.0000
  H   H1292     1.0  0.47505  0.94045  0.82987  1.0000
  H   H1293     1.0  0.48771  0.55311  0.55726  1.0000
  C   C1641     1.0  0.69239  0.48456  0.91994  1.0000
  H   H1294     1.0  0.71686  0.48457  0.87249  1.0000
  H   H1295     1.0  0.66282  0.48270  0.95932  1.0000
  H   H1296     1.0  0.71531  0.71590  0.89737  1.0000
  H   H1297     1.0  0.64555  0.73731  0.95830  1.0000
  H   H1298     1.0  0.53837  0.84492  0.97653  1.0000
  C   C1642     1.0  0.71233  0.88593  0.64406  1.0000
  C   C1643     1.0  0.47101  0.88656  0.77243  1.0000
  H   H1299     1.0  0.71771  0.83893  0.84649  1.0000
  C   C1644     1.0  0.71709  0.64447  0.78329  1.0000
  P   P57       1.0  0.71714  0.49628  0.95720  1.0000
  H   H1300     1.0  0.61314  0.60537  0.97838  1.0000
  H   H1301     1.0  0.79584  0.17731  0.37473  1.0000
  C   C1645     1.0  0.90111  0.46485  0.36257  1.0000
  C   C1646     1.0  0.93547  0.45700  0.00411  1.0000
  S   S211      1.0  0.79194  0.99737  0.44498  1.0000
  S   S212      1.0  0.75921  0.98398  0.34179  1.0000
  C   C1647     1.0  0.73291  0.15025  0.43941  1.0000
  S   S213      1.0  0.73948  0.00389  0.45030  1.0000
  Fe  Fe105     1.0  0.77956  0.07336  0.04068  1.0000
  Fe  Fe106     1.0  0.78714  0.05311  0.12231  1.0000
  S   S214      1.0  0.81225  0.03769  0.09537  1.0000
  S   S215      1.0  0.77448  0.05171  0.18712  1.0000
  Fe  Fe107     1.0  0.83040  0.07461  0.06108  1.0000
  S   S216      1.0  0.87387  0.09674  0.05420  1.0000
  Fe  Fe108     1.0  0.78359  0.02303  0.04563  1.0000
  S   S217      1.0  0.80727  0.09101  0.09121  1.0000
  S   S218      1.0  0.75765  0.03700  0.07417  1.0000
  H   H1302     1.0  0.76452  0.19364  0.32183  1.0000
  C   C1648     1.0  0.84518  0.32939  0.43747  1.0000
  C   C1649     1.0  0.83030  0.25114  0.38398  1.0000
  Fe  Fe109     1.0  0.82951  0.30577  0.29673  1.0000
  S   S219      1.0  0.84866  0.28832  0.25900  1.0000
  S   S220      1.0  0.78741  0.28545  0.31515  1.0000
  Fe  Fe110     1.0  0.87801  0.35781  0.30131  1.0000
  S   S221      1.0  0.90022  0.34301  0.26407  1.0000
  S   S222      1.0  0.90144  0.39910  0.32404  1.0000
  Fe  Fe111     1.0  0.86530  0.32529  0.22502  1.0000
  S   S223      1.0  0.86115  0.32383  0.15719  1.0000
  Fe  Fe112     1.0  0.88203  0.30761  0.30112  1.0000
  S   S224      1.0  0.90505  0.28733  0.32249  1.0000
  S   S225      1.0  0.84392  0.34168  0.26067  1.0000
  S   S226      1.0  0.86209  0.32338  0.34047  1.0000
  C   C1650     1.0  0.89071  0.42178  0.33808  1.0000
  C   C1651     1.0  0.90873  0.44629  0.35102  1.0000
  C   C1652     1.0  0.75440  0.22427  0.43458  1.0000
  C   C1653     1.0  0.87529  0.45912  0.36128  1.0000
  C   C1654     1.0  0.85731  0.43458  0.34848  1.0000
  C   C1655     1.0  0.86492  0.41605  0.33684  1.0000
  H   H1303     1.0  0.92868  0.45087  0.35231  1.0000
  H   H1304     1.0  0.95238  0.16429  0.99794  1.0000
  H   H1305     1.0  0.83729  0.42987  0.34744  1.0000
  H   H1306     1.0  0.85081  0.39733  0.32700  1.0000
  C   C1656     1.0  0.91747  0.26350  0.44661  1.0000
  C   C1657     1.0  0.90126  0.27484  0.44105  1.0000
  C   C1658     1.0  0.89768  0.28277  0.40364  1.0000
  C   C1659     1.0  0.91013  0.27930  0.37099  1.0000
  C   C1660     1.0  0.92687  0.26860  0.37670  1.0000
  C   C1661     1.0  0.93058  0.26082  0.41417  1.0000
  Fe  Fe113     1.0  0.75562  0.98443  0.40962  1.0000
  H   H1307     1.0  0.88525  0.29152  0.40008  1.0000
  H   H1308     1.0  0.93691  0.26610  0.35188  1.0000
  H   H1309     1.0  0.94353  0.25266  0.41787  1.0000
  C   C1662     1.0  0.90482  0.37119  0.04918  1.0000
  C   C1663     1.0  0.87855  0.35482  0.04750  1.0000
  C   C1664     1.0  0.86562  0.34080  0.08084  1.0000
  C   C1665     1.0  0.87850  0.34318  0.11670  1.0000
  C   C1666     1.0  0.90478  0.35964  0.11840  1.0000
  C   C1667     1.0  0.91781  0.37325  0.08481  1.0000
  H   H1310     1.0  0.86821  0.35283  0.02046  1.0000
  H   H1311     1.0  0.84540  0.32810  0.07888  1.0000
  H   H1312     1.0  0.91517  0.36149  0.14538  1.0000
  H   H1313     1.0  0.93818  0.38536  0.08643  1.0000
  C   C1668     1.0  0.89208  0.12725  0.03292  1.0000
  C   C1669     1.0  0.91764  0.13479  0.02266  1.0000
  H   H1314     1.0  0.78663  0.19849  0.43065  1.0000
  H   H1315     1.0  0.93945  0.42307  0.11474  1.0000
  C   C1670     1.0  0.88198  0.14423  0.02660  1.0000
  C   C1671     1.0  0.86391  0.29096  0.02442  1.0000
  H   H1316     1.0  0.86251  0.13890  0.03485  1.0000
  H   H1317     1.0  0.79223  0.26519  0.15088  1.0000
  C   C1672     1.0  0.72406  0.21881  0.33951  1.0000
  H   H1318     1.0  0.73845  0.09661  0.41796  1.0000
  C   C1673     1.0  0.80062  0.24609  0.10305  1.0000
  C   C1674     1.0  0.76390  0.00361  0.29948  1.0000
  C   C1675     1.0  0.75939  0.02496  0.29967  1.0000
  C   C1676     1.0  0.76289  0.03939  0.26526  1.0000
  C   C1677     1.0  0.77086  0.03279  0.22985  1.0000
  C   C1678     1.0  0.77537  0.01145  0.22963  1.0000
  C   C1679     1.0  0.77193  0.99707  0.26408  1.0000
  H   H1319     1.0  0.75296  0.03027  0.32626  1.0000
  H   H1320     1.0  0.75924  0.05576  0.26605  1.0000
  H   H1321     1.0  0.78158  0.00603  0.20293  1.0000
  C   C1680     1.0  0.84976  0.28610  0.98931  1.0000
  H   H1322     1.0  0.94364  0.17101  0.08915  1.0000
  C   C1681     1.0  0.74115  0.24475  0.33308  1.0000
  C   C1682     1.0  0.76664  0.25239  0.32221  1.0000
  C   C1683     1.0  0.77482  0.23369  0.31782  1.0000
  C   C1684     1.0  0.75782  0.20780  0.32469  1.0000
  H   H1323     1.0  0.72457  0.16173  0.42758  1.0000
  H   H1324     1.0  0.73459  0.25902  0.33652  1.0000
  H   H1325     1.0  0.79426  0.23923  0.30924  1.0000
  S   S227      1.0  0.80359  0.05853  0.00921  1.0000
  H   H1326     1.0  0.84509  0.03479  0.36845  1.0000
  C   C1685     1.0  0.73236  0.20016  0.33563  1.0000
  C   C1686     1.0  0.72655  0.10294  0.09355  1.0000
  C   C1687     1.0  0.92360  0.44877  0.10439  1.0000
  C   C1688     1.0  0.79516  0.26479  0.11957  1.0000
  C   C1689     1.0  0.79410  0.28342  0.09589  1.0000
  C   C1690     1.0  0.73431  0.47324  0.01272  1.0000
  H   H1327     1.0  0.75217  0.13595  0.32538  1.0000
  C   C1691     1.0  0.82763  0.33451  0.41678  1.0000
  H   H1328     1.0  0.91426  0.45743  0.23334  1.0000
  C   C1692     1.0  0.79881  0.28360  0.05573  1.0000
  H   H1329     1.0  0.79045  0.29825  0.10898  1.0000
  C   C1693     1.0  0.74073  0.11356  0.43387  1.0000
  H   H1330     1.0  0.83995  0.27177  0.38572  1.0000
  H   H1331     1.0  0.74711  0.11411  0.09175  1.0000
  C   C1694     1.0  0.85920  0.02674  0.42209  1.0000
  C   C1695     1.0  0.80546  0.24627  0.06294  1.0000
  H   H1332     1.0  0.89635  0.42805  0.99862  1.0000
  H   H1333     1.0  0.88160  0.46311  0.27092  1.0000
  C   C1696     1.0  0.81238  0.23670  0.41224  1.0000
  H   H1334     1.0  0.90991  0.20679  0.42097  1.0000
  C   C1697     1.0  0.93056  0.17561  0.10558  1.0000
  C   C1698     1.0  0.91539  0.15915  0.13456  1.0000
  C   C1699     1.0  0.89820  0.16486  0.15525  1.0000
  C   C1700     1.0  0.89596  0.18687  0.14664  1.0000
  C   C1701     1.0  0.91087  0.20330  0.11710  1.0000
  C   C1702     1.0  0.92818  0.19747  0.09655  1.0000
  P   P58       1.0  0.90525  0.22964  0.10254  1.0000
  C   C1703     1.0  0.87751  0.21761  0.07058  1.0000
  C   C1704     1.0  0.90072  0.24531  0.14549  1.0000
  C   C1705     1.0  0.88550  0.25790  0.14367  1.0000
  C   C1706     1.0  0.88337  0.27128  0.17638  1.0000
  C   C1707     1.0  0.89638  0.27221  0.21107  1.0000
  C   C1708     1.0  0.91143  0.25965  0.21325  1.0000
  C   C1709     1.0  0.91370  0.24632  0.18058  1.0000
  C   C1710     1.0  0.87335  0.23441  0.04635  1.0000
  H   H1335     1.0  0.94730  0.09030  0.42951  1.0000
  H   H1336     1.0  0.77182  0.21741  0.00214  1.0000
  H   H1337     1.0  0.80172  0.23184  0.12158  1.0000
  C   C1711     1.0  0.86019  0.19142  0.06886  1.0000
  C   C1712     1.0  0.93285  0.25274  0.07685  1.0000
  H   H1338     1.0  0.80425  0.17069  0.45968  1.0000
  H   H1339     1.0  0.79535  0.08911  0.45126  1.0000
  H   H1340     1.0  0.79871  0.29874  0.03829  1.0000
  H   H1341     1.0  0.82591  0.16208  0.04231  1.0000
  H   H1342     1.0  0.72768  0.06758  0.08358  1.0000
  C   C1713     1.0  0.93888  0.44032  0.12439  1.0000
  H   H1343     1.0  0.91664  0.14173  0.14034  1.0000
  H   H1344     1.0  0.88618  0.15193  0.17731  1.0000
  H   H1345     1.0  0.88201  0.19063  0.16213  1.0000
  C   C1714     1.0  0.72832  0.21087  0.44267  1.0000
  H   H1346     1.0  0.87556  0.25787  0.11707  1.0000
  H   H1347     1.0  0.87190  0.28129  0.17471  1.0000
  H   H1348     1.0  0.89507  0.28292  0.23623  1.0000
  H   H1349     1.0  0.92160  0.26065  0.24024  1.0000
  H   H1350     1.0  0.92604  0.23730  0.18252  1.0000
  H   H1351     1.0  0.88661  0.25460  0.04681  1.0000
  C   C1715     1.0  0.89044  0.30591  0.02438  1.0000
  C   C1716     1.0  0.96245  0.45297  0.26686  1.0000
  C   C1717     1.0  0.79673  0.28980  0.41946  1.0000
  H   H1352     1.0  0.86301  0.17776  0.08633  1.0000
  H   H1353     1.0  0.92030  0.23410  0.02021  1.0000
  H   H1354     1.0  0.95192  0.27549  0.12842  1.0000
  H   H1355     1.0  0.86926  0.04666  0.43069  1.0000
  S   S228      1.0  0.92231  0.38974  0.00819  1.0000
  C   C1718     1.0  0.74682  0.15747  0.47453  1.0000
  C   C1719     1.0  0.80043  0.16424  0.26042  1.0000
  C   C1720     1.0  0.77701  0.15714  0.27872  1.0000
  C   C1721     1.0  0.77041  0.14139  0.31135  1.0000
  C   C1722     1.0  0.78722  0.13269  0.32576  1.0000
  C   C1723     1.0  0.81083  0.13973  0.30753  1.0000
  C   C1724     1.0  0.81727  0.15558  0.27471  1.0000
  P   P59       1.0  0.83315  0.12915  0.32594  1.0000
  C   C1725     1.0  0.85812  0.15402  0.35498  1.0000
  C   C1726     1.0  0.81713  0.10218  0.35760  1.0000
  C   C1727     1.0  0.81076  0.10622  0.39580  1.0000
  H   H1356     1.0  0.93947  0.38234  0.35723  1.0000
  H   H1357     1.0  0.95758  0.42150  0.30316  1.0000
  C   C1728     1.0  0.80169  0.05728  0.37184  1.0000
  C   C1729     1.0  0.81234  0.07748  0.34568  1.0000
  C   C1730     1.0  0.87092  0.14757  0.38418  1.0000
  C   C1731     1.0  0.88953  0.16656  0.40779  1.0000
  C   C1732     1.0  0.89563  0.19215  0.40235  1.0000
  C   C1733     1.0  0.88325  0.19877  0.37307  1.0000
  C   C1734     1.0  0.86470  0.17983  0.34929  1.0000
  C   C1735     1.0  0.84642  0.12008  0.28456  1.0000
  C   C1736     1.0  0.83048  0.10598  0.25322  1.0000
  C   C1737     1.0  0.84048  0.09846  0.22143  1.0000
  C   C1738     1.0  0.86640  0.10487  0.22064  1.0000
  C   C1739     1.0  0.88241  0.11896  0.25161  1.0000
  C   C1740     1.0  0.87249  0.12653  0.28352  1.0000
  H   H1358     1.0  0.80547  0.17642  0.23505  1.0000
  H   H1359     1.0  0.76389  0.16379  0.26761  1.0000
  H   H1360     1.0  0.89140  0.27756  0.46591  1.0000
  H   H1361     1.0  0.78149  0.12033  0.35081  1.0000
  H   H1362     1.0  0.83533  0.16121  0.26010  1.0000
  H   H1363     1.0  0.81470  0.12516  0.40590  1.0000
  H   H1364     1.0  0.74778  0.45589  0.05608  1.0000
  H   H1365     1.0  0.88218  0.09267  0.45340  1.0000
  H   H1366     1.0  0.79829  0.03827  0.36285  1.0000
  H   H1367     1.0  0.81698  0.07362  0.31653  1.0000
  H   H1368     1.0  0.86653  0.12785  0.38900  1.0000
  H   H1369     1.0  0.89921  0.16143  0.43047  1.0000
  C   C1741     1.0  0.87029  0.09494  0.47558  1.0000
  C   C1742     1.0  0.79542  0.06151  0.40965  1.0000
  H   H1370     1.0  0.85568  0.18547  0.32657  1.0000
  H   H1371     1.0  0.81019  0.10038  0.25351  1.0000
  H   H1372     1.0  0.82803  0.08738  0.19751  1.0000
  H   H1373     1.0  0.87398  0.09880  0.19600  1.0000
  H   H1374     1.0  0.90251  0.12387  0.25100  1.0000
  H   H1375     1.0  0.88520  0.13724  0.30733  1.0000
  H   H1376     1.0  0.89485  0.98765  0.43911  1.0000
  H   H1377     1.0  0.91207  0.43777  0.07967  1.0000
  H   H1378     1.0  0.96405  0.44626  0.17290  1.0000
  C   C1743     1.0  0.85944  0.00773  0.44627  1.0000
  H   H1379     1.0  0.77825  0.27472  0.41073  1.0000
  H   H1380     1.0  0.88800  0.21864  0.36885  1.0000
  H   H1381     1.0  0.84924  0.18574  0.44168  1.0000
  C   C1744     1.0  0.80035  0.20996  0.40903  1.0000
  C   C1745     1.0  0.81414  0.28451  0.44063  1.0000
  H   H1382     1.0  0.93247  0.33766  0.35976  1.0000
  C   C1746     1.0  0.93277  0.15874  0.00559  1.0000
  H   H1383     1.0  0.86417  0.34464  0.44343  1.0000
  C   C1747     1.0  0.72978  0.12831  0.41914  1.0000
  H   H1384     1.0  0.92577  0.12197  0.02791  1.0000
  C   C1748     1.0  0.84541  0.02009  0.38681  1.0000
  H   H1385     1.0  0.91079  0.47749  0.10136  1.0000
  C   C1749     1.0  0.83904  0.18234  0.04363  1.0000
  C   C1750     1.0  0.85226  0.22521  0.02100  1.0000
  C   C1751     1.0  0.79981  0.08590  0.42159  1.0000
  H   H1386     1.0  0.83669  0.06004  0.45909  1.0000
  S   S229      1.0  0.76154  0.98208  0.02110  1.0000
  H   H1387     1.0  0.90107  0.31047  0.05176  1.0000
  H   H1388     1.0  0.94345  0.45029  0.27328  1.0000
  H   H1389     1.0  0.79026  0.31845  0.39012  1.0000
  H   H1390     1.0  0.85469  0.28407  0.05219  1.0000
  C   C1752     1.0  0.95288  0.45365  0.15744  1.0000
  C   C1753     1.0  0.80473  0.26514  0.03895  1.0000
  H   H1391     1.0  0.83301  0.35368  0.40671  1.0000
  C   C1754     1.0  0.80565  0.19789  0.37748  1.0000
  C   C1755     1.0  0.82318  0.21244  0.34911  1.0000
  C   C1756     1.0  0.83573  0.23903  0.35263  1.0000
  H   H1392     1.0  0.81057  0.23220  0.05097  1.0000
  H   H1393     1.0  0.94038  0.44516  0.02252  1.0000
  C   C1757     1.0  0.93506  0.24993  0.03639  1.0000
  S   S230      1.0  0.76082  0.09651  0.01391  1.0000
  C   C1758     1.0  0.80348  0.31471  0.40767  1.0000
  H   H1394     1.0  0.82681  0.20323  0.32408  1.0000
  H   H1395     1.0  0.84944  0.25037  0.33076  1.0000
  H   H1396     1.0  0.76056  0.22617  0.40444  1.0000
  C   C1759     1.0  0.89703  0.16808  0.00920  1.0000
  C   C1760     1.0  0.95283  0.27296  0.09716  1.0000
  H   H1397     1.0  0.77576  0.98082  0.26334  1.0000
  P   P60       1.0  0.80608  0.25210  0.45384  1.0000
  H   H1398     1.0  0.93942  0.20931  0.07284  1.0000
  H   H1399     1.0  0.91313  0.04576  0.43113  1.0000
  C   C1761     1.0  0.92246  0.17544  0.99847  1.0000
  C   C1762     1.0  0.95691  0.26690  0.01662  1.0000
  C   C1763     1.0  0.83860  0.30447  0.44903  1.0000
  C   C1764     1.0  0.83128  0.99442  0.37581  1.0000
  C   C1765     1.0  0.92277  0.47103  0.11681  1.0000
  C   C1766     1.0  0.83505  0.19924  0.01974  1.0000
  H   H1400     1.0  0.96800  0.32825  0.37579  1.0000
  H   H1401     1.0  0.84943  0.23819  0.00196  1.0000
  H   H1402     1.0  0.83903  0.22747  0.46837  1.0000
  H   H1403     1.0  0.75191  0.98611  0.13011  1.0000
  C   C1767     1.0  0.75462  0.12067  0.46905  1.0000
  H   H1404     1.0  0.85288  0.30080  0.46358  1.0000
  H   H1405     1.0  0.78760  0.04596  0.42998  1.0000
  H   H1406     1.0  0.88885  0.18084  0.00384  1.0000
  C   C1768     1.0  0.95124  0.35319  0.36620  1.0000
  C   C1769     1.0  0.93685  0.08276  0.45627  1.0000
  C   C1770     1.0  0.91732  0.05764  0.45724  1.0000
  H   H1407     1.0  0.81874  0.19213  0.00002  1.0000
  C   C1771     1.0  0.73169  0.45386  0.03832  1.0000
  C   C1772     1.0  0.84464  0.98197  0.43551  1.0000
  H   H1408     1.0  0.81992  0.98924  0.34908  1.0000
  C   C1773     1.0  0.77236  0.23518  0.46506  1.0000
  H   H1409     1.0  0.81116  0.98147  0.01968  1.0000
  C   C1774     1.0  0.90308  0.31607  0.98943  1.0000
  H   H1410     1.0  0.92352  0.32832  0.98962  1.0000
  P   P61       1.0  0.81526  0.26799  0.98872  1.0000
  H   H1411     1.0  0.95876  0.26398  0.98567  1.0000
  H   H1412     1.0  0.73370  0.12273  0.98445  1.0000
  C   C1775     1.0  0.91021  0.44724  0.99086  1.0000
  H   H1413     1.0  0.81586  0.11304  0.98383  1.0000
  C   C1776     1.0  0.95523  0.37841  0.36461  1.0000
  C   C1777     1.0  0.89835  0.98418  0.46904  1.0000
  C   C1778     1.0  0.84312  0.17947  0.47123  1.0000
  C   C1779     1.0  0.91919  0.47586  0.24684  1.0000
  C   C1780     1.0  0.95175  0.47574  0.17065  1.0000
  H   H1414     1.0  0.71993  0.13552  0.10330  1.0000
  H   H1415     1.0  0.71894  0.12290  0.39191  1.0000
  C   C1781     1.0  0.71886  0.00699  0.98983  1.0000
  H   H1416     1.0  0.83119  0.32264  0.97941  1.0000
  H   H1417     1.0  0.76689  0.09649  0.86887  1.0000
  S   S231      1.0  0.79651  0.05553  0.51414  1.0000
  S   S232      1.0  0.74830  0.24141  0.80335  1.0000
  H   H1418     1.0  0.87336  0.13492  0.55002  1.0000
  C   C1782     1.0  0.75743  0.14246  0.49005  1.0000
  Fe  Fe114     1.0  0.88549  0.35684  0.86981  1.0000
  S   S233      1.0  0.92446  0.37055  0.89792  1.0000
  S   S234      1.0  0.86503  0.31432  0.85227  1.0000
  Fe  Fe115     1.0  0.88843  0.40968  0.87860  1.0000
  S   S235      1.0  0.92688  0.42637  0.90832  1.0000
  S   S236      1.0  0.86400  0.42966  0.86552  1.0000
  Fe  Fe116     1.0  0.93729  0.40576  0.86111  1.0000
  C   C1783     1.0  0.85623  0.24090  0.52460  1.0000
  Fe  Fe117     1.0  0.91119  0.38981  0.94314  1.0000
  S   S237      1.0  0.89950  0.39069  0.82966  1.0000
  S   S238      1.0  0.87184  0.37462  0.91677  1.0000
  C   C1784     1.0  0.90999  0.06352  0.52552  1.0000
  Fe  Fe118     1.0  0.93761  0.17842  0.52405  1.0000
  S   S239      1.0  0.92188  0.19997  0.55972  1.0000
  Fe  Fe119     1.0  0.77541  0.01532  0.48658  1.0000
  C   C1785     1.0  0.85309  0.17267  0.53741  1.0000
  S   S240      1.0  0.94037  0.20554  0.97610  1.0000
  C   C1786     1.0  0.87356  0.46231  0.85546  1.0000
  C   C1787     1.0  0.71985  0.20849  0.48123  1.0000
  C   C1788     1.0  0.81719  0.23467  0.93134  1.0000
  H   H1419     1.0  0.83511  0.45545  0.84267  1.0000
  H   H1420     1.0  0.95377  0.42101  0.75833  1.0000
  H   H1421     1.0  0.81473  0.34606  0.93837  1.0000
  H   H1422     1.0  0.73222  0.09734  0.64658  1.0000
  H   H1423     1.0  0.72697  0.18889  0.60177  1.0000
  C   C1789     1.0  0.78071  0.26113  0.81809  1.0000
  C   C1790     1.0  0.78999  0.28782  0.81963  1.0000
  C   C1791     1.0  0.81546  0.30433  0.83094  1.0000
  C   C1792     1.0  0.83218  0.29438  0.84040  1.0000
  C   C1793     1.0  0.82290  0.26770  0.83906  1.0000
  C   C1794     1.0  0.79733  0.25115  0.82821  1.0000
  H   H1424     1.0  0.77735  0.29580  0.81203  1.0000
  H   H1425     1.0  0.82221  0.32476  0.83180  1.0000
  H   H1426     1.0  0.83562  0.25980  0.84643  1.0000
  H   H1427     1.0  0.79051  0.23071  0.82748  1.0000
  S   S241      1.0  0.92041  0.25297  0.49446  1.0000
  H   H1428     1.0  0.93884  0.44274  0.59344  1.0000
  C   C1795     1.0  0.80729  0.21167  0.91017  1.0000
  H   H1429     1.0  0.81631  0.21033  0.88327  1.0000
  C   C1796     1.0  0.82902  0.07878  0.50789  1.0000
  C   C1797     1.0  0.83960  0.10029  0.53309  1.0000
  C   C1798     1.0  0.86536  0.11888  0.52980  1.0000
  C   C1799     1.0  0.88095  0.11628  0.50112  1.0000
  H   H1430     1.0  0.82800  0.10240  0.55589  1.0000
  C   C1800     1.0  0.80521  0.32538  0.93796  1.0000
  H   H1431     1.0  0.85217  0.29416  0.92747  1.0000
  H   H1432     1.0  0.93388  0.10094  0.55014  1.0000
  S   S242      1.0  0.74122  0.12420  0.83946  1.0000
  C   C1801     1.0  0.75451  0.08289  0.61497  1.0000
  H   H1433     1.0  0.86895  0.21757  0.94478  1.0000
  C   C1802     1.0  0.74598  0.19191  0.59401  1.0000
  C   C1803     1.0  0.78105  0.27201  0.93578  1.0000
  C   C1804     1.0  0.89740  0.43551  0.73299  1.0000
  H   H1434     1.0  0.73022  0.00268  0.96896  1.0000
  C   C1805     1.0  0.82968  0.02774  0.56774  1.0000
  H   H1435     1.0  0.75576  0.27513  0.89300  1.0000
  C   C1806     1.0  0.85394  0.01158  0.52929  1.0000
  H   H1436     1.0  0.73824  0.04195  0.51245  1.0000
  C   C1807     1.0  0.78527  0.19063  0.92282  1.0000
  C   C1808     1.0  0.87537  0.42944  0.75521  1.0000
  C   C1809     1.0  0.85862  0.40404  0.76354  1.0000
  C   C1810     1.0  0.86370  0.38443  0.74991  1.0000
  C   C1811     1.0  0.88594  0.39029  0.72881  1.0000
  C   C1812     1.0  0.90289  0.41572  0.72077  1.0000
  C   C1813     1.0  0.93963  0.32128  0.81992  1.0000
  H   H1437     1.0  0.77717  0.32245  0.89495  1.0000
  H   H1438     1.0  0.89882  0.31910  0.92727  1.0000
  C   C1814     1.0  0.75114  0.12087  0.59739  1.0000
  C   C1815     1.0  0.82762  0.16408  0.54790  1.0000
  C   C1816     1.0  0.73629  0.12324  0.92126  1.0000
  S   S243      1.0  0.73886  0.17282  0.76419  1.0000
  C   C1817     1.0  0.90298  0.04820  0.49141  1.0000
  C   C1818     1.0  0.85879  0.25659  0.55697  1.0000
  C   C1819     1.0  0.86087  0.18029  0.49909  1.0000
  C   C1820     1.0  0.76366  0.23274  0.50382  1.0000
  C   C1821     1.0  0.79181  0.21612  0.60071  1.0000
  H   H1439     1.0  0.74345  0.13385  0.60428  1.0000
  C   C1822     1.0  0.77735  0.10742  0.55879  1.0000
  H   H1440     1.0  0.81819  0.27977  0.52895  1.0000
  H   H1441     1.0  0.77685  0.24089  0.52804  1.0000
  H   H1442     1.0  0.87118  0.44419  0.76697  1.0000
  H   H1443     1.0  0.84200  0.39965  0.78149  1.0000
  H   H1444     1.0  0.85085  0.36477  0.75696  1.0000
  H   H1445     1.0  0.89029  0.37512  0.71942  1.0000
  H   H1446     1.0  0.92038  0.41978  0.70556  1.0000
  C   C1823     1.0  0.80498  0.23702  0.96534  1.0000
  Fe  Fe120     1.0  0.72485  0.19789  0.79496  1.0000
  H   H1447     1.0  0.80052  0.00057  0.60456  1.0000
  H   H1448     1.0  0.91528  0.33950  0.81914  1.0000
  Fe  Fe121     1.0  0.72011  0.14539  0.81370  1.0000
  C   C1824     1.0  0.95065  0.36176  0.78941  1.0000
  H   H1449     1.0  0.95861  0.26770  0.68882  1.0000
  H   H1450     1.0  0.76341  0.10930  0.47949  1.0000
  C   C1825     1.0  0.82838  0.26847  0.52774  1.0000
  C   C1826     1.0  0.78399  0.31210  0.91360  1.0000
  H   H1451     1.0  0.77865  0.07342  0.57842  1.0000
  H   H1452     1.0  0.84713  0.28284  0.58345  1.0000
  C   C1827     1.0  0.74899  0.17463  0.56886  1.0000
  C   C1828     1.0  0.73749  0.21967  0.51172  1.0000
  C   C1829     1.0  0.84855  0.03159  0.54017  1.0000
  H   H1453     1.0  0.87202  0.25844  0.58037  1.0000
  C   C1830     1.0  0.93341  0.34069  0.81025  1.0000
  C   C1831     1.0  0.84483  0.27035  0.55859  1.0000
  H   H1454     1.0  0.95177  0.27559  0.88495  1.0000
  C   C1832     1.0  0.89751  0.99139  0.53892  1.0000
  H   H1455     1.0  0.75549  0.17648  0.96573  1.0000
  H   H1456     1.0  0.72555  0.13380  0.91750  1.0000
  C   C1833     1.0  0.93013  0.45503  0.64862  1.0000
  P   P62       1.0  0.77683  0.15230  0.53415  1.0000
  H   H1457     1.0  0.90980  0.44269  0.64551  1.0000
  C   C1834     1.0  0.94001  0.47028  0.68248  1.0000
  H   H1458     1.0  0.86681  0.17340  0.55912  1.0000
  H   H1459     1.0  0.85446  0.11311  0.95519  1.0000
  C   C1835     1.0  0.82134  0.14740  0.95499  1.0000
  H   H1460     1.0  0.94505  0.12572  0.94925  1.0000
  H   H1461     1.0  0.77743  0.17293  0.90589  1.0000
  H   H1462     1.0  0.91355  0.47557  0.86647  1.0000
  H   H1463     1.0  0.74951  0.17497  0.48892  1.0000
  H   H1464     1.0  0.79016  0.10987  0.53469  1.0000
  C   C1836     1.0  0.90304  0.46180  0.96658  1.0000
  C   C1837     1.0  0.75948  0.10217  0.89402  1.0000
  Fe  Fe122     1.0  0.94258  0.23235  0.51806  1.0000
  C   C1838     1.0  0.81150  0.17436  0.81244  1.0000
  C   C1839     1.0  0.81692  0.19784  0.79594  1.0000
  C   C1840     1.0  0.84064  0.21896  0.80276  1.0000
  C   C1841     1.0  0.85878  0.21679  0.82680  1.0000
  C   C1842     1.0  0.85325  0.19339  0.84426  1.0000
  C   C1843     1.0  0.82969  0.17201  0.83606  1.0000
  P   P63       1.0  0.87624  0.19058  0.87643  1.0000
  C   C1844     1.0  0.89673  0.18097  0.84922  1.0000
  C   C1845     1.0  0.89568  0.22160  0.89882  1.0000
  C   C1846     1.0  0.88689  0.22996  0.93137  1.0000
  H   H1465     1.0  0.85871  0.05014  0.52713  1.0000
  C   C1847     1.0  0.92457  0.27111  0.92996  1.0000
  C   C1848     1.0  0.93354  0.26295  0.89772  1.0000
  C   C1849     1.0  0.91910  0.23842  0.88197  1.0000
  C   C1850     1.0  0.91885  0.18242  0.86710  1.0000
  C   C1851     1.0  0.93509  0.17542  0.84628  1.0000
  C   C1852     1.0  0.76754  0.12481  0.56544  1.0000
  C   C1853     1.0  0.90758  0.16571  0.78925  1.0000
  C   C1854     1.0  0.89121  0.17259  0.81007  1.0000
  C   C1855     1.0  0.85850  0.16705  0.91296  1.0000
  C   C1856     1.0  0.86483  0.14751  0.92243  1.0000
  C   C1857     1.0  0.84941  0.12806  0.94772  1.0000
  H   H1466     1.0  0.88362  0.45396  0.95541  1.0000
  H   H1467     1.0  0.93615  0.11011  0.88043  1.0000
  C   C1858     1.0  0.83661  0.16679  0.92961  1.0000
  H   H1468     1.0  0.79307  0.15795  0.80714  1.0000
  H   H1469     1.0  0.80268  0.19965  0.77791  1.0000
  H   H1470     1.0  0.84483  0.23712  0.78970  1.0000
  H   H1471     1.0  0.87693  0.23346  0.83190  1.0000
  H   H1472     1.0  0.82510  0.15355  0.84831  1.0000
  S   S244      1.0  0.95359  0.21604  0.66331  1.0000
  C   C1859     1.0  0.86268  0.29664  0.95452  1.0000
  H   H1473     1.0  0.90026  0.05634  0.55287  1.0000
  H   H1474     1.0  0.82547  0.04326  0.57556  1.0000
  H   H1475     1.0  0.92626  0.23275  0.85647  1.0000
  H   H1476     1.0  0.92354  0.18902  0.89719  1.0000
  C   C1860     1.0  0.81567  0.00371  0.58413  1.0000
  H   H1477     1.0  0.94598  0.37705  0.78280  1.0000
  C   C1861     1.0  0.77188  0.28544  0.91262  1.0000
  H   H1478     1.0  0.87443  0.17148  0.79543  1.0000
  H   H1479     1.0  0.88149  0.14698  0.91039  1.0000
  H   H1480     1.0  0.90345  0.15956  0.75887  1.0000
  H   H1481     1.0  0.82200  0.15833  0.57782  1.0000
  H   H1482     1.0  0.77152  0.25138  0.93385  1.0000
  H   H1483     1.0  0.83094  0.18118  0.92214  1.0000
  C   C1862     1.0  0.79487  0.19849  0.57633  1.0000
  H   H1484     1.0  0.76498  0.22585  0.62985  1.0000
  C   C1863     1.0  0.81449  0.31202  0.96114  1.0000
  S   S245      1.0  0.95692  0.21021  0.48090  1.0000
  C   C1864     1.0  0.96133  0.22364  0.74365  1.0000
  C   C1865     1.0  0.92941  0.16700  0.80739  1.0000
  C   C1866     1.0  0.75475  0.10301  0.96497  1.0000
  H   H1485     1.0  0.96642  0.22901  0.80670  1.0000
  C   C1867     1.0  0.80963  0.16300  0.52003  1.0000
  H   H1486     1.0  0.94198  0.16164  0.79120  1.0000
  C   C1868     1.0  0.76738  0.21267  0.60992  1.0000
  H   H1487     1.0  0.73080  0.21822  0.54152  1.0000
  P   P64       1.0  0.91900  0.46848  0.72225  1.0000
  H   H1488     1.0  0.74946  0.06672  0.63397  1.0000
  H   H1489     1.0  0.74816  0.47190  0.93103  1.0000
  H   H1490     1.0  0.83380  0.25073  0.92006  1.0000
  C   C1869     1.0  0.74094  0.11689  0.95926  1.0000
  H   H1491     1.0  0.80422  0.14702  0.96717  1.0000
  C   C1870     1.0  0.96054  0.13161  0.92845  1.0000
  H   H1492     1.0  0.93511  0.44792  0.78875  1.0000
  H   H1493     1.0  0.73218  0.15853  0.55710  1.0000
  H   H1494     1.0  0.77456  0.08495  0.93565  1.0000
  C   C1871     1.0  0.76385  0.09555  0.93197  1.0000
  H   H1495     1.0  0.94090  0.21678  0.74481  1.0000
  C   C1872     1.0  0.81760  0.17096  0.48164  1.0000
  C   C1873     1.0  0.82573  0.25274  0.49502  1.0000
  H   H1496     1.0  0.86765  0.23083  0.52291  1.0000
  H   H1497     1.0  0.80840  0.23208  0.61339  1.0000
  C   C1874     1.0  0.80251  0.28520  0.96017  1.0000
  H   H1498     1.0  0.72702  0.07755  0.51811  1.0000
  H   H1499     1.0  0.92625  0.30510  0.83646  1.0000
  C   C1875     1.0  0.74467  0.10001  0.62188  1.0000
  C   C1876     1.0  0.77342  0.17733  0.56069  1.0000
  C   C1877     1.0  0.95553  0.12290  0.88960  1.0000
  H   H1500     1.0  0.95218  0.17675  0.86032  1.0000
  H   H1501     1.0  0.81397  0.20123  0.57064  1.0000
  S   S246      1.0  0.75765  0.98047  0.52470  1.0000
  C   C1878     1.0  0.77093  0.08668  0.58359  1.0000
  C   C1879     1.0  0.94650  0.45499  0.61907  1.0000
  H   H1502     1.0  0.96756  0.30757  0.81593  1.0000
  C   C1880     1.0  0.94264  0.09838  0.48968  1.0000
  C   C1881     1.0  0.74566  0.11604  0.88827  1.0000
  Fe  Fe123     1.0  0.95837  0.21508  0.59584  1.0000
  C   C1882     1.0  0.89179  0.99548  0.50053  1.0000
  H   H1503     1.0  0.89327  0.00052  0.56355  1.0000
  C   C1883     1.0  0.82775  0.12807  0.96413  1.0000
  H   H1504     1.0  0.96222  0.46822  0.84610  1.0000
  C   C1884     1.0  0.90126  0.25466  0.94671  1.0000
  C   C1885     1.0  0.92942  0.08867  0.52438  1.0000
  C   C1886     1.0  0.83985  0.23900  0.49368  1.0000
  S   S247      1.0  0.91394  0.13848  0.49676  1.0000
  C   C1887     1.0  0.88920  0.31117  0.95446  1.0000
  C   C1888     1.0  0.94309  0.46840  0.79263  1.0000
  C   C1889     1.0  0.85487  0.46974  0.84493  1.0000
  C   C1890     1.0  0.72185  0.03970  0.52946  1.0000
  C   C1891     1.0  0.83967  0.98746  0.54574  1.0000
  H   H1505     1.0  0.72653  0.04286  0.96367  1.0000
  H   H1506     1.0  0.89441  0.26114  0.97163  1.0000
  H   H1507     1.0  0.93577  0.29013  0.94215  1.0000
  C   C1892     1.0  0.82062  0.98356  0.57304  1.0000
  C   C1893     1.0  0.77295  0.19269  0.95655  1.0000
  H   H1508     1.0  0.95716  0.11814  0.48866  1.0000
  P   P65       1.0  0.87720  0.01600  0.49192  1.0000
  H   H1509     1.0  0.96466  0.29779  0.74296  1.0000
  H   H1510     1.0  0.88072  0.18709  0.49115  1.0000
  C   C1894     1.0  0.96298  0.32277  0.80820  1.0000
  C   C1895     1.0  0.78250  0.21587  0.97741  1.0000
  C   C1896     1.0  0.84448  0.07640  0.47874  1.0000
  H   H1511     1.0  0.71987  0.91127  0.07859  1.0000
  H   H1512     1.0  0.74361  0.70996  0.37751  1.0000
  C   C1897     1.0  0.94394  0.49618  0.24364  1.0000
  Fe  Fe124     1.0  0.88569  0.52475  0.38795  1.0000
  S   S248      1.0  0.92465  0.54661  0.41540  1.0000
  C   C1898     1.0  0.73169  0.67122  0.39538  1.0000
  Fe  Fe125     1.0  0.87838  0.57260  0.37912  1.0000
  S   S249      1.0  0.91757  0.59771  0.40470  1.0000
  S   S250      1.0  0.85559  0.59375  0.36125  1.0000
  Fe  Fe126     1.0  0.93191  0.57517  0.36745  1.0000
  H   H1513     1.0  0.93542  0.50133  0.15984  1.0000
  Fe  Fe127     1.0  0.90751  0.56764  0.45070  1.0000
  S   S251      1.0  0.89354  0.55230  0.33831  1.0000
  S   S252      1.0  0.86778  0.54363  0.42688  1.0000
  C   C1899     1.0  0.90619  0.50257  0.28522  1.0000
  Fe  Fe128     1.0  0.94182  0.80356  0.03229  1.0000
  S   S253      1.0  0.92801  0.76844  0.06890  1.0000
  S   S254      1.0  0.91772  0.82264  0.01169  1.0000
  S   S255      1.0  0.76049  0.82224  0.00963  1.0000
  S   S256      1.0  0.73501  0.54999  0.33451  1.0000
  C   C1900     1.0  0.79691  0.58667  0.07895  1.0000
  S   S257      1.0  0.72666  0.60620  0.28122  1.0000
  H   H1514     1.0  0.75909  0.72925  0.44351  1.0000
  C   C1901     1.0  0.88404  0.81028  0.00504  1.0000
  H   H1515     1.0  0.72248  0.69474  0.12334  1.0000
  P   P66       1.0  0.79858  0.63707  0.99644  1.0000
  C   C1902     1.0  0.78980  0.58633  0.99788  1.0000
  H   H1516     1.0  0.83971  0.72708  0.04257  1.0000
  H   H1517     1.0  0.91539  0.67895  0.29381  1.0000
  H   H1518     1.0  0.78951  0.54757  0.07123  1.0000
  H   H1519     1.0  0.92879  0.76906  0.31991  1.0000
  H   H1520     1.0  0.79944  0.58673  0.11042  1.0000
  H   H1521     1.0  0.93210  0.60487  0.31279  1.0000
  H   H1522     1.0  0.84336  0.96691  0.45465  1.0000
  C   C1903     1.0  0.86668  0.78524  0.01466  1.0000
  C   C1904     1.0  0.82211  0.58076  0.35230  1.0000
  C   C1905     1.0  0.81246  0.59634  0.33567  1.0000
  C   C1906     1.0  0.78599  0.58710  0.32911  1.0000
  C   C1907     1.0  0.76875  0.56227  0.33979  1.0000
  C   C1908     1.0  0.77848  0.54657  0.35574  1.0000
  C   C1909     1.0  0.80495  0.55572  0.36204  1.0000
  H   H1523     1.0  0.82548  0.61570  0.32776  1.0000
  H   H1524     1.0  0.77892  0.59925  0.31600  1.0000
  H   H1525     1.0  0.76541  0.52717  0.36342  1.0000
  H   H1526     1.0  0.81201  0.54340  0.37462  1.0000
  C   C1910     1.0  0.84801  0.81747  0.98390  1.0000
  H   H1527     1.0  0.84377  0.77607  0.45892  1.0000
  H   H1528     1.0  0.72215  0.63534  0.42273  1.0000
  C   C1911     1.0  0.77089  0.95792  0.01045  1.0000
  H   H1529     1.0  0.82695  0.75724  0.01694  1.0000
  C   C1912     1.0  0.72367  0.62133  0.98361  1.0000
  C   C1913     1.0  0.82623  0.73557  0.44663  1.0000
  H   H1530     1.0  0.94948  0.58816  0.26167  1.0000
  H   H1531     1.0  0.84895  0.64798  0.02757  1.0000
  H   H1532     1.0  0.95712  0.49886  0.34084  1.0000
  C   C1914     1.0  0.76786  0.63617  0.00355  1.0000
  C   C1915     1.0  0.95807  0.72196  0.31371  1.0000
  C   C1916     1.0  0.94935  0.51998  0.26069  1.0000
  S   S258      1.0  0.73582  0.94703  0.44227  1.0000
  H   H1533     1.0  0.88035  0.63517  0.28672  1.0000
  H   H1534     1.0  0.82288  0.60364  0.45918  1.0000
  H   H1535     1.0  0.96786  0.53635  0.25791  1.0000
  H   H1536     1.0  0.84928  0.67963  0.47195  1.0000
  H   H1537     1.0  0.77727  0.65350  0.06157  1.0000
  C   C1917     1.0  0.78767  0.56441  0.01640  1.0000
  H   H1538     1.0  0.75255  0.49019  0.01107  1.0000
  C   C1918     1.0  0.79123  0.56457  0.05689  1.0000
  H   H1539     1.0  0.96722  0.64820  0.32167  1.0000
  H   H1540     1.0  0.90814  0.74807  0.98451  1.0000
  H   H1541     1.0  0.89163  0.50476  0.30176  1.0000
  C   C1919     1.0  0.87448  0.82626  0.98961  1.0000
  H   H1542     1.0  0.86537  0.60860  0.44281  1.0000
  H   H1543     1.0  0.96161  0.80368  0.25269  1.0000
  C   C1920     1.0  0.84556  0.76065  0.44391  1.0000
  S   S259      1.0  0.93168  0.71428  0.00320  1.0000
  H   H1544     1.0  0.93326  0.71760  0.45336  1.0000
  H   H1545     1.0  0.75586  0.70031  0.20672  1.0000
  H   H1546     1.0  0.87371  0.77276  0.02664  1.0000
  H   H1547     1.0  0.77517  0.71235  0.98735  1.0000
  H   H1548     1.0  0.81905  0.95543  0.39260  1.0000
  C   C1921     1.0  0.95381  0.48143  0.99308  1.0000
  C   C1922     1.0  0.73878  0.55571  0.44198  1.0000
  C   C1923     1.0  0.76268  0.64509  0.03906  1.0000
  C   C1924     1.0  0.78406  0.91848  0.99061  1.0000
  H   H1549     1.0  0.88369  0.68664  0.05766  1.0000
  H   H1550     1.0  0.73544  0.94173  0.24921  1.0000
  H   H1551     1.0  0.73448  0.64934  0.07399  1.0000
  H   H1552     1.0  0.91509  0.48354  0.37264  1.0000
  H   H1553     1.0  0.94395  0.75714  0.38041  1.0000
  H   H1554     1.0  0.88707  0.75070  0.38622  1.0000
  C   C1925     1.0  0.75851  0.91365  0.99007  1.0000
  H   H1555     1.0  0.73419  0.80347  0.43893  1.0000
  C   C1926     1.0  0.93864  0.74552  0.28207  1.0000
  C   C1927     1.0  0.79933  0.60869  0.06049  1.0000
  C   C1928     1.0  0.93658  0.75564  0.31832  1.0000
  H   H1556     1.0  0.93384  0.67664  0.43730  1.0000
  C   C1929     1.0  0.87707  0.70100  0.26450  1.0000
  C   C1930     1.0  0.87244  0.72050  0.24985  1.0000
  C   C1931     1.0  0.86147  0.73206  0.27387  1.0000
  C   C1932     1.0  0.85543  0.72438  0.31268  1.0000
  C   C1933     1.0  0.86092  0.70543  0.32816  1.0000
  C   C1934     1.0  0.87123  0.69340  0.30339  1.0000
  P   P67       1.0  0.85337  0.69552  0.37851  1.0000
  C   C1935     1.0  0.87873  0.68943  0.39796  1.0000
  C   C1936     1.0  0.85077  0.72080  0.40579  1.0000
  C   C1937     1.0  0.82878  0.71570  0.42771  1.0000
  C   C1938     1.0  0.75199  0.93326  0.99979  1.0000
  C   C1939     1.0  0.87949  0.66647  0.38864  1.0000
  C   C1940     1.0  0.89930  0.66194  0.40269  1.0000
  C   C1941     1.0  0.91859  0.68023  0.42621  1.0000
  C   C1942     1.0  0.91820  0.70319  0.43540  1.0000
  C   C1943     1.0  0.89841  0.70779  0.42140  1.0000
  C   C1944     1.0  0.82249  0.66759  0.37866  1.0000
  C   C1945     1.0  0.80237  0.66764  0.35663  1.0000
  C   C1946     1.0  0.77788  0.64711  0.35841  1.0000
  C   C1947     1.0  0.77320  0.62629  0.38200  1.0000
  C   C1948     1.0  0.79308  0.62599  0.40386  1.0000
  C   C1949     1.0  0.81757  0.64669  0.40274  1.0000
  H   H1557     1.0  0.88524  0.69179  0.24566  1.0000
  H   H1558     1.0  0.87719  0.72655  0.21980  1.0000
  C   C1950     1.0  0.73530  0.69285  0.20590  1.0000
  H   H1559     1.0  0.78949  0.60935  0.42092  1.0000
  H   H1560     1.0  0.87468  0.67807  0.31381  1.0000
  S   S260      1.0  0.86440  0.48168  0.37531  1.0000
  C   C1951     1.0  0.74921  0.69333  0.47107  1.0000
  H   H1561     1.0  0.86481  0.65195  0.37037  1.0000
  H   H1562     1.0  0.89961  0.64415  0.39510  1.0000
  H   H1563     1.0  0.85755  0.74695  0.26231  1.0000
  H   H1564     1.0  0.72508  0.54459  0.41934  1.0000
  H   H1565     1.0  0.80541  0.68372  0.33852  1.0000
  H   H1566     1.0  0.76246  0.64732  0.34137  1.0000
  H   H1567     1.0  0.75430  0.61009  0.38250  1.0000
  C   C1952     1.0  0.89951  0.63831  0.29378  1.0000
  H   H1568     1.0  0.83244  0.64612  0.42057  1.0000
  H   H1569     1.0  0.95076  0.72113  0.25132  1.0000
  C   C1953     1.0  0.90418  0.61736  0.29853  1.0000
  C   C1954     1.0  0.73835  0.64261  0.04636  1.0000
  H   H1570     1.0  0.87860  0.72575  0.06664  1.0000
  S   S261      1.0  0.96450  0.79122  0.17173  1.0000
  C   C1955     1.0  0.86116  0.61147  0.47281  1.0000
  C   C1956     1.0  0.94930  0.72873  0.27971  1.0000
  C   C1957     1.0  0.79620  0.60879  0.01972  1.0000
  C   C1958     1.0  0.94514  0.74894  0.35232  1.0000
  C   C1959     1.0  0.93058  0.52305  0.28166  1.0000
  H   H1571     1.0  0.84640  0.73326  0.33034  1.0000
  H   H1572     1.0  0.88260  0.78537  0.42087  1.0000
  H   H1573     1.0  0.80359  0.62561  0.07807  1.0000
  H   H1574     1.0  0.72790  0.65355  0.19988  1.0000
  H   H1575     1.0  0.80518  0.68908  0.01072  1.0000
  H   H1576     1.0  0.76074  0.53518  0.43579  1.0000
  C   C1960     1.0  0.87007  0.74614  0.40324  1.0000
  C   C1961     1.0  0.92858  0.62112  0.30876  1.0000
  C   C1962     1.0  0.94415  0.66705  0.30795  1.0000
  C   C1963     1.0  0.94844  0.64580  0.31386  1.0000
  C   C1964     1.0  0.86747  0.76590  0.42234  1.0000
  H   H1577     1.0  0.93494  0.54134  0.29515  1.0000
  H   H1578     1.0  0.75722  0.95082  0.09869  1.0000
  C   C1965     1.0  0.73883  0.66677  0.46465  1.0000
  C   C1966     1.0  0.73523  0.96842  0.12225  1.0000
  S   S262      1.0  0.79708  0.78007  0.98602  1.0000
  H   H1579     1.0  0.78320  0.54723  0.99942  1.0000
  C   C1967     1.0  0.91942  0.66308  0.29823  1.0000
  H   H1580     1.0  0.93248  0.75115  0.25558  1.0000
  H   H1581     1.0  0.88873  0.59815  0.29487  1.0000
  C   C1968     1.0  0.84020  0.77647  0.00898  1.0000
  C   C1969     1.0  0.73820  0.94848  0.10467  1.0000
  H   H1582     1.0  0.81335  0.69653  0.43002  1.0000
  Fe  Fe129     1.0  0.94961  0.75600  0.02623  1.0000
  C   C1970     1.0  0.75899  0.55050  0.45109  1.0000
  H   H1583     1.0  0.89874  0.72570  0.42937  1.0000
  H   H1584     1.0  0.74393  0.89491  0.98163  1.0000
  C   C1971     1.0  0.73025  0.65578  0.42707  1.0000
  C   C1972     1.0  0.75113  0.70881  0.43923  1.0000
  C   C1973     1.0  0.74233  0.69779  0.40175  1.0000
  S   S263      1.0  0.96230  0.79059  0.98847  1.0000
  C   C1974     1.0  0.82383  0.66520  0.01884  1.0000
  C   C1975     1.0  0.82177  0.68795  0.02201  1.0000
  C   C1976     1.0  0.84135  0.70959  0.03977  1.0000
  C   C1977     1.0  0.86337  0.70890  0.05331  1.0000
  C   C1978     1.0  0.86606  0.68671  0.04864  1.0000
  C   C1979     1.0  0.84638  0.66490  0.03142  1.0000
  H   H1585     1.0  0.82273  0.94707  0.00207  1.0000
  H   H1586     1.0  0.96124  0.67103  0.38488  1.0000
  C   C1980     1.0  0.79639  0.96265  0.01160  1.0000
  C   C1981     1.0  0.80290  0.94308  0.00155  1.0000
  H   H1587     1.0  0.80917  0.73157  0.46326  1.0000
  S   S264      1.0  0.95354  0.77838  0.47102  1.0000
  H   H1588     1.0  0.96210  0.72709  0.37688  1.0000
  C   C1982     1.0  0.83067  0.79248  0.99359  1.0000
  C   C1983     1.0  0.95567  0.73201  0.35011  1.0000
  H   H1589     1.0  0.72008  0.57865  0.45560  1.0000
  C   C1984     1.0  0.93678  0.48448  0.14986  1.0000
  C   C1985     1.0  0.72443  0.70941  0.20975  1.0000
  H   H1590     1.0  0.96439  0.51304  0.06885  1.0000
  Fe  Fe130     1.0  0.96490  0.78905  0.10381  1.0000
  H   H1591     1.0  0.72224  0.92172  0.31396  1.0000
  H   H1592     1.0  0.73658  0.72974  0.21360  1.0000
  H   H1593     1.0  0.72956  0.51438  0.03949  1.0000
  H   H1594     1.0  0.73220  0.92933  0.99888  1.0000
  S   S265      1.0  0.72004  0.65842  0.34762  1.0000
  H   H1595     1.0  0.91421  0.95920  0.45161  1.0000
  P   P68       1.0  0.96765  0.49185  0.21543  1.0000
  H   H1596     1.0  0.74550  0.89287  0.47638  1.0000
  C   C1986     1.0  0.73609  0.57501  0.46229  1.0000
  C   C1987     1.0  0.72226  0.52580  0.02478  1.0000
  H   H1597     1.0  0.72550  0.54824  0.07687  1.0000
  C   C1988     1.0  0.72003  0.54505  0.04619  1.0000
  C   C1989     1.0  0.83079  0.97537  0.40029  1.0000
  H   H1598     1.0  0.88766  0.84568  0.98216  1.0000
  C   C1990     1.0  0.71961  0.66658  0.20192  1.0000
  C   C1991     1.0  0.90950  0.96816  0.47599  1.0000
  C   C1992     1.0  0.71887  0.63075  0.01864  1.0000
  C   C1993     1.0  0.90049  0.47904  0.26772  1.0000
  H   H1599     1.0  0.72597  0.72901  0.71814  1.0000
  Fe  Fe131     1.0  0.87335  0.56670  0.80956  1.0000
  S   S266      1.0  0.89529  0.60302  0.77551  1.0000
  S   S267      1.0  0.89662  0.54692  0.83064  1.0000
  Fe  Fe132     1.0  0.82315  0.57014  0.80155  1.0000
  S   S268      1.0  0.84177  0.60615  0.76707  1.0000
  S   S269      1.0  0.77992  0.54775  0.80943  1.0000
  Fe  Fe133     1.0  0.86182  0.58733  0.73358  1.0000
  S   S270      1.0  0.85822  0.58424  0.66617  1.0000
  Fe  Fe134     1.0  0.87373  0.61891  0.81207  1.0000
  S   S271      1.0  0.89110  0.66078  0.83396  1.0000
  S   S272      1.0  0.84124  0.55038  0.76577  1.0000
  S   S273      1.0  0.85381  0.58361  0.84853  1.0000
  H   H1600     1.0  0.80629  0.86633  0.53658  1.0000
  S   S274      1.0  0.73746  0.77949  0.93815  1.0000
  C   C1994     1.0  0.72365  0.57178  0.86784  1.0000
  C   C1995     1.0  0.72841  0.90403  0.56857  1.0000
  S   S275      1.0  0.73301  0.83230  0.93185  1.0000
  H   H1601     1.0  0.94519  0.52158  0.75083  1.0000
  C   C1996     1.0  0.86771  0.50614  0.69202  1.0000
  Fe  Fe135     1.0  0.75019  0.81179  0.89540  1.0000
  S   S276      1.0  0.74071  0.80580  0.82906  1.0000
  S   S277      1.0  0.78905  0.83387  0.92317  1.0000
  Fe  Fe136     1.0  0.78236  0.80114  0.54042  1.0000
  S   S278      1.0  0.75961  0.76573  0.57581  1.0000
  S   S279      1.0  0.75945  0.82018  0.51533  1.0000
  Fe  Fe137     1.0  0.83136  0.79533  0.54754  1.0000
  S   S280      1.0  0.81188  0.75999  0.58347  1.0000
  S   S281      1.0  0.87416  0.81603  0.53432  1.0000
  Fe  Fe138     1.0  0.77948  0.74801  0.53965  1.0000
  Fe  Fe139     1.0  0.79358  0.78071  0.61670  1.0000
  S   S282      1.0  0.79481  0.77965  0.68425  1.0000
  S   S283      1.0  0.81519  0.81704  0.58327  1.0000
  C   C1997     1.0  0.75628  0.79895  0.78904  1.0000
  C   C1998     1.0  0.77778  0.79513  0.79436  1.0000
  C   C1999     1.0  0.78919  0.78931  0.76197  1.0000
  C   C2000     1.0  0.77972  0.78776  0.72359  1.0000
  C   C2001     1.0  0.75834  0.79186  0.71813  1.0000
  C   C2002     1.0  0.74661  0.79717  0.75069  1.0000
  H   H1602     1.0  0.78547  0.79644  0.82354  1.0000
  H   H1603     1.0  0.80560  0.78609  0.76667  1.0000
  H   H1604     1.0  0.75070  0.79068  0.68893  1.0000
  C   C2003     1.0  0.75868  0.55773  0.83158  1.0000
  C   C2004     1.0  0.76712  0.58231  0.84726  1.0000
  C   C2005     1.0  0.74968  0.58928  0.86522  1.0000
  H   H1605     1.0  0.91541  0.49764  0.93745  1.0000
  C   C2006     1.0  0.73275  0.83689  0.64724  1.0000
  C   C2007     1.0  0.73261  0.54027  0.83406  1.0000
  H   H1606     1.0  0.78708  0.59585  0.84547  1.0000
  H   H1607     1.0  0.75636  0.60836  0.87701  1.0000
  C   C2008     1.0  0.74795  0.50855  0.93413  1.0000
  H   H1608     1.0  0.90138  0.75122  0.49462  1.0000
  C   C2009     1.0  0.71968  0.68979  0.71573  1.0000
  C   C2010     1.0  0.79622  0.52755  0.89952  1.0000
  S   S284      1.0  0.75934  0.70609  0.51935  1.0000
  H   H1609     1.0  0.89283  0.49047  0.77041  1.0000
  H   H1610     1.0  0.87449  0.50046  0.63166  1.0000
  C   C2011     1.0  0.91005  0.67321  0.95136  1.0000
  C   C2012     1.0  0.90114  0.66093  0.91456  1.0000
  C   C2013     1.0  0.90289  0.67523  0.88119  1.0000
  C   C2014     1.0  0.91408  0.70202  0.88534  1.0000
  C   C2015     1.0  0.92346  0.71433  0.92199  1.0000
  C   C2016     1.0  0.85546  0.71784  0.92675  1.0000
  H   H1611     1.0  0.89294  0.64038  0.91210  1.0000
  H   H1612     1.0  0.91569  0.71342  0.85994  1.0000
  H   H1613     1.0  0.93218  0.73492  0.92432  1.0000
  C   C2017     1.0  0.75873  0.88719  0.48967  1.0000
  C   C2018     1.0  0.89598  0.80497  0.51757  1.0000
  H   H1614     1.0  0.79069  0.48890  0.90074  1.0000
  H   H1615     1.0  0.88063  0.66572  0.49505  1.0000
  H   H1616     1.0  0.92674  0.84312  0.51232  1.0000
  H   H1617     1.0  0.83175  0.64592  0.83839  1.0000
  C   C2019     1.0  0.90317  0.58159  0.55667  1.0000
  C   C2020     1.0  0.87678  0.56632  0.55904  1.0000
  C   C2021     1.0  0.86365  0.56655  0.59348  1.0000
  C   C2022     1.0  0.87655  0.58204  0.62604  1.0000
  C   C2023     1.0  0.90303  0.59717  0.62381  1.0000
  C   C2024     1.0  0.91622  0.59679  0.58943  1.0000
  H   H1618     1.0  0.86642  0.55447  0.53422  1.0000
  H   H1619     1.0  0.84328  0.55459  0.59481  1.0000
  H   H1620     1.0  0.91326  0.60948  0.64829  1.0000
  H   H1621     1.0  0.93661  0.60874  0.58788  1.0000
  C   C2025     1.0  0.88693  0.51421  0.84052  1.0000
  S   S285      1.0  0.80004  0.78228  0.50173  1.0000
  C   C2026     1.0  0.86148  0.49550  0.83740  1.0000
  H   H1622     1.0  0.92528  0.52112  0.85399  1.0000
  H   H1623     1.0  0.84688  0.50087  0.82928  1.0000
  H   H1624     1.0  0.88864  0.62556  0.56336  1.0000
  C   C2027     1.0  0.95869  0.47995  0.82524  1.0000
  C   C2028     1.0  0.87857  0.49820  0.66193  1.0000
  C   C2029     1.0  0.80781  0.63869  0.94582  1.0000
  C   C2030     1.0  0.90559  0.50678  0.85120  1.0000
  C   C2031     1.0  0.76903  0.85333  0.51073  1.0000
  H   H1625     1.0  0.93286  0.57673  0.77193  1.0000
  C   C2032     1.0  0.79976  0.89807  0.51929  1.0000
  H   H1626     1.0  0.72831  0.61591  0.80079  1.0000
  H   H1627     1.0  0.86997  0.76497  0.52015  1.0000
  C   C2033     1.0  0.80006  0.68218  0.55735  1.0000
  H   H1628     1.0  0.79583  0.56380  0.89965  1.0000
  C   C2034     1.0  0.88040  0.66007  0.67847  1.0000
  C   C2035     1.0  0.88829  0.67038  0.71607  1.0000
  C   C2036     1.0  0.90127  0.69682  0.72166  1.0000
  C   C2037     1.0  0.90653  0.71301  0.68964  1.0000
  C   C2038     1.0  0.89885  0.70284  0.65164  1.0000
  C   C2039     1.0  0.88569  0.67619  0.64632  1.0000
  P   P69       1.0  0.90783  0.72407  0.61027  1.0000
  C   C2040     1.0  0.94063  0.73356  0.59704  1.0000
  C   C2041     1.0  0.88807  0.70882  0.56777  1.0000
  C   C2042     1.0  0.87027  0.71660  0.55415  1.0000
  C   C2043     1.0  0.77699  0.56507  0.47966  1.0000
  H   H1629     1.0  0.78112  0.75009  0.82390  1.0000
  H   H1630     1.0  0.79954  0.70010  0.56275  1.0000
  C   C2044     1.0  0.89175  0.69037  0.54617  1.0000
  H   H1631     1.0  0.80902  0.96463  0.58429  1.0000
  C   C2045     1.0  0.89370  0.74557  0.96292  1.0000
  C   C2046     1.0  0.93771  0.57628  0.74140  1.0000
  H   H1632     1.0  0.79984  0.66042  0.85727  1.0000
  H   H1633     1.0  0.72996  0.80000  0.74613  1.0000
  C   C2047     1.0  0.90358  0.75182  0.62231  1.0000
  C   C2048     1.0  0.91860  0.77529  0.60433  1.0000
  C   C2049     1.0  0.91308  0.79576  0.60974  1.0000
  C   C2050     1.0  0.89243  0.79296  0.63274  1.0000
  C   C2051     1.0  0.87752  0.76978  0.65107  1.0000
  C   C2052     1.0  0.88305  0.74927  0.64593  1.0000
  H   H1634     1.0  0.87053  0.63949  0.67425  1.0000
  H   H1635     1.0  0.88466  0.65790  0.74092  1.0000
  C   C2053     1.0  0.75192  0.86108  0.49394  1.0000
  H   H1636     1.0  0.83445  0.62346  0.95627  1.0000
  H   H1637     1.0  0.87964  0.66768  0.61755  1.0000
  H   H1638     1.0  0.86721  0.73114  0.56935  1.0000
  H   H1639     1.0  0.95228  0.72585  0.65363  1.0000
  C   C2054     1.0  0.80708  0.65216  0.87902  1.0000
  C   C2055     1.0  0.88909  0.49258  0.73999  1.0000
  H   H1640     1.0  0.90577  0.68448  0.55556  1.0000
  C   C2056     1.0  0.86005  0.68766  0.49862  1.0000
  C   C2057     1.0  0.83078  0.61055  0.52161  1.0000
  H   H1641     1.0  0.82162  0.81203  0.89639  1.0000
  H   H1642     1.0  0.75195  0.70756  0.61352  1.0000
  C   C2058     1.0  0.87425  0.72117  0.95432  1.0000
  H   H1643     1.0  0.93402  0.77774  0.58495  1.0000
  H   H1644     1.0  0.92426  0.81359  0.59485  1.0000
  H   H1645     1.0  0.88769  0.80862  0.63560  1.0000
  H   H1646     1.0  0.86129  0.76761  0.66841  1.0000
  H   H1647     1.0  0.87072  0.73119  0.65918  1.0000
  C   C2059     1.0  0.96648  0.48595  0.68574  1.0000
  H   H1648     1.0  0.75684  0.89143  0.57616  1.0000
  Fe  Fe140     1.0  0.72315  0.80144  0.97696  1.0000
  P   P70       1.0  0.79884  0.60437  0.53527  1.0000
  C   C2060     1.0  0.79296  0.87198  0.52357  1.0000
  H   H1649     1.0  0.92315  0.95120  0.51965  1.0000
  H   H1650     1.0  0.96007  0.51504  0.96036  1.0000
  C   C2061     1.0  0.82619  0.63100  0.93488  1.0000
  H   H1651     1.0  0.78642  0.58574  0.96662  1.0000
  C   C2062     1.0  0.75553  0.68839  0.93762  1.0000
  C   C2063     1.0  0.78907  0.58646  0.57997  1.0000
  C   C2064     1.0  0.76960  0.58720  0.60271  1.0000
  C   C2065     1.0  0.76266  0.57421  0.63820  1.0000
  C   C2066     1.0  0.77495  0.56022  0.65100  1.0000
  C   C2067     1.0  0.79373  0.55872  0.62786  1.0000
  C   C2068     1.0  0.80053  0.57149  0.59221  1.0000
  C   C2069     1.0  0.77524  0.58545  0.49872  1.0000
  H   H1652     1.0  0.75992  0.59796  0.59316  1.0000
  H   H1653     1.0  0.72590  0.52125  0.82184  1.0000
  H   H1654     1.0  0.76993  0.55047  0.67880  1.0000
  H   H1655     1.0  0.80330  0.54790  0.63784  1.0000
  H   H1656     1.0  0.81484  0.56978  0.57449  1.0000
  C   C2070     1.0  0.91835  0.56499  0.71339  1.0000
  C   C2071     1.0  0.92114  0.82298  0.50875  1.0000
  C   C2072     1.0  0.74794  0.62356  0.97635  1.0000
  H   H1657     1.0  0.75086  0.61489  0.94995  1.0000
  C   C2073     1.0  0.85177  0.69390  0.79328  1.0000
  C   C2074     1.0  0.83714  0.69251  0.76027  1.0000
  C   C2075     1.0  0.82084  0.70378  0.76120  1.0000
  C   C2076     1.0  0.81908  0.71633  0.79522  1.0000
  C   C2077     1.0  0.83367  0.71775  0.82863  1.0000
  C   C2078     1.0  0.85016  0.70651  0.82728  1.0000
  P   P71       1.0  0.83126  0.73421  0.87230  1.0000
  C   C2079     1.0  0.83416  0.76508  0.85955  1.0000
  C   C2080     1.0  0.80143  0.71592  0.89731  1.0000
  C   C2081     1.0  0.79947  0.72104  0.93709  1.0000
  C   C2082     1.0  0.93911  0.81524  0.49502  1.0000
  C   C2083     1.0  0.93207  0.78932  0.48967  1.0000
  C   C2084     1.0  0.75726  0.68292  0.89808  1.0000
  C   C2085     1.0  0.78009  0.69674  0.87789  1.0000
  C   C2086     1.0  0.82489  0.77779  0.88484  1.0000
  C   C2087     1.0  0.82837  0.80224  0.87617  1.0000
  C   C2088     1.0  0.85039  0.80180  0.81677  1.0000
  C   C2089     1.0  0.84726  0.77744  0.82562  1.0000
  C   C2090     1.0  0.85627  0.73891  0.90691  1.0000
  H   H1658     1.0  0.95830  0.82938  0.48810  1.0000
  C   C2091     1.0  0.96325  0.58748  0.73011  1.0000
  C   C2092     1.0  0.90702  0.77128  0.49888  1.0000
  C   C2093     1.0  0.76133  0.73630  0.82783  1.0000
  C   C2094     1.0  0.77659  0.70754  0.95700  1.0000
  H   H1659     1.0  0.86448  0.68522  0.79267  1.0000
  H   H1660     1.0  0.83859  0.68278  0.73397  1.0000
  H   H1661     1.0  0.80970  0.70299  0.73546  1.0000
  H   H1662     1.0  0.80656  0.72520  0.79537  1.0000
  H   H1663     1.0  0.86201  0.70746  0.85209  1.0000
  C   C2095     1.0  0.95004  0.57566  0.66253  1.0000
  H   H1664     1.0  0.81840  0.91232  0.52906  1.0000
  C   C2096     1.0  0.93777  0.48317  0.76573  1.0000
  H   H1665     1.0  0.74086  0.66816  0.88292  1.0000
  H   H1666     1.0  0.78086  0.69240  0.84727  1.0000
  H   H1667     1.0  0.81546  0.76928  0.91180  1.0000
  H   H1668     1.0  0.91705  0.73346  0.69445  1.0000
  H   H1669     1.0  0.85546  0.76855  0.80628  1.0000
  Fe  Fe141     1.0  0.72300  0.96780  0.48618  1.0000
  H   H1670     1.0  0.84351  0.83316  0.83541  1.0000
  H   H1671     1.0  0.84869  0.62748  0.88783  1.0000
  C   C2097     1.0  0.92127  0.70000  0.95550  1.0000
  H   H1672     1.0  0.84048  0.69882  0.92066  1.0000
  C   C2098     1.0  0.83688  0.60836  0.48242  1.0000
  C   C2099     1.0  0.88913  0.77901  0.51312  1.0000
  C   C2100     1.0  0.87761  0.67972  0.51190  1.0000
  H   H1673     1.0  0.75307  0.54720  0.92908  1.0000
  C   C2101     1.0  0.79508  0.64795  0.51269  1.0000
  H   H1674     1.0  0.87717  0.78016  0.90118  1.0000
  C   C2102     1.0  0.79867  0.64977  0.91778  1.0000
  C   C2103     1.0  0.90871  0.97540  0.54578  1.0000
  Fe  Fe142     1.0  0.77584  0.80265  0.96778  1.0000
  H   H1675     1.0  0.89858  0.55710  0.72224  1.0000
  H   H1676     1.0  0.81556  0.73592  0.95262  1.0000
  C   C2104     1.0  0.76138  0.53441  0.92440  1.0000
  H   H1677     1.0  0.79095  0.63983  0.48341  1.0000
  S   S286      1.0  0.92074  0.58275  0.51359  1.0000
  C   C2105     1.0  0.80034  0.63535  0.54328  1.0000
  C   C2106     1.0  0.73982  0.72081  0.66455  1.0000
  H   H1678     1.0  0.84108  0.83010  0.97212  1.0000
  H   H1679     1.0  0.90939  0.55548  0.65240  1.0000
  C   C2107     1.0  0.78272  0.90585  0.50244  1.0000
  H   H1680     1.0  0.96218  0.56125  0.54914  1.0000
  C   C2108     1.0  0.94906  0.74246  0.55917  1.0000
  C   C2109     1.0  0.92450  0.56429  0.67408  1.0000
  Fe  Fe143     1.0  0.77118  0.96129  0.47957  1.0000
  C   C2110     1.0  0.83452  0.63343  0.89619  1.0000
  C   C2111     1.0  0.76346  0.86934  0.77281  1.0000
  H   H1681     1.0  0.76859  0.85796  0.79225  1.0000
  C   C2112     1.0  0.79452  0.67104  0.51992  1.0000
  C   C2113     1.0  0.72143  0.79982  0.60488  1.0000
  H   H1682     1.0  0.90763  0.70469  0.75087  1.0000
  P   P72       1.0  0.75049  0.87089  0.65545  1.0000
  C   C2114     1.0  0.75347  0.87811  0.70732  1.0000
  C   C2115     1.0  0.78308  0.88269  0.63939  1.0000
  C   C2116     1.0  0.79509  0.86693  0.64014  1.0000
  C   C2117     1.0  0.82058  0.87646  0.62882  1.0000
  C   C2118     1.0  0.83423  0.90170  0.61669  1.0000
  C   C2119     1.0  0.82261  0.91767  0.61675  1.0000
  C   C2120     1.0  0.79723  0.90833  0.62855  1.0000
  C   C2121     1.0  0.75090  0.89904  0.72247  1.0000
  C   C2122     1.0  0.75396  0.90463  0.76269  1.0000
  H   H1683     1.0  0.75100  0.60382  0.50725  1.0000
  C   C2123     1.0  0.84994  0.61769  0.55049  1.0000
  H   H1684     1.0  0.74660  0.74003  0.65380  1.0000
  C   C2124     1.0  0.73378  0.88481  0.62823  1.0000
  H   H1685     1.0  0.87399  0.70482  0.96880  1.0000
  C   C2125     1.0  0.87306  0.50340  0.73103  1.0000
  S   S287      1.0  0.79236  0.93905  0.49886  1.0000
  C   C2126     1.0  0.72251  0.67134  0.69270  1.0000
  C   C2127     1.0  0.84094  0.81420  0.84204  1.0000
  C   C2128     1.0  0.94881  0.50975  0.77142  1.0000
  H   H1686     1.0  0.78540  0.65689  0.92591  1.0000
  H   H1687     1.0  0.74869  0.83792  0.58991  1.0000
  H   H1688     1.0  0.73336  0.84679  0.48396  1.0000
  H   H1689     1.0  0.78494  0.84733  0.64963  1.0000
  H   H1690     1.0  0.82977  0.86425  0.62944  1.0000
  H   H1691     1.0  0.85384  0.90886  0.60735  1.0000
  H   H1692     1.0  0.83322  0.93726  0.60744  1.0000
  H   H1693     1.0  0.78866  0.92108  0.62897  1.0000
  C   C2129     1.0  0.73426  0.67780  0.65607  1.0000
  C   C2130     1.0  0.72145  0.70299  0.80130  1.0000
  H   H1694     1.0  0.76270  0.89414  0.81899  1.0000
  C   C2131     1.0  0.92105  0.48632  0.95609  1.0000
  H   H1695     1.0  0.94415  0.64923  0.52663  1.0000
  C   C2132     1.0  0.76013  0.88972  0.78786  1.0000
  H   H1696     1.0  0.76064  0.74727  0.88809  1.0000
  C   C2133     1.0  0.74292  0.70253  0.64199  1.0000
  C   C2134     1.0  0.78563  0.54393  0.90778  1.0000
  H   H1697     1.0  0.81462  0.53478  0.88539  1.0000
  H   H1698     1.0  0.74702  0.91135  0.70333  1.0000
  C   C2135     1.0  0.73553  0.82607  0.61195  1.0000
  C   C2136     1.0  0.78265  0.50164  0.90804  1.0000
  H   H1699     1.0  0.75676  0.72225  0.76879  1.0000
  C   C2137     1.0  0.74730  0.72052  0.79652  1.0000
  C   C2138     1.0  0.87977  0.61752  0.50196  1.0000
  C   C2139     1.0  0.96449  0.52127  0.80404  1.0000
  C   C2140     1.0  0.82503  0.64402  0.86829  1.0000
  H   H1700     1.0  0.75196  0.92078  0.77435  1.0000
  C   C2141     1.0  0.80673  0.67050  0.58743  1.0000
  H   H1701     1.0  0.93611  0.74373  0.53777  1.0000
  H   H1702     1.0  0.73475  0.91115  0.53938  1.0000
  H   H1703     1.0  0.84376  0.71322  0.50853  1.0000
  C   C2142     1.0  0.74977  0.73474  0.86404  1.0000
  H   H1704     1.0  0.78981  0.68040  0.49646  1.0000
  C   C2143     1.0  0.94633  0.49609  0.96916  1.0000
  H   H1705     1.0  0.81216  0.63836  0.60411  1.0000
  Fe  Fe144     1.0  0.77095  0.85206  0.96276  1.0000
  C   C2144     1.0  0.89456  0.48726  0.67081  1.0000
  C   C2145     1.0  0.72821  0.71451  0.70118  1.0000
  H   H1706     1.0  0.84587  0.61981  0.58086  1.0000
  H   H1707     1.0  0.86036  0.81122  0.79047  1.0000
  H   H1708     1.0  0.85535  0.51467  0.68517  1.0000
  C   C2146     1.0  0.87430  0.62109  0.54067  1.0000
  C   C2147     1.0  0.80702  0.64722  0.58042  1.0000
  C   C2148     1.0  0.87607  0.76340  0.91542  1.0000
  C   C2149     1.0  0.76032  0.86366  0.73269  1.0000
  H   H1709     1.0  0.76349  0.84809  0.72145  1.0000
  H   H1710     1.0  0.95434  0.57568  0.63171  1.0000
  H   H1711     1.0  0.81156  0.67945  0.61619  1.0000
  C   C2150     1.0  0.95808  0.73255  0.62422  1.0000
  C   C2151     1.0  0.74120  0.89323  0.58985  1.0000
  C   C2152     1.0  0.75394  0.58950  0.49115  1.0000
  H   H1712     1.0  0.86490  0.50981  0.75447  1.0000
  H   H1713     1.0  0.90991  0.78557  0.94998  1.0000
  C   C2153     1.0  0.75857  0.49212  0.92520  1.0000
  H   H1714     1.0  0.73655  0.65889  0.77859  1.0000
  H   H1715     1.0  0.73789  0.67807  0.95334  1.0000
  H   H1716     1.0  0.74784  0.57502  0.65594  1.0000
  C   C2154     1.0  0.89474  0.76663  0.94327  1.0000
  C   C2155     1.0  0.85672  0.70637  0.51941  1.0000
  H   H1717     1.0  0.73650  0.66362  0.63831  1.0000
  C   C2156     1.0  0.72421  0.71705  0.86923  1.0000
  H   H1718     1.0  0.79235  0.56051  0.48653  1.0000
  C   C2157     1.0  0.96480  0.65934  0.52509  1.0000
  C   C2158     1.0  0.89981  0.48417  0.71001  1.0000
  C   C2159     1.0  0.91456  0.96367  0.51434  1.0000
  H   H1719     1.0  0.73723  0.65456  0.48897  1.0000
  H   H1720     1.0  0.90250  0.48112  0.64696  1.0000
  H   H1721     1.0  0.72395  0.79165  0.57763  1.0000
  C   C2160     1.0  0.89902  0.48098  0.85829  1.0000
  S   S288      1.0  0.79357  0.89485  0.97686  1.0000
  H   H1722     1.0  0.90837  0.66183  0.97683  1.0000
  H   H1723     1.0  0.89829  0.61904  0.49460  1.0000
  H   H1724     1.0  0.96145  0.53510  0.49129  1.0000
  H   H1725     1.0  0.91290  0.97213  0.57547  1.0000
  H   H1726     1.0  0.84251  0.97134  0.53636  1.0000
  H   H1727     1.0  0.96758  0.62675  0.50235  1.0000
  H   H1728     1.0  0.96757  0.69530  0.54535  1.0000
