data_image0
_chemical_formula_structural       FeS2CHFeC2HS2CFeS2FeS2CH3C2H3C8H8C6H7C3HCHCHCHC2PC3HC2H2C2H3CH3C2H2CHCHCHCHC3H2CHC3H3CHCFeC11PHC3H6C4H2C2PCHC3H2C3HC3HC3HC3H3CHC2HSH2FeCPCHC3HCH5CHC6HCH2CHS2HCH3FeH3C2H2CH2C5HCH2CFeS2FeSFeSFeS3FeS2FeSFeS3HFeHSFeSC2HS2HCSCSCFeSCHC5H3C8H5C3HCH2C7H3C6H5C2HC7H2C6HC2HCHCH3CHCH2CHFeCH2C3HCHCHCSC3H3C3HFeHC3PC4PCH2C7H2CHCH3PHC2HSC2H3C7H2CH4CHCH2C3H3C2HSHSCHFeCHC7PC9HC4HCH12CH3C3HC2HCH3C2H2C2H2C2HC2HCH2CH6CHC2HC2H2CPSHCFeS2FeSFeSFeS3HSFeS2FeSFeS2HSH3CFeSHFeHFeCSH2CS2H5C2HC3HC7H2C4H2C6H4C6H5C2PC4H2C7PC18H24C3SHCHC4H4C7HCH7C2H2CS2C2HC2PC5HC7SCHC4HCH2CH5C2H3CHCH3FeHC2HCH2CH2C2HCPCFeCHCHFeC2H2CHC3H2CHC3HCSCH2CHCHCHC2HC4SH5CH2C6HCHCH2FeS2FeHC2S2FeS2HFeS2HC2HCH2C6HC6H4C2HPHC2H2C6H8CSH2C5H2SCH2C9H2C4H4C6PCH2C3H3CHFeCH3C2HC2H2CHCHCH5C4HC6PHCH2C12HC2H2C2H4CHC2HC2HC3H2CPC2H2C3H6C2HCH2CH2PH6CHCH4FeHCFeHC2H2CFeSFeSFe2S2CFeSHFeSHCSHFeSFeSCSFeS2FeS2FeSFeS3CH2C6HCH3SC7H2C8H4C3SH3C6H5CH3CHCHC3H2C6PC5HC2HC7FeH7C8H4CHC4H2C7PC9HC3SC2H11SH2CHSH2CHPS2CH4SC2HC4H2SHCHCHC2HC2HC2HC3H2PH2FeCH2CH4C2HCH6C2HC3H3C2HC3HCHCH2CHC5H2CHCPH3FeS2FeS2FeSFeS3C6H4C7H2C2HCHCHC6H4C6H6CHC4PH2CH2C4HCH4CHCH2CHCH2CHCH4CHC2HCHCSHC2HCHCPC3HC2H6CHPSC4H8C5HC3H2C2H3SC9H6C3HC10P2CH4C7H4CHC2PHCHC4HC8H5CH3C2H2C2H2C5H2C2HC5H2C2H3C2H4C3HC5SHC3HCSHFeS2FeS2FeSFeS3C6H4C2HC4H2C2H2C7H4C6H4SC6PC16H19C2HC3H2C7HCHSCHCH2C3HCH3CHC3HC3HC4PCH2C3HC2H3C6HCSH2CHCHCHC4H3CH8C2HCHCHPC4H6CH3C2HCH2C2HPH3C3H2C2H2C2HC2HCSCHCH2C6H3C3HCHC9H2C2H2PHCH2C2H2SH4CHC4FeH3S2FeSFeHSCFeSFeS2FeS2FeSFeS3FeC2FeS2H2FeHS2HC6H4C2HC6H3C7H4CH6C8H2CH3SH2SC2HCFeH4SCH3C2HCHC2HC2HC2HC2H2CHC2HCHC2SC2H3CHCH6C2H2PCH3C2HC2H3C2H3CHC2FePCH5C2HC7PC14HCSCH6C2H7CH3CH2CH2CH4C2H5C4H2CHC2H2CHC2FeHC3PC18SC4HCH2SCHC4H2CSHSCSH2CHC2FeS2FeSHFeSFeS3H3SH2FeSHPCHPC2HCHC4H4C4HCH2C6H4C6H4S2HCH2CHC4H2C6H2C2FeC7PC4HC5H9SCH3C2H2C4H4C3HCHCHSCHC3PC8HCHC4H3C2H8C3SH2C2H2CH3CFeC3H3C2HCH2CHSH4CHCHC2HC2HC4HCHCHC5H3CHCHCHCH3CHC3H3C4HCHC2HC3SHC2HCH2CHC2FeS2FeS2FeSFeS3HC2FeS2CFeSCSCSHSC2H3C6HCH2C2HSHCHC7H4C6H5C3H2CH3FeC2HCHCHCHC2H2CH2C2H2CPCHC2HCH4CHC2H3C4H2CHCHC8H2CH2CSCHCHCH4C3HC2HSFeC2HC2H2C9H2SHC2H2FeHCH3CH5C2HC2HCHCH4SFeH4C6H5CPH2C5PC3HC9H6SC2H4C2HCHCH2PCHCHC2HCH2CFeCHCSHC6H6PCHC2HSHCFeS2FeS2FeSFeS3CFeS2FeSFeCS2FeSHCSHCHCHFeC6H4C3HC7H3C6H5C2HCSHPSC2HCHCFeC5HC7H2C4HCH2C2HC3HCH5CH2PCHCH8CHC4H2CHC2H2CHCHCPH3C3HCHC2HFeC3PC2H2C2SHCH2C2HC2HC2H4C4H2C3HC2HPH7CH2C2HCHCHCHC4H2CH2SCH2SH3C3HC2SC3HCHCH2FeS2FeS2FeCFeS3HC2SH2CSCH3C2HC6H4C2FeHC2H3C6H4C7HCH2CHC2HC12HC3H2C4HSHCH2CHCHFeHCSC4HCSC2HCHCPH2CHC3H3CHCH2C3H2C5HCPHCHC4H2C3SCPC3HSHC2HCH4CH2C4H2C2H2C2H3C4HCHSC7HCH2CH3PHCHCHC4HCHCHCH2CHCHCH4C2HCHFeH
_chemical_formula_sum              "Fe112 S224 C1680 H1344 P56"
_cell_length_a       50.5184
_cell_length_b       36.6034
_cell_length_c       45.9325
_cell_angle_alpha    90.887
_cell_angle_beta     113.195
_cell_angle_gamma    90.4253

_space_group_name_H-M_alt    "P 1"
_space_group_IT_number       1

loop_
  _space_group_symop_operation_xyz
  'x, y, z'

loop_
  _atom_site_type_symbol
  _atom_site_label
  _atom_site_symmetry_multiplicity
  _atom_site_fract_x
  _atom_site_fract_y
  _atom_site_fract_z
  _atom_site_occupancy
  Fe  Fe1       1.0  0.25573  0.16276  0.38307  1.0000
  S   S1        1.0  0.27281  0.10482  0.38924  1.0000
  S   S2        1.0  0.21333  0.18668  0.38254  1.0000
  C   C1        1.0  0.09999  0.28285  0.39759  1.0000
  H   H1        1.0  0.28106  0.23778  0.20314  1.0000
  Fe  Fe2       1.0  0.29692  0.12212  0.35879  1.0000
  C   C2        1.0  0.01373  0.08751  0.30776  1.0000
  C   C3        1.0  0.05703  0.10327  0.28608  1.0000
  H   H2        1.0  0.99369  0.18368  0.99588  1.0000
  S   S3        1.0  0.27668  0.17770  0.34954  1.0000
  S   S4        1.0  0.29335  0.18374  0.42641  1.0000
  C   C4        1.0  0.26688  0.19331  0.22366  1.0000
  Fe  Fe3       1.0  0.04473  0.22981  0.27369  1.0000
  S   S5        1.0  0.02638  0.23192  0.31090  1.0000
  S   S6        1.0  0.08424  0.19600  0.27762  1.0000
  Fe  Fe4       1.0  0.02164  0.29193  0.30098  1.0000
  S   S7        1.0  0.03560  0.33191  0.34236  1.0000
  S   S8        1.0  0.04228  0.29032  0.26565  1.0000
  C   C5        1.0  0.23477  0.28507  0.36380  1.0000
  H   H3        1.0  0.99444  0.13757  0.28543  1.0000
  H   H4        1.0  0.11276  0.29695  0.27745  1.0000
  H   H5        1.0  0.29044  0.05611  0.47900  1.0000
  C   C6        1.0  0.25538  0.99694  0.13559  1.0000
  C   C7        1.0  0.00263  0.18870  0.37004  1.0000
  H   H6        1.0  0.23125  0.22149  0.13584  1.0000
  H   H7        1.0  0.24567  0.37334  0.32398  1.0000
  H   H8        1.0  0.99065  0.16324  0.36218  1.0000
  C   C8        1.0  0.21165  0.45578  0.34083  1.0000
  C   C9        1.0  0.30748  0.14938  0.12011  1.0000
  C   C10       1.0  0.05125  0.37145  0.33438  1.0000
  C   C11       1.0  0.04569  0.38042  0.30310  1.0000
  C   C12       1.0  0.05853  0.41155  0.29664  1.0000
  C   C13       1.0  0.07743  0.43359  0.32140  1.0000
  C   C14       1.0  0.08248  0.42529  0.35278  1.0000
  C   C15       1.0  0.06923  0.39429  0.35925  1.0000
  H   H9        1.0  0.03109  0.36369  0.28378  1.0000
  H   H10       1.0  0.05383  0.41844  0.27231  1.0000
  H   H11       1.0  0.09684  0.44244  0.37197  1.0000
  H   H12       1.0  0.07333  0.38760  0.38350  1.0000
  H   H13       1.0  0.27307  0.26628  0.35879  1.0000
  H   H14       1.0  0.21151  0.45769  0.36430  1.0000
  H   H15       1.0  0.07961  0.34663  0.24987  1.0000
  H   H16       1.0  0.04478  0.28056  0.39649  1.0000
  C   C16       1.0  0.17857  0.19192  0.35140  1.0000
  C   C17       1.0  0.15914  0.21686  0.35561  1.0000
  C   C18       1.0  0.13053  0.21947  0.33291  1.0000
  C   C19       1.0  0.12079  0.19672  0.30581  1.0000
  C   C20       1.0  0.14040  0.17237  0.30135  1.0000
  C   C21       1.0  0.16909  0.17010  0.32381  1.0000
  H   H17       1.0  0.16598  0.23361  0.37697  1.0000
  H   H18       1.0  0.11577  0.23820  0.33688  1.0000
  H   H19       1.0  0.13321  0.15469  0.28051  1.0000
  H   H20       1.0  0.18359  0.15067  0.32021  1.0000
  H   H21       1.0  0.23993  0.15467  0.04151  1.0000
  H   H22       1.0  0.16197  0.31148  0.31489  1.0000
  H   H23       1.0  0.14458  0.42678  0.29952  1.0000
  C   C22       1.0  0.24557  0.02266  0.21140  1.0000
  C   C23       1.0  0.20387  0.31053  0.44748  1.0000
  C   C24       1.0  0.01230  0.11905  0.29044  1.0000
  H   H24       1.0  0.19784  0.31089  0.36656  1.0000
  C   C25       1.0  0.26400  0.30933  0.11640  1.0000
  H   H25       1.0  0.27300  0.33393  0.11083  1.0000
  C   C26       1.0  0.20433  0.42295  0.32292  1.0000
  H   H26       1.0  0.09611  0.41132  0.26073  1.0000
  C   C27       1.0  0.03686  0.06349  0.31428  1.0000
  H   H27       1.0  0.10371  0.15164  0.45748  1.0000
  C   C28       1.0  0.19520  0.41603  0.43571  1.0000
  C   C29       1.0  0.11282  0.31720  0.39906  1.0000
  P   P1        1.0  0.19342  0.38257  0.33790  1.0000
  C   C30       1.0  0.22336  0.27635  0.11906  1.0000
  C   C31       1.0  0.16943  0.41793  0.40895  1.0000
  C   C32       1.0  0.23500  0.30804  0.11192  1.0000
  H   H28       1.0  0.14837  0.40947  0.35871  1.0000
  C   C33       1.0  0.12002  0.32525  0.28210  1.0000
  C   C34       1.0  0.07765  0.22852  0.47905  1.0000
  H   H29       1.0  0.27665  0.03210  0.25965  1.0000
  H   H30       1.0  0.06113  0.30756  0.00359  1.0000
  C   C35       1.0  0.27762  0.04320  0.11510  1.0000
  C   C36       1.0  0.14801  0.33375  0.30368  1.0000
  H   H31       1.0  0.24685  0.00304  0.08609  1.0000
  H   H32       1.0  0.00421  0.04675  0.37220  1.0000
  H   H33       1.0  0.24506  0.19645  0.08602  1.0000
  C   C37       1.0  0.08796  0.20579  0.46103  1.0000
  H   H34       1.0  0.03278  0.15132  0.26617  1.0000
  H   H35       1.0  0.11210  0.09601  0.42526  1.0000
  H   H36       1.0  0.05629  0.49585  0.40254  1.0000
  C   C38       1.0  0.28142  0.27895  0.12800  1.0000
  C   C39       1.0  0.30462  0.12617  0.09456  1.0000
  H   H37       1.0  0.19437  0.33058  0.42931  1.0000
  H   H38       1.0  0.18190  0.06782  0.17918  1.0000
  C   C40       1.0  0.01314  0.47742  0.39374  1.0000
  H   H39       1.0  0.30717  0.08032  0.14993  1.0000
  C   C41       1.0  0.25879  0.15321  0.06350  1.0000
  H   H40       1.0  0.30014  0.05295  0.19493  1.0000
  C   C42       1.0  0.21871  0.48716  0.32823  1.0000
  H   H41       1.0  0.06933  0.25530  0.47068  1.0000
  C   C43       1.0  0.09709  0.17043  0.47162  1.0000
  H   H42       1.0  0.23874  0.38287  0.40143  1.0000
  C   C44       1.0  0.16838  0.40674  0.37924  1.0000
  C   C45       1.0  0.28642  0.17547  0.11723  1.0000
  C   C46       1.0  0.11979  0.28147  0.45496  1.0000
  H   H43       1.0  0.04263  0.16253  0.39656  1.0000
  H   H44       1.0  0.30127  0.29564  0.45591  1.0000
  C   C47       1.0  0.28032  0.12809  0.06625  1.0000
  H   H45       1.0  0.24002  0.40223  0.45363  1.0000
  C   C48       1.0  0.15737  0.37041  0.31023  1.0000
  C   C49       1.0  0.20649  0.31768  0.47848  1.0000
  C   C50       1.0  0.09420  0.05208  0.44288  1.0000
  H   H46       1.0  0.19765  0.39751  0.27767  1.0000
  H   H47       1.0  0.08727  0.27058  0.37458  1.0000
  H   H48       1.0  0.01952  0.03037  0.44885  1.0000
  C   C51       1.0  0.25790  0.28838  0.35459  1.0000
  H   H49       1.0  0.20085  0.27536  0.11554  1.0000
  C   C52       1.0  0.26164  0.32028  0.34026  1.0000
  Fe  Fe5       1.0  0.99698  0.27980  0.23002  1.0000
  C   C53       1.0  0.21127  0.45361  0.27977  1.0000
  C   C54       1.0  0.25590  0.03887  0.24183  1.0000
  C   C55       1.0  0.28866  0.04140  0.17134  1.0000
  C   C56       1.0  0.10525  0.19027  0.40714  1.0000
  C   C57       1.0  0.13453  0.18367  0.42504  1.0000
  C   C58       1.0  0.15017  0.16124  0.41282  1.0000
  C   C59       1.0  0.13671  0.14532  0.38263  1.0000
  C   C60       1.0  0.10777  0.15235  0.36443  1.0000
  C   C61       1.0  0.09214  0.17501  0.37643  1.0000
  C   C62       1.0  0.10292  0.26500  0.42552  1.0000
  C   C63       1.0  0.04789  0.22141  0.39826  1.0000
  P   P2        1.0  0.03954  0.02350  0.33780  1.0000
  H   H50       1.0  0.27997  0.32291  0.33372  1.0000
  C   C64       1.0  0.03344  0.25464  0.38930  1.0000
  C   C65       1.0  0.24069  0.24591  0.13063  1.0000
  C   C66       1.0  0.11058  0.38957  0.27258  1.0000
  H   H51       1.0  0.17302  0.15729  0.42610  1.0000
  H   H52       1.0  0.14911  0.12910  0.37267  1.0000
  H   H53       1.0  0.09784  0.14178  0.34031  1.0000
  H   H54       1.0  0.07022  0.18140  0.36115  1.0000
  H   H55       1.0  0.14495  0.32888  0.47915  1.0000
  H   H56       1.0  0.08364  0.08067  0.36922  1.0000
  C   C67       1.0  0.06172  0.03417  0.37886  1.0000
  C   C68       1.0  0.21533  0.31366  0.35870  1.0000
  C   C69       1.0  0.15807  0.44924  0.48292  1.0000
  C   C70       1.0  0.24200  0.34877  0.33468  1.0000
  H   H57       1.0  0.19628  0.42546  0.45858  1.0000
  H   H58       1.0  0.27831  0.11012  0.04646  1.0000
  C   C71       1.0  0.03388  0.12686  0.27956  1.0000
  C   C72       1.0  0.19327  0.39359  0.37624  1.0000
  P   P3        1.0  0.08594  0.22071  0.42293  1.0000
  C   C73       1.0  0.21278  0.07510  0.22718  1.0000
  H   H59       1.0  0.01892  0.44333  0.32407  1.0000
  C   C74       1.0  0.99232  0.02601  0.35480  1.0000
  C   C75       1.0  0.10133  0.35316  0.26651  1.0000
  C   C76       1.0  0.21908  0.39188  0.40329  1.0000
  H   H60       1.0  0.14536  0.19652  0.44814  1.0000
  H   H61       1.0  0.26182  0.10431  0.19960  1.0000
  C   C77       1.0  0.03210  0.18844  0.38920  1.0000
  C   C78       1.0  0.09725  0.07293  0.41909  1.0000
  C   C79       1.0  0.21998  0.40297  0.43290  1.0000
  H   H62       1.0  0.31174  0.15420  0.29609  1.0000
  C   C80       1.0  0.27675  0.20864  0.20199  1.0000
  C   C81       1.0  0.07516  0.02215  0.43476  1.0000
  C   C82       1.0  0.21840  0.34548  0.34347  1.0000
  H   H63       1.0  0.15046  0.42915  0.41108  1.0000
  C   C83       1.0  0.13828  0.39822  0.29458  1.0000
  C   C84       1.0  0.28099  0.18647  0.17900  1.0000
  C   C85       1.0  0.01957  0.28370  0.99560  1.0000
  H   H64       1.0  0.02210  0.01938  0.03001  1.0000
  C   C86       1.0  0.21889  0.03363  0.18877  1.0000
  C   C87       1.0  0.26546  0.13352  0.19983  1.0000
  C   C88       1.0  0.13247  0.31593  0.45635  1.0000
  H   H65       1.0  0.21091  0.45304  0.25602  1.0000
  H   H66       1.0  0.13837  0.36077  0.42951  1.0000
  H   H67       1.0  0.21073  0.27130  0.41570  1.0000
  C   C89       1.0  0.26988  0.24693  0.13518  1.0000
  H   H68       1.0  0.23199  0.26021  0.37487  1.0000
  C   C90       1.0  0.21876  0.48599  0.29785  1.0000
  C   C91       1.0  0.22070  0.11930  0.48414  1.0000
  H   H69       1.0  0.02020  0.45558  0.41066  1.0000
  S   S9        1.0  0.09471  0.47065  0.31208  1.0000
  H   H70       1.0  0.25426  0.14379  0.23985  1.0000
  H   H71       1.0  0.27877  0.13101  0.16100  1.0000
  Fe  Fe6       1.0  0.31489  0.19525  0.39318  1.0000
  C   C92       1.0  0.26178  0.17687  0.08888  1.0000
  P   P4        1.0  0.29181  0.20705  0.14977  1.0000
  C   C93       1.0  0.29242  0.05730  0.14576  1.0000
  H   H72       1.0  0.07389  0.10989  0.27787  1.0000
  C   C94       1.0  0.05862  0.07174  0.30347  1.0000
  C   C95       1.0  0.20390  0.42226  0.29214  1.0000
  C   C96       1.0  0.00394  0.25479  0.37032  1.0000
  H   H73       1.0  0.03519  0.00073  0.27453  1.0000
  C   C97       1.0  0.08106  0.06406  0.38720  1.0000
  H   H74       1.0  0.07694  0.05401  0.30871  1.0000
  H   H75       1.0  0.99680  0.08218  0.31602  1.0000
  H   H76       1.0  0.28212  0.13438  0.47222  1.0000
  H   H77       1.0  0.23123  0.22527  0.45593  1.0000
  H   H78       1.0  0.01654  0.30133  0.01311  1.0000
  C   C98       1.0  0.00418  0.00967  0.33488  1.0000
  H   H79       1.0  0.22154  0.33161  0.10286  1.0000
  C   C99       1.0  0.27531  0.14877  0.17811  1.0000
  C   C100      1.0  0.20254  0.05963  0.19668  1.0000
  C   C101      1.0  0.26115  0.15579  0.22251  1.0000
  C   C102      1.0  0.12887  0.33387  0.42841  1.0000
  C   C103      1.0  0.25865  0.01353  0.10996  1.0000
  C   C104      1.0  0.00920  0.01638  0.46221  1.0000
  H   H80       1.0  0.26402  0.21040  0.24166  1.0000
  C   C105      1.0  0.27080  0.01041  0.16655  1.0000
  H   H81       1.0  0.10975  0.33115  0.37731  1.0000
  H   H82       1.0  0.24756  0.07700  0.27330  1.0000
  C   C106      1.0  0.21307  0.27722  0.43979  1.0000
  H   H83       1.0  0.12315  0.26810  0.47690  1.0000
  S   S10       1.0  0.00061  0.21862  0.23482  1.0000
  S   S11       1.0  0.30434  0.08419  0.32247  1.0000
  H   H84       1.0  0.28091  0.05516  0.09533  1.0000
  C   C107      1.0  0.22482  0.25096  0.46298  1.0000
  H   H85       1.0  0.14097  0.45151  0.45970  1.0000
  H   H86       1.0  0.20015  0.09520  0.23343  1.0000
  H   H87       1.0  0.19924  0.34348  0.48449  1.0000
  Fe  Fe7       1.0  0.31151  0.12697  0.43065  1.0000
  H   H88       1.0  0.10654  0.05900  0.46760  1.0000
  H   H89       1.0  0.21073  0.02208  0.16495  1.0000
  H   H90       1.0  0.30377  0.28079  0.13126  1.0000
  C   C108      1.0  0.01509  0.00440  0.00769  1.0000
  C   C109      1.0  0.23946  0.06478  0.24967  1.0000
  H   H91       1.0  0.99322  0.28055  0.36259  1.0000
  H   H92       1.0  0.07253  0.00588  0.45303  1.0000
  C   C110      1.0  0.99622  0.43616  0.31317  1.0000
  H   H93       1.0  0.99755  0.40236  0.35157  1.0000
  H   H94       1.0  0.24389  0.08754  0.46220  1.0000
  C   C111      1.0  0.26469  0.13949  0.47985  1.0000
  C   C112      1.0  0.05912  0.01312  0.40293  1.0000
  C   C113      1.0  0.24319  0.11294  0.47434  1.0000
  C   C114      1.0  0.00546  0.03513  0.48758  1.0000
  C   C115      1.0  0.31762  0.28039  0.47422  1.0000
  H   H95       1.0  0.20400  0.09866  0.47967  1.0000
  C   C116      1.0  0.98859  0.22185  0.36048  1.0000
  H   H96       1.0  0.98816  0.36177  0.22777  1.0000
  H   H97       1.0  0.98895  0.46519  0.27035  1.0000
  C   C117      1.0  0.31945  0.09668  0.29482  1.0000
  Fe  Fe8       1.0  0.21034  0.29800  0.65174  1.0000
  S   S12       1.0  0.18469  0.34924  0.63916  1.0000
  S   S13       1.0  0.19228  0.24309  0.65830  1.0000
  Fe  Fe9       1.0  0.26655  0.33649  0.65790  1.0000
  S   S14       1.0  0.24442  0.39122  0.64565  1.0000
  Fe  Fe10      1.0  0.22262  0.37535  0.67856  1.0000
  S   S15       1.0  0.21440  0.41731  0.71161  1.0000
  Fe  Fe11      1.0  0.20788  0.36133  0.60714  1.0000
  S   S16       1.0  0.18043  0.37658  0.55542  1.0000
  S   S17       1.0  0.24730  0.32313  0.69328  1.0000
  S   S18       1.0  0.23100  0.30744  0.61721  1.0000
  Fe  Fe12      1.0  0.15752  0.42179  0.85653  1.0000
  S   S19       1.0  0.10925  0.42125  0.83512  1.0000
  S   S20       1.0  0.18292  0.39166  0.83181  1.0000
  Fe  Fe13      1.0  0.15920  0.45886  0.91835  1.0000
  S   S21       1.0  0.11077  0.46029  0.90088  1.0000
  Fe  Fe14      1.0  0.11069  0.40271  0.88205  1.0000
  S   S22       1.0  0.07422  0.36313  0.87902  1.0000
  S   S23       1.0  0.19216  0.47900  0.96687  1.0000
  S   S24       1.0  0.15911  0.39960  0.90294  1.0000
  H   H98       1.0  0.01914  0.05145  0.98140  1.0000
  Fe  Fe15      1.0  0.03132  0.16674  0.58885  1.0000
  H   H99       1.0  0.08937  0.32787  0.82545  1.0000
  S   S25       1.0  0.05910  0.21003  0.57902  1.0000
  Fe  Fe16      1.0  0.01788  0.12168  0.63685  1.0000
  S   S26       1.0  0.03595  0.10820  0.68934  1.0000
  C   C118      1.0  0.04928  0.26523  0.96752  1.0000
  C   C119      1.0  0.00433  0.35790  0.80802  1.0000
  H   H100      1.0  0.99011  0.35150  0.81983  1.0000
  S   S27       1.0  0.04120  0.10866  0.60482  1.0000
  S   S28       1.0  0.01188  0.18062  0.62383  1.0000
  H   H101      1.0  0.26607  0.47208  0.82777  1.0000
  C   C120      1.0  0.25533  0.01913  0.72506  1.0000
  S   S29       1.0  0.02324  0.10026  0.86556  1.0000
  C   C121      1.0  0.13123  0.32272  0.82458  1.0000
  S   S30       1.0  0.98866  0.15219  0.54908  1.0000
  C   C122      1.0  0.29041  0.42586  0.71916  1.0000
  Fe  Fe17      1.0  0.02689  0.15733  0.88677  1.0000
  S   S31       1.0  0.06830  0.19160  0.90182  1.0000
  C   C123      1.0  0.10290  0.29812  0.76184  1.0000
  H   H102      1.0  0.09257  0.28849  0.73761  1.0000
  C   C124      1.0  0.01540  0.11049  0.71298  1.0000
  C   C125      1.0  0.02949  0.10751  0.74599  1.0000
  C   C126      1.0  0.01387  0.10731  0.76552  1.0000
  C   C127      1.0  0.05624  0.01281  0.75810  1.0000
  C   C128      1.0  0.27478  0.23332  0.55440  1.0000
  H   H103      1.0  0.99976  0.25003  0.73405  1.0000
  H   H104      1.0  0.05268  0.10528  0.75652  1.0000
  H   H105      1.0  0.02507  0.10458  0.79084  1.0000
  C   C129      1.0  0.25637  0.42029  0.84307  1.0000
  C   C130      1.0  0.28414  0.31114  0.77662  1.0000
  C   C131      1.0  0.07327  0.31510  0.88428  1.0000
  C   C132      1.0  0.04652  0.29781  0.87789  1.0000
  C   C133      1.0  0.04462  0.26007  0.88265  1.0000
  C   C134      1.0  0.06955  0.23909  0.89424  1.0000
  C   C135      1.0  0.09628  0.25627  0.90029  1.0000
  C   C136      1.0  0.09816  0.29400  0.89518  1.0000
  H   H106      1.0  0.02714  0.31384  0.86957  1.0000
  H   H107      1.0  0.02395  0.24738  0.87800  1.0000
  H   H108      1.0  0.11571  0.24033  0.90917  1.0000
  H   H109      1.0  0.11889  0.30686  0.90022  1.0000
  H   H110      1.0  0.11486  0.36262  0.72953  1.0000
  C   C137      1.0  0.03706  0.27323  0.70305  1.0000
  C   C138      1.0  0.15850  0.41925  0.50219  1.0000
  C   C139      1.0  0.18055  0.41571  0.53260  1.0000
  H   H111      1.0  0.01541  0.35749  0.71694  1.0000
  C   C140      1.0  0.29939  0.12632  0.62962  1.0000
  H   H112      1.0  0.01284  0.03504  0.69716  1.0000
  H   H113      1.0  0.21928  0.44051  0.56672  1.0000
  C   C141      1.0  0.20321  0.40886  0.74319  1.0000
  C   C142      1.0  0.19289  0.43799  0.75597  1.0000
  C   C143      1.0  0.18526  0.43294  0.78213  1.0000
  C   C144      1.0  0.18833  0.39871  0.79617  1.0000
  C   C145      1.0  0.19830  0.36950  0.78306  1.0000
  C   C146      1.0  0.20547  0.37442  0.75662  1.0000
  C   C147      1.0  0.07762  0.21666  0.50784  1.0000
  H   H114      1.0  0.26624  0.23244  0.69075  1.0000
  H   H115      1.0  0.20120  0.34304  0.79391  1.0000
  H   H116      1.0  0.21353  0.35183  0.74722  1.0000
  C   C148      1.0  0.15494  0.23481  0.63733  1.0000
  C   C149      1.0  0.13787  0.25922  0.61474  1.0000
  C   C150      1.0  0.10850  0.25135  0.59739  1.0000
  C   C151      1.0  0.09576  0.21934  0.60278  1.0000
  C   C152      1.0  0.11268  0.19514  0.62576  1.0000
  C   C153      1.0  0.14224  0.20276  0.64282  1.0000
  H   H117      1.0  0.14739  0.28386  0.61014  1.0000
  H   H118      1.0  0.09558  0.27016  0.57962  1.0000
  H   H119      1.0  0.10305  0.17037  0.63003  1.0000
  H   H120      1.0  0.15525  0.18386  0.66040  1.0000
  H   H121      1.0  0.04778  0.24886  0.71492  1.0000
  C   C154      1.0  0.14709  0.31261  0.80688  1.0000
  C   C155      1.0  0.29426  0.39056  0.81813  1.0000
  H   H122      1.0  0.25285  0.07548  0.63631  1.0000
  C   C156      1.0  0.21385  0.21929  0.54176  1.0000
  C   C157      1.0  0.22289  0.21314  0.57434  1.0000
  C   C158      1.0  0.20265  0.21035  0.58796  1.0000
  C   C159      1.0  0.17330  0.21331  0.56920  1.0000
  C   C160      1.0  0.16415  0.21971  0.53685  1.0000
  C   C161      1.0  0.18431  0.22279  0.52312  1.0000
  C   C162      1.0  0.02714  0.27459  0.67007  1.0000
  H   H123      1.0  0.20978  0.20673  0.61324  1.0000
  H   H124      1.0  0.15763  0.21118  0.57979  1.0000
  C   C163      1.0  0.02594  0.00570  0.78754  1.0000
  C   C164      1.0  0.10056  0.46665  0.72364  1.0000
  C   C165      1.0  0.11268  0.41158  0.75432  1.0000
  C   C166      1.0  0.28633  0.10841  0.60012  1.0000
  C   C167      1.0  0.28943  0.07075  0.59746  1.0000
  C   C168      1.0  0.27072  0.20373  0.69587  1.0000
  H   H125      1.0  0.23474  0.13856  0.62577  1.0000
  C   C169      1.0  0.24106  0.17933  0.50479  1.0000
  C   C170      1.0  0.01468  0.32988  0.79455  1.0000
  H   H126      1.0  0.25045  0.36531  0.85532  1.0000
  C   C171      1.0  0.03365  0.33785  0.77985  1.0000
  H   H127      1.0  0.10924  0.46459  0.77352  1.0000
  C   C172      1.0  0.02767  0.35001  0.58805  1.0000
  H   H128      1.0  0.28450  0.10020  0.71096  1.0000
  H   H129      1.0  0.21857  0.29686  0.52524  1.0000
  H   H130      1.0  0.16774  0.45047  0.60283  1.0000
  C   C173      1.0  0.00628  0.20671  0.76699  1.0000
  H   H131      1.0  0.31439  0.30481  0.59969  1.0000
  C   C174      1.0  0.22345  0.11856  0.63395  1.0000
  H   H132      1.0  0.27394  0.12355  0.57921  1.0000
  H   H133      1.0  0.00846  0.30207  0.79654  1.0000
  C   C175      1.0  0.00289  0.23595  0.95514  1.0000
  H   H134      1.0  0.19146  0.15661  0.63533  1.0000
  Fe  Fe18      1.0  0.11278  0.47812  0.85536  1.0000
  C   C176      1.0  0.03116  0.99856  0.76014  1.0000
  H   H135      1.0  0.99828  0.41943  0.61465  1.0000
  H   H136      1.0  0.23253  0.19436  0.70494  1.0000
  C   C177      1.0  0.28063  0.36795  0.83265  1.0000
  C   C178      1.0  0.26163  0.38282  0.84489  1.0000
  C   C179      1.0  0.20189  0.47248  0.52411  1.0000
  H   H137      1.0  0.03172  0.22224  0.93252  1.0000
  C   C180      1.0  0.28126  0.12933  0.70750  1.0000
  H   H138      1.0  0.05798  0.38077  0.76916  1.0000
  C   C181      1.0  0.30092  0.15091  0.70034  1.0000
  H   H139      1.0  0.14538  0.29366  0.76161  1.0000
  C   C182      1.0  0.99533  0.49016  0.79074  1.0000
  S   S32       1.0  0.00570  0.14040  0.91967  1.0000
  C   C183      1.0  0.18002  0.47593  0.49361  1.0000
  C   C184      1.0  0.31267  0.01160  0.73262  1.0000
  C   C185      1.0  0.26191  0.01417  0.69828  1.0000
  H   H140      1.0  0.17777  0.46532  0.65917  1.0000
  H   H141      1.0  0.17793  0.45577  0.79206  1.0000
  H   H142      1.0  0.04014  0.42987  0.79359  1.0000
  C   C186      1.0  0.01326  0.30564  0.65425  1.0000
  C   C187      1.0  0.99843  0.25767  0.97824  1.0000
  C   C188      1.0  0.31745  0.06848  0.65397  1.0000
  H   H143      1.0  0.30043  0.44648  0.80705  1.0000
  Fe  Fe19      1.0  0.99840  0.08478  0.89553  1.0000
  H   H144      1.0  0.17039  0.31448  0.81755  1.0000
  C   C189      1.0  0.01904  0.33417  0.70437  1.0000
  C   C190      1.0  0.27033  0.44307  0.82931  1.0000
  C   C191      1.0  0.30157  0.25108  0.77086  1.0000
  P   P5        1.0  0.23314  0.01115  0.65943  1.0000
  C   C192      1.0  0.27868  0.27459  0.76641  1.0000
  C   C193      1.0  0.13297  0.30078  0.77542  1.0000
  C   C194      1.0  0.03344  0.30321  0.72056  1.0000
  C   C195      1.0  0.04261  0.37417  0.77946  1.0000
  P   P6        1.0  0.04807  0.30180  0.76340  1.0000
  C   C196      1.0  0.08677  0.30759  0.77966  1.0000
  H   H145      1.0  0.14228  0.33262  0.84881  1.0000
  H   H146      1.0  0.29735  0.22284  0.76283  1.0000
  C   C197      1.0  0.03920  0.25838  0.77570  1.0000
  C   C198      1.0  0.01385  0.23940  0.75665  1.0000
  C   C199      1.0  0.29533  0.18822  0.69422  1.0000
  C   C200      1.0  0.02387  0.19287  0.79633  1.0000
  C   C201      1.0  0.04921  0.21134  0.81520  1.0000
  C   C202      1.0  0.05674  0.24418  0.80520  1.0000
  C   C203      1.0  0.22724  0.25768  0.49418  1.0000
  H   H147      1.0  0.20187  0.15661  0.50650  1.0000
  H   H148      1.0  0.28460  0.33891  0.83458  1.0000
  C   C204      1.0  0.31529  0.10647  0.65677  1.0000
  H   H149      1.0  0.99738  0.35887  0.65877  1.0000
  C   C205      1.0  0.01122  0.01181  0.68165  1.0000
  H   H150      1.0  0.01791  0.16781  0.80455  1.0000
  H   H151      1.0  0.06299  0.20027  0.83778  1.0000
  H   H152      1.0  0.07609  0.25840  0.82083  1.0000
  P   P7        1.0  0.23971  0.22262  0.52374  1.0000
  H   H153      1.0  0.24111  0.43152  0.85197  1.0000
  C   C206      1.0  0.01327  0.39397  0.80746  1.0000
  C   C207      1.0  0.19917  0.12879  0.63943  1.0000
  H   H154      1.0  0.09361  0.46085  0.67455  1.0000
  S   S33       1.0  0.00010  0.02589  0.91449  1.0000
  C   C208      1.0  0.31231  0.26678  0.49966  1.0000
  C   C209      1.0  0.01556  0.49168  0.82202  1.0000
  H   H155      1.0  0.27084  0.43939  0.70426  1.0000
  H   H156      1.0  0.26618  0.32935  0.77210  1.0000
  H   H157      1.0  0.11892  0.39801  0.77684  1.0000
  C   C210      1.0  0.04493  0.02798  0.81196  1.0000
  C   C211      1.0  0.00720  0.37486  0.58909  1.0000
  C   C212      1.0  0.28951  0.42836  0.81727  1.0000
  C   C213      1.0  0.20215  0.44273  0.54350  1.0000
  C   C214      1.0  0.00887  0.33521  0.67132  1.0000
  C   C215      1.0  0.21960  0.15233  0.49934  1.0000
  C   C216      1.0  0.07527  0.03492  0.78265  1.0000
  H   H158      1.0  0.08684  0.17257  0.54069  1.0000
  H   H159      1.0  0.10378  0.13129  0.50846  1.0000
  C   C217      1.0  0.30875  0.27692  0.59093  1.0000
  H   H160      1.0  0.14155  0.39872  0.49349  1.0000
  H   H161      1.0  0.00594  0.41535  0.81890  1.0000
  H   H162      1.0  0.25665  0.26474  0.75450  1.0000
  H   H163      1.0  0.02176  0.32939  0.56928  1.0000
  C   C218      1.0  0.25167  0.18226  0.70385  1.0000
  H   H164      1.0  0.22129  0.02968  0.59292  1.0000
  C   C219      1.0  0.29081  0.01124  0.70226  1.0000
  H   H165      1.0  0.26855  0.29192  0.55486  1.0000
  H   H166      1.0  0.00559  0.30660  0.62871  1.0000
  C   C220      1.0  0.00386  0.00413  0.95075  1.0000
  C   C221      1.0  0.10753  0.44910  0.75249  1.0000
  C   C222      1.0  0.28264  0.26944  0.56535  1.0000
  H   H167      1.0  0.28798  0.17690  0.56191  1.0000
  H   H168      1.0  0.06954  0.23417  0.52170  1.0000
  H   H169      1.0  0.03701  0.48122  0.82789  1.0000
  C   C223      1.0  0.31258  0.32421  0.79187  1.0000
  C   C224      1.0  0.03243  0.40211  0.79320  1.0000
  H   H170      1.0  0.08403  0.06041  0.82820  1.0000
  S   S34       1.0  0.16116  0.48047  0.87338  1.0000
  H   H171      1.0  0.28713  0.01175  0.51802  1.0000
  S   S35       1.0  0.31239  0.32579  0.66047  1.0000
  C   C225      1.0  0.25700  0.14512  0.70977  1.0000
  H   H172      1.0  0.27384  0.41240  0.75400  1.0000
  Fe  Fe20      1.0  0.99733  0.09440  0.56688  1.0000
  C   C226      1.0  0.29231  0.41088  0.74770  1.0000
  H   H173      1.0  0.24189  0.12836  0.71531  1.0000
  C   C227      1.0  0.99199  0.01772  0.50520  1.0000
  C   C228      1.0  0.13235  0.41405  0.59710  1.0000
  C   C229      1.0  0.15440  0.43880  0.61402  1.0000
  C   C230      1.0  0.15992  0.44725  0.64566  1.0000
  C   C231      1.0  0.14353  0.43082  0.66048  1.0000
  C   C232      1.0  0.12097  0.40631  0.64353  1.0000
  C   C233      1.0  0.11578  0.39776  0.61176  1.0000
  P   P8        1.0  0.10091  0.38317  0.66318  1.0000
  C   C234      1.0  0.06370  0.37864  0.63542  1.0000
  C   C235      1.0  0.11679  0.33906  0.67536  1.0000
  C   C236      1.0  0.09954  0.30831  0.67413  1.0000
  C   C237      1.0  0.11218  0.27441  0.68411  1.0000
  C   C238      1.0  0.14211  0.27125  0.69617  1.0000
  C   C239      1.0  0.15942  0.30191  0.69819  1.0000
  C   C240      1.0  0.14684  0.33575  0.68797  1.0000
  C   C241      1.0  0.04265  0.40276  0.63676  1.0000
  C   C242      1.0  0.01454  0.40082  0.61366  1.0000
  H   H174      1.0  0.29700  0.15558  0.63136  1.0000
  C   C243      1.0  0.30756  0.02491  0.52209  1.0000
  C   C244      1.0  0.05576  0.35178  0.61114  1.0000
  C   C245      1.0  0.10350  0.40895  0.69820  1.0000
  C   C246      1.0  0.09878  0.44678  0.69667  1.0000
  H   H175      1.0  0.28021  0.05688  0.57453  1.0000
  C   C247      1.0  0.11056  0.39154  0.72732  1.0000
  H   H176      1.0  0.12879  0.40660  0.57287  1.0000
  H   H177      1.0  0.30958  0.20532  0.68758  1.0000
  H   H178      1.0  0.17223  0.00089  0.61801  1.0000
  H   H179      1.0  0.14927  0.43641  0.68545  1.0000
  H   H180      1.0  0.09951  0.37793  0.59828  1.0000
  H   H181      1.0  0.07638  0.31037  0.66541  1.0000
  H   H182      1.0  0.09876  0.25046  0.68207  1.0000
  H   H183      1.0  0.15192  0.24488  0.70335  1.0000
  H   H184      1.0  0.18261  0.29930  0.70702  1.0000
  H   H185      1.0  0.16061  0.35928  0.68990  1.0000
  H   H186      1.0  0.04764  0.42329  0.65533  1.0000
  H   H187      1.0  0.03027  0.25159  0.65669  1.0000
  C   C248      1.0  0.10120  0.32033  0.81107  1.0000
  H   H188      1.0  0.18450  0.04862  0.66661  1.0000
  H   H189      1.0  0.07137  0.33240  0.60972  1.0000
  H   H190      1.0  0.24550  0.21109  0.58947  1.0000
  C   C249      1.0  0.06953  0.04270  0.80947  1.0000
  C   C250      1.0  0.29350  0.20495  0.56962  1.0000
  C   C251      1.0  0.08735  0.18180  0.51857  1.0000
  H   H191      1.0  0.09425  0.04653  0.78061  1.0000
  C   C252      1.0  0.01341  0.02276  0.98006  1.0000
  C   C253      1.0  0.31750  0.39337  0.76728  1.0000
  H   H192      1.0  0.19122  0.46479  0.74589  1.0000
  C   C254      1.0  0.23567  0.00675  0.59955  1.0000
  H   H193      1.0  0.04044  0.03423  0.83269  1.0000
  H   H194      1.0  0.14143  0.22279  0.52261  1.0000
  H   H195      1.0  0.06879  0.26811  0.96314  1.0000
  C   C255      1.0  0.26361  0.17263  0.49487  1.0000
  C   C256      1.0  0.18518  0.10337  0.65102  1.0000
  H   H196      1.0  0.30713  0.02155  0.62224  1.0000
  H   H197      1.0  0.27206  0.02158  0.77615  1.0000
  C   C257      1.0  0.23359  0.08280  0.63982  1.0000
  C   C258      1.0  0.30484  0.05083  0.62439  1.0000
  H   H198      1.0  0.29663  0.00738  0.68218  1.0000
  H   H199      1.0  0.16660  0.11152  0.65570  1.0000
  C   C259      1.0  0.21906  0.05674  0.65043  1.0000
  C   C260      1.0  0.31318  0.42224  0.70935  1.0000
  H   H200      1.0  0.06113  0.00709  0.73757  1.0000
  C   C261      1.0  0.02832  0.23944  0.95011  1.0000
  C   C262      1.0  0.19526  0.06759  0.65687  1.0000
  H   H201      1.0  0.17689  0.22807  0.49805  1.0000
  C   C263      1.0  0.09698  0.15864  0.50042  1.0000
  H   H202      1.0  0.00117  0.47914  0.77208  1.0000
  H   H203      1.0  0.31217  0.11931  0.53708  1.0000
  C   C264      1.0  0.01134  0.01781  0.65171  1.0000
  H   H204      1.0  0.28016  0.19319  0.49831  1.0000
  H   H205      1.0  0.01353  0.04538  0.64459  1.0000
  H   H206      1.0  0.98664  0.21644  0.94075  1.0000
  H   H207      1.0  0.21897  0.49287  0.53270  1.0000
  H   H208      1.0  0.31124  0.43269  0.68666  1.0000
  H   H209      1.0  0.01294  0.06310  0.49343  1.0000
  C   C265      1.0  0.21784  0.29127  0.50167  1.0000
  H   H210      1.0  0.29183  0.27178  0.50128  1.0000
  C   C266      1.0  0.30590  0.01519  0.75922  1.0000
  C   C267      1.0  0.27727  0.01933  0.75544  1.0000
  H   H211      1.0  0.23318  0.02162  0.72252  1.0000
  C   C268      1.0  0.30934  0.05009  0.49984  1.0000
  C   C269      1.0  0.04490  0.28739  0.99026  1.0000
  H   H212      1.0  0.98682  0.19191  0.75238  1.0000
  H   H213      1.0  0.23805  0.00269  0.55366  1.0000
  C   C270      1.0  0.31954  0.21253  0.59524  1.0000
  P   P9        1.0  0.31949  0.37187  0.80311  1.0000
  S   S36       1.0  0.98645  0.17700  0.84855  1.0000
  H   H214      1.0  0.09657  0.49568  0.72215  1.0000
  C   C271      1.0  0.06056  0.56439  0.09307  1.0000
  Fe  Fe21      1.0  0.22032  0.69478  0.15250  1.0000
  S   S37       1.0  0.19230  0.64471  0.14035  1.0000
  S   S38       1.0  0.20333  0.75188  0.15270  1.0000
  Fe  Fe22      1.0  0.27530  0.65187  0.16389  1.0000
  S   S39       1.0  0.25054  0.59773  0.15231  1.0000
  Fe  Fe23      1.0  0.21680  0.62609  0.11129  1.0000
  S   S40       1.0  0.18857  0.60999  0.05956  1.0000
  Fe  Fe24      1.0  0.22729  0.61987  0.18235  1.0000
  S   S41       1.0  0.20891  0.58357  0.21071  1.0000
  S   S42       1.0  0.24256  0.67851  0.12093  1.0000
  S   S43       1.0  0.25431  0.67182  0.19648  1.0000
  H   H215      1.0  0.06885  0.50895  0.10915  1.0000
  S   S44       1.0  0.16648  0.51138  0.37733  1.0000
  Fe  Fe25      1.0  0.11106  0.58626  0.37724  1.0000
  S   S45       1.0  0.15884  0.59146  0.40618  1.0000
  S   S46       1.0  0.07219  0.62318  0.36841  1.0000
  Fe  Fe26      1.0  0.16498  0.57002  0.36264  1.0000
  S   S47       1.0  0.19723  0.59615  0.34482  1.0000
  Fe  Fe27      1.0  0.15653  0.53190  0.41857  1.0000
  S   S48       1.0  0.11761  0.56906  0.33333  1.0000
  S   S49       1.0  0.10832  0.52823  0.39215  1.0000
  H   H216      1.0  0.07563  0.96137  0.37002  1.0000
  S   S50       1.0  0.02521  0.88184  0.37025  1.0000
  H   H217      1.0  0.03082  0.50802  0.13073  1.0000
  H   H218      1.0  0.10415  0.73855  0.43102  1.0000
  H   H219      1.0  0.24597  0.80761  0.12441  1.0000
  C   C272      1.0  0.99391  0.59169  0.19003  1.0000
  Fe  Fe28      1.0  0.01783  0.82497  0.38459  1.0000
  S   S51       1.0  0.05646  0.78770  0.40723  1.0000
  H   H220      1.0  0.23116  0.55251  0.06593  1.0000
  Fe  Fe29      1.0  0.02610  0.85339  0.13056  1.0000
  H   H221      1.0  0.22432  0.51037  0.28822  1.0000
  Fe  Fe30      1.0  0.04373  0.81693  0.07999  1.0000
  C   C273      1.0  0.03598  0.57945  0.45770  1.0000
  S   S52       1.0  0.07250  0.78037  0.06506  1.0000
  H   H222      1.0  0.19633  0.66795  0.99370  1.0000
  H   H223      1.0  0.00041  0.62516  0.15529  1.0000
  C   C274      1.0  0.02452  0.52809  0.36717  1.0000
  S   S53       1.0  0.05240  0.87259  0.10330  1.0000
  S   S54       1.0  0.02168  0.79623  0.11042  1.0000
  H   H224      1.0  0.01526  0.51302  0.30108  1.0000
  H   H225      1.0  0.03599  0.77992  0.31241  1.0000
  H   H226      1.0  0.05421  0.94784  0.25527  1.0000
  H   H227      1.0  0.12243  0.63843  0.02422  1.0000
  H   H228      1.0  0.04445  0.98980  0.39710  1.0000
  C   C275      1.0  0.99315  0.87447  0.19654  1.0000
  C   C276      1.0  0.04941  0.57463  0.27335  1.0000
  H   H229      1.0  0.04063  0.54565  0.36414  1.0000
  C   C277      1.0  0.03593  0.85912  0.24186  1.0000
  C   C278      1.0  0.02135  0.86488  0.26217  1.0000
  C   C279      1.0  0.99505  0.53317  0.34907  1.0000
  H   H230      1.0  0.28731  0.68588  0.00040  1.0000
  C   C280      1.0  0.29558  0.75043  0.11720  1.0000
  C   C281      1.0  0.06920  0.66949  0.37902  1.0000
  C   C282      1.0  0.04346  0.68789  0.36224  1.0000
  C   C283      1.0  0.03935  0.72412  0.37027  1.0000
  C   C284      1.0  0.06107  0.74254  0.39529  1.0000
  C   C285      1.0  0.08713  0.72448  0.41169  1.0000
  C   C286      1.0  0.09127  0.68820  0.40353  1.0000
  H   H231      1.0  0.02641  0.67398  0.34301  1.0000
  H   H232      1.0  0.01926  0.73763  0.35732  1.0000
  C   C287      1.0  0.03908  0.60683  0.28141  1.0000
  C   C288      1.0  0.18944  0.57173  0.03537  1.0000
  C   C289      1.0  0.07134  0.95950  0.34505  1.0000
  C   C290      1.0  0.16620  0.56592  0.00604  1.0000
  H   H233      1.0  0.04631  0.71550  0.30397  1.0000
  H   H234      1.0  0.22378  0.51264  0.34187  1.0000
  C   C291      1.0  0.20496  0.58910  0.24756  1.0000
  C   C292      1.0  0.22137  0.61445  0.27099  1.0000
  C   C293      1.0  0.21838  0.61654  0.30031  1.0000
  C   C294      1.0  0.19887  0.59359  0.30667  1.0000
  C   C295      1.0  0.18207  0.56874  0.28305  1.0000
  C   C296      1.0  0.18519  0.56645  0.25379  1.0000
  H   H235      1.0  0.23682  0.63194  0.26682  1.0000
  H   H236      1.0  0.23158  0.63581  0.31838  1.0000
  H   H237      1.0  0.16722  0.55062  0.28764  1.0000
  H   H238      1.0  0.17239  0.54666  0.23598  1.0000
  C   C297      1.0  0.10843  0.77205  0.09064  1.0000
  C   C298      1.0  0.12317  0.74364  0.08291  1.0000
  C   C299      1.0  0.15197  0.73646  0.10243  1.0000
  C   C300      1.0  0.16651  0.75840  0.12933  1.0000
  C   C301      1.0  0.15188  0.78710  0.13689  1.0000
  C   C302      1.0  0.12278  0.79366  0.11781  1.0000
  H   H239      1.0  0.11221  0.72701  0.06184  1.0000
  H   H240      1.0  0.16308  0.71433  0.09643  1.0000
  H   H241      1.0  0.16303  0.80419  0.15764  1.0000
  H   H242      1.0  0.11158  0.81565  0.12390  1.0000
  H   H243      1.0  0.05826  0.85118  0.25180  1.0000
  C   C303      1.0  0.24837  0.94604  0.18857  1.0000
  C   C304      1.0  0.08825  0.59929  0.00076  1.0000
  P   P10       1.0  0.24756  0.85574  0.07394  1.0000
  C   C305      1.0  0.22207  0.87651  0.17274  1.0000
  C   C306      1.0  0.04043  0.54088  0.28010  1.0000
  C   C307      1.0  0.05482  0.98590  0.32394  1.0000
  C   C308      1.0  0.05591  0.53295  0.10749  1.0000
  H   H244      1.0  0.25802  0.62372  0.07858  1.0000
  H   H245      1.0  0.00994  0.65591  0.41083  1.0000
  C   C309      1.0  0.22161  0.93929  0.19028  1.0000
  C   C310      1.0  0.03687  0.71633  0.17781  1.0000
  C   C311      1.0  0.03618  0.75103  0.19050  1.0000
  C   C312      1.0  0.05803  0.76212  0.21911  1.0000
  C   C313      1.0  0.08097  0.73896  0.23467  1.0000
  C   C314      1.0  0.08241  0.70437  0.22166  1.0000
  C   C315      1.0  0.05978  0.69296  0.19332  1.0000
  P   P11       1.0  0.11387  0.67637  0.24090  1.0000
  C   C316      1.0  0.10767  0.62894  0.22784  1.0000
  C   C317      1.0  0.14391  0.69415  0.23305  1.0000
  C   C318      1.0  0.16275  0.67024  0.22678  1.0000
  C   C319      1.0  0.18590  0.68394  0.22066  1.0000
  C   C320      1.0  0.19082  0.72156  0.22128  1.0000
  C   C321      1.0  0.17263  0.74557  0.22818  1.0000
  C   C322      1.0  0.14935  0.73198  0.23419  1.0000
  C   C323      1.0  0.11083  0.60099  0.24955  1.0000
  C   C324      1.0  0.10771  0.56431  0.23956  1.0000
  C   C325      1.0  0.10180  0.55520  0.20796  1.0000
  C   C326      1.0  0.09912  0.58277  0.18632  1.0000
  C   C327      1.0  0.10214  0.61942  0.19623  1.0000
  C   C328      1.0  0.12328  0.67857  0.28305  1.0000
  C   C329      1.0  0.15202  0.67486  0.30434  1.0000
  C   C330      1.0  0.15895  0.67485  0.33698  1.0000
  C   C331      1.0  0.13728  0.67803  0.34853  1.0000
  C   C332      1.0  0.10867  0.68155  0.32744  1.0000
  C   C333      1.0  0.10162  0.68167  0.29483  1.0000
  H   H246      1.0  0.01985  0.70786  0.15561  1.0000
  H   H247      1.0  0.01892  0.76963  0.17810  1.0000
  H   H248      1.0  0.05740  0.78909  0.22887  1.0000
  H   H249      1.0  0.09772  0.74833  0.25679  1.0000
  H   H250      1.0  0.05963  0.66639  0.18283  1.0000
  H   H251      1.0  0.15994  0.64092  0.22685  1.0000
  H   H252      1.0  0.20018  0.66525  0.21566  1.0000
  H   H253      1.0  0.20883  0.73205  0.21655  1.0000
  H   H254      1.0  0.17658  0.77476  0.22876  1.0000
  H   H255      1.0  0.13576  0.75117  0.23963  1.0000
  H   H256      1.0  0.11636  0.60713  0.27440  1.0000
  H   H257      1.0  0.11054  0.54292  0.25661  1.0000
  H   H258      1.0  0.09993  0.52675  0.20045  1.0000
  H   H259      1.0  0.09538  0.57575  0.16204  1.0000
  H   H260      1.0  0.10088  0.64038  0.17947  1.0000
  H   H261      1.0  0.16905  0.67102  0.29589  1.0000
  H   H262      1.0  0.18110  0.67126  0.35330  1.0000
  H   H263      1.0  0.14259  0.67719  0.37380  1.0000
  H   H264      1.0  0.09194  0.68362  0.33643  1.0000
  H   H265      1.0  0.07927  0.68375  0.27888  1.0000
  H   H266      1.0  0.07247  0.88734  0.03123  1.0000
  H   H267      1.0  0.13626  0.80570  0.01064  1.0000
  H   H268      1.0  0.14790  0.58358  0.99959  1.0000
  H   H269      1.0  0.29570  0.86170  0.13655  1.0000
  C   C334      1.0  0.21360  0.73112  0.04557  1.0000
  C   C335      1.0  0.23750  0.85767  0.03150  1.0000
  C   C336      1.0  0.98805  0.98299  0.31247  1.0000
  S   S55       1.0  0.00542  0.95762  0.42166  1.0000
  H   H270      1.0  0.00373  0.54710  0.42122  1.0000
  C   C337      1.0  0.18855  0.71315  0.04399  1.0000
  H   H271      1.0  0.98879  0.66947  0.11161  1.0000
  C   C338      1.0  0.99683  0.65120  0.38591  1.0000
  C   C339      1.0  0.02200  0.86387  0.20894  1.0000
  C   C340      1.0  0.99978  0.97980  0.45399  1.0000
  C   C341      1.0  0.27358  0.92444  0.07785  1.0000
  H   H272      1.0  0.01349  0.59780  0.38512  1.0000
  H   H273      1.0  0.18950  0.69417  0.06228  1.0000
  H   H274      1.0  0.19173  0.84783  0.01865  1.0000
  H   H275      1.0  0.09445  0.90913  0.35029  1.0000
  C   C342      1.0  0.21539  0.86107  0.08178  1.0000
  C   C343      1.0  0.26045  0.79627  0.11455  1.0000
  C   C344      1.0  0.20842  0.89524  0.09092  1.0000
  C   C345      1.0  0.18298  0.89938  0.09591  1.0000
  C   C346      1.0  0.16427  0.86955  0.09159  1.0000
  C   C347      1.0  0.17088  0.83562  0.08206  1.0000
  C   C348      1.0  0.19632  0.83130  0.07725  1.0000
  H   H276      1.0  0.30118  0.66451  0.09700  1.0000
  C   C349      1.0  0.29979  0.76669  0.09202  1.0000
  H   H277      1.0  0.01075  0.61912  0.10364  1.0000
  H   H278      1.0  0.11129  0.67458  0.41657  1.0000
  H   H279      1.0  0.23394  0.72619  0.06512  1.0000
  H   H280      1.0  0.17782  0.92568  0.10335  1.0000
  H   H281      1.0  0.14467  0.87257  0.09574  1.0000
  H   H282      1.0  0.15637  0.81250  0.07867  1.0000
  H   H283      1.0  0.20102  0.80471  0.06991  1.0000
  C   C350      1.0  0.26191  0.91757  0.17913  1.0000
  C   C351      1.0  0.21302  0.54845  0.04355  1.0000
  H   H284      1.0  0.06484  0.57578  0.26252  1.0000
  H   H285      1.0  0.03245  0.86127  0.28742  1.0000
  C   C352      1.0  0.29492  0.95115  0.09214  1.0000
  S   S56       1.0  0.00960  0.94557  0.04257  1.0000
  S   S57       1.0  0.18201  0.51323  0.46975  1.0000
  C   C353      1.0  0.06243  0.58398  0.99960  1.0000
  C   C354      1.0  0.00786  0.96695  0.00683  1.0000
  H   H286      1.0  0.01057  0.67803  0.26112  1.0000
  C   C355      1.0  0.04367  0.59549  0.09054  1.0000
  C   C356      1.0  0.02330  0.59522  0.10426  1.0000
  P   P12       1.0  0.04994  0.63629  0.07232  1.0000
  C   C357      1.0  0.07409  0.66523  0.10408  1.0000
  C   C358      1.0  0.06487  0.62311  0.04389  1.0000
  C   C359      1.0  0.09023  0.63938  0.04409  1.0000
  C   C360      1.0  0.10214  0.62697  0.02298  1.0000
  C   C361      1.0  0.07623  0.92581  0.30168  1.0000
  H   H287      1.0  0.03110  0.58306  0.02041  1.0000
  C   C362      1.0  0.05080  0.59577  0.02111  1.0000
  C   C363      1.0  0.06392  0.69669  0.11409  1.0000
  C   C364      1.0  0.08307  0.72018  0.13719  1.0000
  C   C365      1.0  0.11228  0.71203  0.15103  1.0000
  C   C366      1.0  0.12231  0.67987  0.14252  1.0000
  C   C367      1.0  0.10327  0.65626  0.11938  1.0000
  C   C368      1.0  0.01744  0.66039  0.04935  1.0000
  S   S58       1.0  0.04197  0.85738  0.18476  1.0000
  C   C369      1.0  0.16105  0.74271  0.99433  1.0000
  H   H288      1.0  0.29544  0.97583  0.07957  1.0000
  C   C370      1.0  0.28847  0.66076  0.07185  1.0000
  C   C371      1.0  0.01969  0.69622  0.03996  1.0000
  C   C372      1.0  0.99864  0.61808  0.37126  1.0000
  C   C373      1.0  0.08204  0.92966  0.33393  1.0000
  H   H289      1.0  0.10114  0.66127  0.06064  1.0000
  C   C374      1.0  0.24881  0.88296  0.17129  1.0000
  H   H290      1.0  0.21102  0.96031  0.19838  1.0000
  H   H291      1.0  0.00162  0.56322  0.12742  1.0000
  C   C375      1.0  0.27366  0.89169  0.09345  1.0000
  H   H292      1.0  0.04138  0.70370  0.10384  1.0000
  H   H293      1.0  0.07538  0.74521  0.14390  1.0000
  H   H294      1.0  0.12723  0.73095  0.16798  1.0000
  H   H295      1.0  0.14497  0.67359  0.15366  1.0000
  H   H296      1.0  0.11152  0.63149  0.11302  1.0000
  C   C376      1.0  0.02102  0.53930  0.29483  1.0000
  C   C377      1.0  0.00959  0.57145  0.30192  1.0000
  H   H297      1.0  0.04697  0.63288  0.27722  1.0000
  H   H298      1.0  0.00286  0.56744  0.18382  1.0000
  H   H299      1.0  0.04061  0.70928  0.04648  1.0000
  C   C378      1.0  0.24789  0.63249  0.02915  1.0000
  H   H300      1.0  0.21202  0.84955  0.16682  1.0000
  C   C379      1.0  0.29664  0.67816  0.04972  1.0000
  H   H301      1.0  0.98977  0.80702  0.27748  1.0000
  H   H302      1.0  0.04727  0.82795  0.01290  1.0000
  H   H303      1.0  0.22255  0.91866  0.09421  1.0000
  Fe  Fe31      1.0  0.11851  0.51195  0.35046  1.0000
  H   H304      1.0  0.01123  0.63052  0.30137  1.0000
  C   C380      1.0  0.30276  0.96848  0.26039  1.0000
  C   C381      1.0  0.04874  0.98151  0.29146  1.0000
  H   H305      1.0  0.23175  0.76959  0.02327  1.0000
  C   C382      1.0  0.05943  0.95157  0.28042  1.0000
  H   H306      1.0  0.99687  0.74447  0.01783  1.0000
  H   H307      1.0  0.28863  0.81043  0.05918  1.0000
  C   C383      1.0  0.99436  0.77892  0.27365  1.0000
  H   H308      1.0  0.27288  0.75277  0.14823  1.0000
  H   H309      1.0  0.00126  0.69135  0.45847  1.0000
  C   C384      1.0  0.99002  0.64405  0.04028  1.0000
  C   C385      1.0  0.21337  0.52016  0.02238  1.0000
  H   H310      1.0  0.28093  0.86930  0.03485  1.0000
  C   C386      1.0  0.25844  0.86538  0.01931  1.0000
  P   P13       1.0  0.26652  0.98992  0.19993  1.0000
  C   C387      1.0  0.99270  0.87617  0.24988  1.0000
  Fe  Fe32      1.0  0.99638  0.90153  0.39462  1.0000
  C   C388      1.0  0.03465  0.53247  0.11983  1.0000
  H   H311      1.0  0.28343  0.96589  0.26508  1.0000
  C   C389      1.0  0.29494  0.88668  0.12396  1.0000
  H   H312      1.0  0.14325  0.70498  0.01821  1.0000
  Fe  Fe33      1.0  0.01010  0.88848  0.06445  1.0000
  C   C390      1.0  0.27589  0.76520  0.12841  1.0000
  C   C391      1.0  0.01837  0.56362  0.11820  1.0000
  H   H313      1.0  0.12911  0.87224  0.00950  1.0000
  H   H314      1.0  0.08423  0.90243  0.29303  1.0000
  C   C392      1.0  0.20846  0.90468  0.18218  1.0000
  H   H315      1.0  0.07741  0.56432  0.08406  1.0000
  C   C393      1.0  0.26432  0.81267  0.08895  1.0000
  C   C394      1.0  0.28028  0.67298  0.01726  1.0000
  C   C395      1.0  0.01894  0.60531  0.29530  1.0000
  H   H316      1.0  0.18789  0.89948  0.18371  1.0000
  H   H317      1.0  0.28283  0.92206  0.17835  1.0000
  C   C396      1.0  0.02619  0.72731  0.28849  1.0000
  H   H318      1.0  0.22958  0.61388  0.02160  1.0000
  C   C397      1.0  0.06116  0.88159  0.00608  1.0000
  C   C398      1.0  0.21237  0.75548  0.02198  1.0000
  C   C399      1.0  0.25547  0.65056  0.00679  1.0000
  H   H319      1.0  0.04903  0.51592  0.27454  1.0000
  C   C400      1.0  0.99495  0.71616  0.02346  1.0000
  S   S59       1.0  0.00274  0.83319  0.04002  1.0000
  C   C401      1.0  0.20851  0.85362  0.01034  1.0000
  H   H320      1.0  0.25954  0.86092  0.16454  1.0000
  H   H321      1.0  0.25750  0.92915  0.05433  1.0000
  C   C402      1.0  0.02043  0.76366  0.29327  1.0000
  H   H322      1.0  0.31557  0.75573  0.08388  1.0000
  C   C403      1.0  0.28433  0.79774  0.07800  1.0000
  H   H323      1.0  0.99651  0.96969  0.29681  1.0000
  C   C404      1.0  0.18618  0.76149  0.99661  1.0000
  H   H324      1.0  0.05391  0.56583  0.45500  1.0000
  C   C405      1.0  0.31596  0.94595  0.12245  1.0000
  C   C406      1.0  0.00771  0.56898  0.43858  1.0000
  H   H325      1.0  0.30788  0.72673  0.12844  1.0000
  C   C407      1.0  0.26417  0.63782  0.06153  1.0000
  C   C408      1.0  0.16230  0.71914  0.01868  1.0000
  C   C409      1.0  0.00582  0.70611  0.26429  1.0000
  C   C410      1.0  0.03349  0.50006  0.38915  1.0000
  S   S60       1.0  0.99185  0.84537  0.41192  1.0000
  H   H326      1.0  0.05260  0.73961  0.00481  1.0000
  H   H327      1.0  0.31591  0.69514  0.05773  1.0000
  H   H328      1.0  0.23182  0.50254  0.02885  1.0000
  H   H329      1.0  0.98752  0.73369  0.09630  1.0000
  H   H330      1.0  0.24075  0.97386  0.13113  1.0000
  C   C411      1.0  0.31595  0.91379  0.13839  1.0000
  H   H331      1.0  0.98742  0.61624  0.04644  1.0000
  H   H332      1.0  0.09287  0.77007  0.99787  1.0000
  C   C412      1.0  0.30124  0.98061  0.23092  1.0000
  C   C413      1.0  0.98953  0.61568  0.46382  1.0000
  C   C414      1.0  0.04113  0.60762  0.48022  1.0000
  C   C415      1.0  0.19012  0.51450  0.99295  1.0000
  C   C416      1.0  0.04670  0.84821  0.99575  1.0000
  C   C417      1.0  0.01803  0.62543  0.48352  1.0000
  H   H333      1.0  0.99595  0.75331  0.43730  1.0000
  C   C418      1.0  0.99263  0.62422  0.17408  1.0000
  H   H334      1.0  0.07042  0.93442  0.99212  1.0000
  C   C419      1.0  0.12946  0.58847  0.66701  1.0000
  H   H335      1.0  0.03409  0.67951  0.97869  1.0000
  H   H336      1.0  0.04428  0.83245  0.86691  1.0000
  Fe  Fe34      1.0  0.25611  0.84667  0.88999  1.0000
  S   S61       1.0  0.27660  0.90330  0.90256  1.0000
  S   S62       1.0  0.20998  0.83343  0.88608  1.0000
  Fe  Fe35      1.0  0.30468  0.88558  0.87641  1.0000
  H   H337      1.0  0.99053  0.61250  0.74686  1.0000
  C   C420      1.0  0.04583  0.52185  0.73592  1.0000
  C   C421      1.0  0.25042  0.86949  0.98676  1.0000
  S   S63       1.0  0.28169  0.83109  0.86088  1.0000
  S   S64       1.0  0.28857  0.82262  0.93442  1.0000
  Fe  Fe36      1.0  0.04646  0.75290  0.78750  1.0000
  S   S65       1.0  0.03059  0.76040  0.82652  1.0000
  S   S66       1.0  0.08740  0.77669  0.78415  1.0000
  H   H338      1.0  0.10038  0.62803  0.67219  1.0000
  Fe  Fe37      1.0  0.02167  0.69963  0.82074  1.0000
  S   S67       1.0  0.03635  0.66162  0.86256  1.0000
  S   S68       1.0  0.04002  0.69190  0.78384  1.0000
  H   H339      1.0  0.08467  0.71630  0.84686  1.0000
  C   C422      1.0  0.05036  0.87293  0.75226  1.0000
  C   C423      1.0  0.28777  0.57040  0.94340  1.0000
  H   H340      1.0  0.00279  0.93019  0.62365  1.0000
  C   C424      1.0  0.03061  0.84144  0.96351  1.0000
  H   H341      1.0  0.23571  0.72059  0.97492  1.0000
  H   H342      1.0  0.05179  0.56237  0.98247  1.0000
  C   C425      1.0  0.02295  0.74955  0.89900  1.0000
  C   C426      1.0  0.04461  0.90099  0.95166  1.0000
  C   C427      1.0  0.00542  0.95290  0.64002  1.0000
  C   C428      1.0  0.12863  0.81930  0.98808  1.0000
  C   C429      1.0  0.06715  0.54911  0.74362  1.0000
  C   C430      1.0  0.05245  0.91681  0.84162  1.0000
  H   H343      1.0  0.17554  0.72795  0.94218  1.0000
  C   C431      1.0  0.04636  0.61897  0.85196  1.0000
  C   C432      1.0  0.03690  0.60833  0.82012  1.0000
  C   C433      1.0  0.04744  0.57649  0.81140  1.0000
  C   C434      1.0  0.06788  0.55525  0.83439  1.0000
  C   C435      1.0  0.07598  0.56448  0.86649  1.0000
  C   C436      1.0  0.06488  0.59613  0.87522  1.0000
  H   H344      1.0  0.02159  0.62481  0.80210  1.0000
  H   H345      1.0  0.04022  0.56891  0.78660  1.0000
  H   H346      1.0  0.09117  0.54768  0.88443  1.0000
  H   H347      1.0  0.07113  0.60345  0.89988  1.0000
  C   C437      1.0  0.01735  0.92355  0.74333  1.0000
  C   C438      1.0  0.23693  0.73873  0.90314  1.0000
  H   H348      1.0  0.01841  0.81610  0.95636  1.0000
  P   P14       1.0  0.23554  0.64134  0.96509  1.0000
  H   H349      1.0  0.18238  0.62505  0.82912  1.0000
  C   C439      1.0  0.00545  0.94676  0.67006  1.0000
  C   C440      1.0  0.11376  0.61564  0.77355  1.0000
  H   H350      1.0  0.14786  0.90751  0.65768  1.0000
  H   H351      1.0  0.21545  0.87015  0.94100  1.0000
  C   C441      1.0  0.17635  0.81665  0.85743  1.0000
  C   C442      1.0  0.17204  0.80868  0.82598  1.0000
  C   C443      1.0  0.14479  0.79626  0.80409  1.0000
  C   C444      1.0  0.12151  0.79129  0.81328  1.0000
  C   C445      1.0  0.12583  0.79916  0.84477  1.0000
  C   C446      1.0  0.15307  0.81162  0.86667  1.0000
  H   H352      1.0  0.18961  0.81247  0.81841  1.0000
  H   H353      1.0  0.14172  0.79054  0.77979  1.0000
  H   H354      1.0  0.10812  0.79594  0.85215  1.0000
  H   H355      1.0  0.15609  0.81765  0.89091  1.0000
  H   H356      1.0  0.26653  0.87607  0.97747  1.0000
  H   H357      1.0  0.15595  0.61531  0.77161  1.0000
  H   H358      1.0  0.99315  0.91961  0.97650  1.0000
  H   H359      1.0  0.13129  0.70537  0.84296  1.0000
  C   C447      1.0  0.09808  0.72772  0.96688  1.0000
  S   S69       1.0  0.00233  0.76227  0.74937  1.0000
  H   H360      1.0  0.26829  0.94808  0.65989  1.0000
  H   H361      1.0  0.19777  0.90369  0.69828  1.0000
  C   C448      1.0  0.15491  0.64435  0.96591  1.0000
  C   C449      1.0  0.04501  0.70260  0.70768  1.0000
  C   C450      1.0  0.00883  0.97620  0.69129  1.0000
  C   C451      1.0  0.23640  0.71535  0.95197  1.0000
  C   C452      1.0  0.25104  0.60035  0.95662  1.0000
  H   H362      1.0  0.12824  0.59908  0.64462  1.0000
  H   H363      1.0  0.03789  0.64689  0.71632  1.0000
  S   S70       1.0  0.08335  0.51852  0.82165  1.0000
  C   C453      1.0  0.26275  0.96097  0.58470  1.0000
  H   H364      1.0  0.14491  0.65575  0.98083  1.0000
  H   H365      1.0  0.04057  0.73122  0.91012  1.0000
  C   C454      1.0  0.24479  0.99128  0.57706  1.0000
  C   C455      1.0  0.09888  0.62089  0.79336  1.0000
  C   C456      1.0  0.23685  0.70301  0.89193  1.0000
  C   C457      1.0  0.23650  0.67337  0.91067  1.0000
  C   C458      1.0  0.10118  0.68242  0.71796  1.0000
  C   C459      1.0  0.27103  0.94555  0.61455  1.0000
  C   C460      1.0  0.19767  0.63388  0.95535  1.0000
  C   C461      1.0  0.02499  0.88159  0.87627  1.0000
  C   C462      1.0  0.21308  0.95083  0.68169  1.0000
  H   H366      1.0  0.19107  0.59908  0.91437  1.0000
  H   H367      1.0  0.05864  0.75731  0.70320  1.0000
  C   C463      1.0  0.17790  0.98033  0.63609  1.0000
  C   C464      1.0  0.01188  0.86988  0.77099  1.0000
  C   C465      1.0  0.06458  0.67625  0.95658  1.0000
  C   C466      1.0  0.25339  0.53404  0.95562  1.0000
  H   H368      1.0  0.04238  0.82711  0.77662  1.0000
  H   H369      1.0  0.03916  0.59868  0.67630  1.0000
  H   H370      1.0  0.04355  0.92234  0.93528  1.0000
  H   H371      1.0  0.12332  0.67532  0.72306  1.0000
  C   C467      1.0  0.12477  0.85710  0.98758  1.0000
  C   C468      1.0  0.06011  0.90798  0.98404  1.0000
  C   C469      1.0  0.19211  0.92534  0.68111  1.0000
  C   C470      1.0  0.16404  0.92742  0.65819  1.0000
  C   C471      1.0  0.02672  0.78719  0.90505  1.0000
  C   C472      1.0  0.00833  0.50714  0.84580  1.0000
  P   P15       1.0  0.00684  0.96903  0.72917  1.0000
  C   C473      1.0  0.99678  0.96667  0.94991  1.0000
  H   H372      1.0  0.00817  0.99335  0.60749  1.0000
  H   H373      1.0  0.98728  0.59226  0.52193  1.0000
  C   C474      1.0  0.02222  0.52238  0.70691  1.0000
  C   C475      1.0  0.18419  0.65066  0.97342  1.0000
  C   C476      1.0  0.27520  0.60239  0.94875  1.0000
  H   H374      1.0  0.04760  0.50047  0.75262  1.0000
  H   H375      1.0  0.06297  0.93032  0.82812  1.0000
  H   H376      1.0  0.08557  0.54784  0.76596  1.0000
  C   C477      1.0  0.04116  0.57755  0.69325  1.0000
  H   H377      1.0  0.23722  0.76169  0.88859  1.0000
  Fe  Fe38      1.0  0.31008  0.87814  0.94572  1.0000
  C   C478      1.0  0.14407  0.62791  0.83882  1.0000
  H   H378      1.0  0.23608  0.77278  0.94126  1.0000
  H   H379      1.0  0.06844  0.86360  0.83681  1.0000
  H   H380      1.0  0.04751  0.79776  0.92116  1.0000
  C   C479      1.0  0.30328  0.89769  0.78553  1.0000
  C   C480      1.0  0.02971  0.86761  0.94106  1.0000
  H   H381      1.0  0.02435  0.50887  0.86988  1.0000
  C   C481      1.0  0.15907  0.62355  0.81916  1.0000
  C   C482      1.0  0.06232  0.72667  0.99012  1.0000
  H   H382      1.0  0.05634  0.65023  0.94476  1.0000
  H   H383      1.0  0.17661  0.71057  0.89097  1.0000
  C   C483      1.0  0.22158  0.86599  0.96609  1.0000
  H   H384      1.0  0.07556  0.62081  0.78351  1.0000
  C   C484      1.0  0.05192  0.69284  0.97542  1.0000
  H   H385      1.0  0.28457  0.92168  0.62036  1.0000
  C   C485      1.0  0.00368  0.81088  0.89044  1.0000
  H   H386      1.0  0.28632  0.88330  0.73564  1.0000
  H   H387      1.0  0.13309  0.54906  0.74639  1.0000
  H   H388      1.0  0.22319  0.56347  0.96874  1.0000
  H   H389      1.0  0.15570  0.63294  0.86394  1.0000
  H   H390      1.0  0.10226  0.63046  0.84106  1.0000
  C   C486      1.0  0.10438  0.71898  0.86786  1.0000
  C   C487      1.0  0.23645  0.74491  0.93302  1.0000
  C   C488      1.0  0.02199  0.91938  0.87122  1.0000
  C   C489      1.0  0.13883  0.62188  0.94003  1.0000
  H   H391      1.0  0.06889  0.86051  0.74994  1.0000
  C   C490      1.0  0.05553  0.87921  0.84653  1.0000
  C   C491      1.0  0.15620  0.71551  0.89276  1.0000
  C   C492      1.0  0.13071  0.71229  0.86575  1.0000
  C   C493      1.0  0.10353  0.73019  0.89669  1.0000
  C   C494      1.0  0.12907  0.73382  0.92407  1.0000
  C   C495      1.0  0.15544  0.72596  0.92184  1.0000
  P   P16       1.0  0.12755  0.75035  0.96088  1.0000
  H   H392      1.0  0.13531  0.95601  0.61750  1.0000
  C   C496      1.0  0.12250  0.79929  0.95972  1.0000
  H   H393      1.0  0.28643  0.51143  0.94251  1.0000
  H   H394      1.0  0.99491  0.59797  0.57831  1.0000
  C   C497      1.0  0.11524  0.87537  0.95886  1.0000
  C   C498      1.0  0.10959  0.85583  0.93062  1.0000
  C   C499      1.0  0.11308  0.81794  0.93095  1.0000
  C   C500      1.0  0.04175  0.86159  0.86364  1.0000
  C   C501      1.0  0.14399  0.61767  0.78656  1.0000
  C   C502      1.0  0.27673  0.53624  0.94662  1.0000
  C   C503      1.0  0.04144  0.90771  0.74037  1.0000
  C   C504      1.0  0.11391  0.60505  0.68287  1.0000
  C   C505      1.0  0.03570  0.93688  0.85400  1.0000
  C   C506      1.0  0.08772  0.69339  0.95258  1.0000
  C   C507      1.0  0.26190  0.96082  0.63701  1.0000
  C   C508      1.0  0.09292  0.71886  0.71202  1.0000
  H   H395      1.0  0.05343  0.92228  0.72904  1.0000
  C   C509      1.0  0.20065  0.85775  0.97780  1.0000
  C   C510      1.0  0.00842  0.98843  0.63086  1.0000
  H   H396      1.0  0.08288  0.73628  0.89742  1.0000
  H   H397      1.0  0.27027  0.94934  0.56750  1.0000
  C   C511      1.0  0.23698  0.67936  0.94116  1.0000
  C   C512      1.0  0.08530  0.74403  0.98597  1.0000
  H   H398      1.0  0.11226  0.90469  0.95846  1.0000
  H   H399      1.0  0.10265  0.87015  0.90843  1.0000
  H   H400      1.0  0.10863  0.80359  0.90873  1.0000
  H   H401      1.0  0.23582  0.64591  0.90128  1.0000
  C   C513      1.0  0.15190  0.60584  0.92141  1.0000
  H   H402      1.0  0.09699  0.68000  0.93772  1.0000
  C   C514      1.0  0.15697  0.95480  0.63560  1.0000
  C   C515      1.0  0.14628  0.55794  0.67976  1.0000
  H   H403      1.0  0.23709  0.69844  0.86866  1.0000
  C   C516      1.0  0.03545  0.85398  0.76736  1.0000
  C   C517      1.0  0.00304  0.90473  0.75942  1.0000
  H   H404      1.0  0.13944  0.58806  0.90151  1.0000
  C   C518      1.0  0.08131  0.65571  0.71858  1.0000
  C   C519      1.0  0.11398  0.62666  0.82593  1.0000
  C   C520      1.0  0.05327  0.66623  0.71404  1.0000
  H   H405      1.0  0.10849  0.73955  0.71239  1.0000
  H   H406      1.0  0.30921  0.60223  0.60244  1.0000
  C   C521      1.0  0.24083  0.56592  0.96103  1.0000
  P   P17       1.0  0.09376  0.61037  0.73142  1.0000
  C   C522      1.0  0.06480  0.57741  0.72255  1.0000
  C   C523      1.0  0.11549  0.59146  0.71192  1.0000
  H   H407      1.0  0.17829  0.85506  0.96155  1.0000
  H   H408      1.0  0.99386  0.70630  0.87303  1.0000
  C   C524      1.0  0.18121  0.61198  0.92891  1.0000
  C   C525      1.0  0.14758  0.54393  0.70842  1.0000
  C   C526      1.0  0.13220  0.56055  0.72441  1.0000
  H   H409      1.0  0.24501  0.50758  0.95864  1.0000
  H   H410      1.0  0.31315  0.97011  0.98021  1.0000
  H   H411      1.0  0.02341  0.71062  0.70436  1.0000
  H   H412      1.0  0.09756  0.58949  0.98456  1.0000
  H   H413      1.0  0.30620  0.57208  0.93697  1.0000
  H   H414      1.0  0.23491  0.94804  0.69912  1.0000
  C   C527      1.0  0.16646  0.53760  0.98494  1.0000
  C   C528      1.0  0.20594  0.97902  0.65959  1.0000
  H   H415      1.0  0.00240  0.91916  0.67641  1.0000
  C   C529      1.0  0.06483  0.72892  0.70687  1.0000
  H   H416      1.0  0.11643  0.61625  0.93487  1.0000
  H   H417      1.0  0.28649  0.88323  0.78988  1.0000
  C   C530      1.0  0.31772  0.58910  0.56113  1.0000
  H   H418      1.0  0.00068  0.85528  0.78316  1.0000
  H   H419      1.0  0.00934  0.93547  0.88093  1.0000
  P   P18       1.0  0.00792  0.85939  0.89939  1.0000
  H   H420      1.0  0.15815  0.54497  0.66734  1.0000
  H   H421      1.0  0.28441  0.62862  0.94684  1.0000
  H   H422      1.0  0.02241  0.64711  0.50120  1.0000
  H   H423      1.0  0.00108  0.55100  0.66345  1.0000
  H   H424      1.0  0.00552  0.50147  0.70106  1.0000
  H   H425      1.0  0.98905  0.62575  0.97872  1.0000
  C   C531      1.0  0.99649  0.73537  0.87792  1.0000
  H   H426      1.0  0.99570  0.61820  0.92826  1.0000
  C   C532      1.0  0.01980  0.55031  0.68564  1.0000
  H   H427      1.0  0.14845  0.53373  0.96242  1.0000
  H   H428      1.0  0.18558  0.78037  0.97843  1.0000
  H   H429      1.0  0.03350  0.96608  0.85053  1.0000
  H   H430      1.0  0.98938  0.95188  0.92753  1.0000
  Fe  Fe39      1.0  0.99475  0.70154  0.74939  1.0000
  H   H431      1.0  0.29973  0.56996  0.55136  1.0000
  C   C533      1.0  0.99880  0.94824  0.97763  1.0000
  Fe  Fe40      1.0  0.31540  0.81121  0.90654  1.0000
  H   H432      1.0  0.16037  0.52001  0.71813  1.0000
  C   C534      1.0  0.24491  0.99224  0.63006  1.0000
  C   C535      1.0  0.30320  0.89790  0.75471  1.0000
  H   H433      1.0  0.00708  0.99430  0.78992  1.0000
  H   H434      1.0  0.06309  0.61575  0.49502  1.0000
  C   C536      1.0  0.32953  0.22026  0.16580  1.0000
  Fe  Fe41      1.0  0.37451  0.09066  0.19312  1.0000
  S   S71       1.0  0.42119  0.07966  0.22094  1.0000
  Fe  Fe42      1.0  0.37582  0.05440  0.13230  1.0000
  S   S72       1.0  0.42298  0.04139  0.15632  1.0000
  Fe  Fe43      1.0  0.41164  0.02442  0.19688  1.0000
  Fe  Fe44      1.0  0.42856  0.09843  0.17827  1.0000
  S   S73       1.0  0.46864  0.13444  0.18797  1.0000
  S   S74       1.0  0.61614  0.03355  0.43947  1.0000
  C   C537      1.0  0.64446  0.43762  0.39441  1.0000
  Fe  Fe45      1.0  0.61809  0.09159  0.42473  1.0000
  S   S75       1.0  0.58238  0.13345  0.41422  1.0000
  H   H435      1.0  0.57940  0.13592  0.16814  1.0000
  Fe  Fe46      1.0  0.55468  0.32729  0.46987  1.0000
  S   S76       1.0  0.51279  0.31244  0.43061  1.0000
  H   H436      1.0  0.55274  0.40461  0.38151  1.0000
  C   C538      1.0  0.33944  0.11351  0.24663  1.0000
  S   S77       1.0  0.48584  0.38628  0.44993  1.0000
  H   H437      1.0  0.42426  0.01501  0.05555  1.0000
  Fe  Fe47      1.0  0.49287  0.32741  0.46477  1.0000
  S   S78       1.0  0.46604  0.28288  0.47433  1.0000
  Fe  Fe48      1.0  0.50996  0.37193  0.41887  1.0000
  S   S79       1.0  0.49261  0.38385  0.36602  1.0000
  C   C539      1.0  0.64323  0.33895  0.46612  1.0000
  S   S80       1.0  0.55349  0.38652  0.45644  1.0000
  Fe  Fe49      1.0  0.58188  0.36441  0.18933  1.0000
  S   S81       1.0  0.54190  0.36435  0.14385  1.0000
  S   S82       1.0  0.62833  0.35172  0.19777  1.0000
  Fe  Fe50      1.0  0.55127  0.39745  0.22900  1.0000
  S   S83       1.0  0.50963  0.40053  0.18663  1.0000
  S   S84       1.0  0.56204  0.41820  0.27965  1.0000
  Fe  Fe51      1.0  0.51950  0.34345  0.17472  1.0000
  S   S85       1.0  0.48112  0.30331  0.16007  1.0000
  Fe  Fe52      1.0  0.53497  0.42142  0.15893  1.0000
  S   S86       1.0  0.51749  0.47273  0.12830  1.0000
  S   S87       1.0  0.56013  0.33962  0.21876  1.0000
  S   S88       1.0  0.57609  0.42227  0.20272  1.0000
  C   C540      1.0  0.60668  0.31891  0.38651  1.0000
  H   H438      1.0  0.32987  0.04125  0.28759  1.0000
  H   H439      1.0  0.41060  0.24882  0.19837  1.0000
  C   C541      1.0  0.51286  0.39127  0.34261  1.0000
  C   C542      1.0  0.54190  0.40194  0.35605  1.0000
  C   C543      1.0  0.55668  0.40986  0.33643  1.0000
  C   C544      1.0  0.54272  0.40679  0.30326  1.0000
  C   C545      1.0  0.51378  0.39579  0.28983  1.0000
  C   C546      1.0  0.49892  0.38828  0.30943  1.0000
  H   H440      1.0  0.38715  0.23637  0.23546  1.0000
  C   C547      1.0  0.64960  0.42025  0.27225  1.0000
  H   H441      1.0  0.50268  0.39374  0.26433  1.0000
  H   H442      1.0  0.47635  0.38053  0.29881  1.0000
  H   H443      1.0  0.37974  0.20497  0.43196  1.0000
  S   S89       1.0  0.36412  0.03405  0.17174  1.0000
  C   C548      1.0  0.44470  0.47547  0.30392  1.0000
  C   C549      1.0  0.59067  0.24703  0.46241  1.0000
  C   C550      1.0  0.56557  0.23613  0.43677  1.0000
  C   C551      1.0  0.56359  0.20146  0.42232  1.0000
  C   C552      1.0  0.58662  0.17709  0.43318  1.0000
  C   C553      1.0  0.61194  0.18800  0.45864  1.0000
  C   C554      1.0  0.61032  0.15798  0.08886  1.0000
  H   H444      1.0  0.54763  0.25438  0.42786  1.0000
  H   H445      1.0  0.54416  0.19370  0.40224  1.0000
  C   C555      1.0  0.58321  0.15664  0.06387  1.0000
  C   C556      1.0  0.63407  0.40875  0.28985  1.0000
  C   C557      1.0  0.47159  0.18133  0.17973  1.0000
  C   C558      1.0  0.49916  0.19730  0.18838  1.0000
  C   C559      1.0  0.50257  0.23452  0.18263  1.0000
  C   C560      1.0  0.47840  0.25628  0.16822  1.0000
  C   C561      1.0  0.45087  0.24024  0.15953  1.0000
  C   C562      1.0  0.44742  0.20307  0.16527  1.0000
  H   H446      1.0  0.51801  0.18070  0.19939  1.0000
  H   H447      1.0  0.52381  0.24637  0.18902  1.0000
  H   H448      1.0  0.43209  0.25677  0.14805  1.0000
  H   H449      1.0  0.42609  0.19118  0.15832  1.0000
  C   C563      1.0  0.62573  0.24596  0.16808  1.0000
  C   C564      1.0  0.61726  0.28062  0.17457  1.0000
  C   C565      1.0  0.63809  0.30744  0.19013  1.0000
  S   S90       1.0  0.63109  0.07342  0.38538  1.0000
  H   H450      1.0  0.60952  0.22570  0.15511  1.0000
  H   H451      1.0  0.59464  0.28682  0.16692  1.0000
  H   H452      1.0  0.56473  0.16749  0.06732  1.0000
  C   C566      1.0  0.37141  0.25831  0.41145  1.0000
  C   C567      1.0  0.38360  0.29247  0.40991  1.0000
  C   C568      1.0  0.41296  0.30001  0.42808  1.0000
  C   C569      1.0  0.43018  0.27339  0.44797  1.0000
  C   C570      1.0  0.41814  0.23888  0.44853  1.0000
  C   C571      1.0  0.38886  0.23138  0.43056  1.0000
  H   H453      1.0  0.37018  0.31343  0.39513  1.0000
  H   H454      1.0  0.42201  0.32672  0.42743  1.0000
  H   H455      1.0  0.43144  0.21784  0.46300  1.0000
  H   H456      1.0  0.33599  0.21698  0.21523  1.0000
  H   H457      1.0  0.34791  0.05616  0.24590  1.0000
  C   C572      1.0  0.40159  0.05225  0.31685  1.0000
  H   H458      1.0  0.64397  0.05271  0.02164  1.0000
  H   H459      1.0  0.57903  0.41841  0.34700  1.0000
  H   H460      1.0  0.44452  0.41163  0.17984  1.0000
  C   C573      1.0  0.41937  0.03385  0.30483  1.0000
  H   H461      1.0  0.42874  0.46328  0.31124  1.0000
  C   C574      1.0  0.60093  0.15924  0.34394  1.0000
  H   H462      1.0  0.32636  0.14740  0.14203  1.0000
  C   C575      1.0  0.60389  0.12754  0.02991  1.0000
  C   C576      1.0  0.61696  0.25467  0.39609  1.0000
  C   C577      1.0  0.45109  0.49259  0.14777  1.0000
  H   H463      1.0  0.50383  0.00942  0.27667  1.0000
  H   H464      1.0  0.38258  0.24257  0.14048  1.0000
  C   C578      1.0  0.51438  0.12767  0.29362  1.0000
  C   C579      1.0  0.52311  0.12078  0.32589  1.0000
  C   C580      1.0  0.53908  0.08968  0.33866  1.0000
  C   C581      1.0  0.54693  0.06594  0.31938  1.0000
  C   C582      1.0  0.53864  0.07299  0.28701  1.0000
  C   C583      1.0  0.52200  0.10385  0.27419  1.0000
  P   P19       1.0  0.55038  0.04284  0.26301  1.0000
  C   C584      1.0  0.58808  0.05102  0.27132  1.0000
  C   C585      1.0  0.57599  0.18915  0.18692  1.0000
  C   C586      1.0  0.36032  0.22121  0.30012  1.0000
  C   C587      1.0  0.59968  0.03809  0.24995  1.0000
  C   C588      1.0  0.59891  0.19668  0.24416  1.0000
  H   H465      1.0  0.48974  0.06917  0.13148  1.0000
  C   C589      1.0  0.37225  0.23743  0.15672  1.0000
  C   C590      1.0  0.57990  0.14115  0.03456  1.0000
  H   H466      1.0  0.50679  0.99962  0.21081  1.0000
  C   C591      1.0  0.32875  0.00189  0.02416  1.0000
  C   C592      1.0  0.63462  0.07868  0.30360  1.0000
  C   C593      1.0  0.60580  0.07149  0.29817  1.0000
  C   C594      1.0  0.53091  0.05087  0.22127  1.0000
  C   C595      1.0  0.53619  0.08307  0.20810  1.0000
  C   C596      1.0  0.52155  0.08947  0.17578  1.0000
  C   C597      1.0  0.62853  0.04527  0.25548  1.0000
  Fe  Fe53      1.0  0.63416  0.01655  0.40393  1.0000
  H   H467      1.0  0.32134  0.10672  0.09665  1.0000
  H   H468      1.0  0.50157  0.15136  0.28347  1.0000
  H   H469      1.0  0.51759  0.13950  0.34108  1.0000
  H   H470      1.0  0.54585  0.08424  0.36368  1.0000
  H   H471      1.0  0.55982  0.04228  0.32980  1.0000
  H   H472      1.0  0.51461  0.10967  0.24924  1.0000
  H   H473      1.0  0.41620  0.00488  0.29916  1.0000
  C   C598      1.0  0.58295  0.25741  0.27744  1.0000
  C   C599      1.0  0.61047  0.43671  0.41964  1.0000
  C   C600      1.0  0.58986  0.29045  0.29488  1.0000
  C   C601      1.0  0.61810  0.20048  0.31402  1.0000
  C   C602      1.0  0.59794  0.05839  0.99771  1.0000
  C   C603      1.0  0.60769  0.16016  0.24643  1.0000
  C   C604      1.0  0.51120  0.02481  0.20146  1.0000
  C   C605      1.0  0.56867  0.27359  0.36326  1.0000
  H   H474      1.0  0.59761  0.08197  0.31504  1.0000
  H   H475      1.0  0.55103  0.10368  0.22301  1.0000
  H   H476      1.0  0.52468  0.11513  0.16605  1.0000
  H   H477      1.0  0.57800  0.23990  0.21173  1.0000
  C   C606      1.0  0.44924  0.45488  0.15093  1.0000
  H   H478      1.0  0.62066  0.38427  0.28262  1.0000
  C   C607      1.0  0.62325  0.03887  0.01317  1.0000
  C   C608      1.0  0.40522  0.08989  0.32331  1.0000
  C   C609      1.0  0.44116  0.05292  0.29979  1.0000
  C   C610      1.0  0.54936  0.48896  0.09160  1.0000
  H   H479      1.0  0.58119  0.21762  0.37313  1.0000
  H   H480      1.0  0.36003  0.19084  0.36940  1.0000
  C   C611      1.0  0.43615  0.49394  0.27531  1.0000
  C   C612      1.0  0.50199  0.14682  0.41078  1.0000
  C   C613      1.0  0.50115  0.17864  0.42763  1.0000
  C   C614      1.0  0.47976  0.20435  0.41374  1.0000
  C   C615      1.0  0.45907  0.19815  0.38308  1.0000
  C   C616      1.0  0.45926  0.16575  0.36626  1.0000
  C   C617      1.0  0.48112  0.14034  0.38021  1.0000
  P   P20       1.0  0.43239  0.15799  0.32658  1.0000
  C   C618      1.0  0.39951  0.17902  0.32471  1.0000
  C   C619      1.0  0.44397  0.17835  0.29788  1.0000
  C   C620      1.0  0.43117  0.16689  0.26596  1.0000
  C   C621      1.0  0.44005  0.18216  0.24353  1.0000
  C   C622      1.0  0.46132  0.20956  0.25263  1.0000
  C   C623      1.0  0.47380  0.22164  0.28424  1.0000
  C   C624      1.0  0.46524  0.20604  0.30686  1.0000
  C   C625      1.0  0.38401  0.20200  0.29970  1.0000
  C   C626      1.0  0.38802  0.24090  0.18933  1.0000
  H   H481      1.0  0.62151  0.42096  0.32831  1.0000
  C   C627      1.0  0.36666  0.19379  0.34989  1.0000
  C   C628      1.0  0.39052  0.17491  0.34976  1.0000
  C   C629      1.0  0.42704  0.10934  0.31821  1.0000
  S   S91       1.0  0.34878  0.12514  0.21433  1.0000
  C   C630      1.0  0.34416  0.27440  0.47233  1.0000
  C   C631      1.0  0.44508  0.09043  0.30656  1.0000
  H   H482      1.0  0.51912  0.12741  0.42130  1.0000
  H   H483      1.0  0.51743  0.18373  0.45120  1.0000
  H   H484      1.0  0.47923  0.22924  0.42670  1.0000
  H   H485      1.0  0.44287  0.21869  0.37268  1.0000
  H   H486      1.0  0.48218  0.11551  0.36766  1.0000
  H   H487      1.0  0.41418  0.14621  0.25835  1.0000
  H   H488      1.0  0.48046  0.45782  0.34518  1.0000
  H   H489      1.0  0.46805  0.22133  0.23509  1.0000
  H   H490      1.0  0.49011  0.24312  0.29125  1.0000
  H   H491      1.0  0.47512  0.21582  0.33120  1.0000
  H   H492      1.0  0.39021  0.20532  0.27998  1.0000
  S   S92       1.0  0.38226  0.11274  0.15145  1.0000
  H   H493      1.0  0.62983  0.16952  0.46738  1.0000
  H   H494      1.0  0.40221  0.15765  0.36954  1.0000
  C   C632      1.0  0.47391  0.47226  0.32306  1.0000
  H   H495      1.0  0.46198  0.10468  0.30229  1.0000
  S   S93       1.0  0.33859  0.10258  0.47934  1.0000
  H   H496      1.0  0.52241  0.32363  0.27551  1.0000
  H   H497      1.0  0.50977  0.26464  0.24587  1.0000
  C   C633      1.0  0.58363  0.21126  0.21416  1.0000
  H   H498      1.0  0.43042  0.17269  0.21903  1.0000
  P   P21       1.0  0.61100  0.22635  0.27870  1.0000
  S   S94       1.0  0.33629  0.14076  0.40057  1.0000
  S   S95       1.0  0.59346  0.28999  0.48216  1.0000
  C   C634      1.0  0.60055  0.13833  0.21906  1.0000
  H   H499      1.0  0.54782  0.22177  0.24801  1.0000
  H   H500      1.0  0.58641  0.02246  0.22897  1.0000
  H   H501      1.0  0.32858  0.16874  0.25343  1.0000
  H   H502      1.0  0.62066  0.14876  0.26916  1.0000
  S   S96       1.0  0.34756  0.04315  0.07977  1.0000
  C   C635      1.0  0.34562  0.22326  0.19861  1.0000
  C   C636      1.0  0.58459  0.15274  0.18934  1.0000
  H   H503      1.0  0.34835  0.28540  0.45279  1.0000
  C   C637      1.0  0.34002  0.07757  0.25670  1.0000
  C   C638      1.0  0.58833  0.24593  0.37681  1.0000
  C   C639      1.0  0.63355  0.42113  0.41468  1.0000
  C   C640      1.0  0.65048  0.46263  0.32414  1.0000
  H   H504      1.0  0.61200  0.29798  0.30885  1.0000
  H   H505      1.0  0.61338  0.34733  0.38967  1.0000
  S   S97       1.0  0.33407  0.25070  0.39063  1.0000
  H   H506      1.0  0.57359  0.34038  0.30661  1.0000
  C   C641      1.0  0.56811  0.31433  0.29402  1.0000
  H   H507      1.0  0.60782  0.11041  0.22080  1.0000
  C   C642      1.0  0.63413  0.14349  0.08469  1.0000
  H   H508      1.0  0.63818  0.17152  0.00716  1.0000
  C   C643      1.0  0.63093  0.12809  0.05540  1.0000
  C   C644      1.0  0.62687  0.16402  0.37023  1.0000
  H   H509      1.0  0.45472  0.03866  0.29012  1.0000
  C   C645      1.0  0.35169  0.21714  0.32528  1.0000
  C   C646      1.0  0.53213  0.27158  0.25993  1.0000
  H   H510      1.0  0.51730  0.48328  0.32789  1.0000
  C   C647      1.0  0.53925  0.30491  0.27654  1.0000
  C   C648      1.0  0.55384  0.24768  0.26069  1.0000
  H   H511      1.0  0.63131  0.23268  0.40721  1.0000
  C   C649      1.0  0.59655  0.17727  0.31583  1.0000
  C   C650      1.0  0.34270  0.00148  0.05743  1.0000
  C   C651      1.0  0.50171  0.06364  0.15631  1.0000
  H   H512      1.0  0.39068  0.10352  0.33186  1.0000
  H   H513      1.0  0.62385  0.30055  0.26211  1.0000
  P   P22       1.0  0.64902  0.49210  0.35531  1.0000
  H   H514      1.0  0.38462  0.03752  0.32071  1.0000
  H   H515      1.0  0.55865  0.13961  0.01568  1.0000
  Fe  Fe54      1.0  0.52979  0.39771  0.48879  1.0000
  C   C652      1.0  0.64862  0.18623  0.36835  1.0000
  H   H516      1.0  0.54630  0.26680  0.34908  1.0000
  H   H517      1.0  0.33132  0.22470  0.11958  1.0000
  C   C653      1.0  0.57780  0.31007  0.36832  1.0000
  H   H518      1.0  0.57619  0.17359  0.29573  1.0000
  H   H519      1.0  0.58419  0.14186  0.34567  1.0000
  H   H520      1.0  0.63009  0.15079  0.39228  1.0000
  H   H521      1.0  0.64828  0.09416  0.32456  1.0000
  C   C654      1.0  0.63259  0.47001  0.37908  1.0000
  C   C655      1.0  0.32949  0.14099  0.26133  1.0000
  H   H522      1.0  0.64317  0.39649  0.42678  1.0000
  C   C656      1.0  0.37473  0.23384  0.21023  1.0000
  H   H523      1.0  0.61295  0.16995  0.11161  1.0000
  H   H524      1.0  0.45103  0.43639  0.13312  1.0000
  H   H525      1.0  0.56404  0.20059  0.16387  1.0000
  H   H526      1.0  0.64957  0.11649  0.05275  1.0000
  H   H527      1.0  0.44223  0.45327  0.22148  1.0000
  H   H528      1.0  0.56212  0.46526  0.10179  1.0000
  C   C657      1.0  0.63456  0.42976  0.31579  1.0000
  C   C658      1.0  0.32979  0.06921  0.28039  1.0000
  H   H529      1.0  0.60183  0.42380  0.43520  1.0000
  C   C659      1.0  0.31982  0.13277  0.28548  1.0000
  C   C660      1.0  0.49673  0.03119  0.16910  1.0000
  C   C661      1.0  0.62648  0.29127  0.40094  1.0000
  H   H530      1.0  0.64855  0.40437  0.25168  1.0000
  H   H531      1.0  0.33344  0.23206  0.32589  1.0000
  H   H532      1.0  0.56238  0.33144  0.35799  1.0000
  C   C662      1.0  0.64327  0.24813  0.27889  1.0000
  C   C663      1.0  0.62203  0.00125  0.01742  1.0000
  H   H533      1.0  0.34858  0.23913  0.28093  1.0000
  C   C664      1.0  0.49465  0.48694  0.31341  1.0000
  C   C665      1.0  0.64413  0.20507  0.34064  1.0000
  C   C666      1.0  0.61386  0.22275  0.47323  1.0000
  H   H534      1.0  0.32187  0.02765  0.01250  1.0000
  C   C667      1.0  0.34317  0.22721  0.14499  1.0000
  H   H535      1.0  0.48120  0.01127  0.15408  1.0000
  C   C668      1.0  0.44570  0.44096  0.17736  1.0000
  H   H536      1.0  0.38983  0.00676  0.99970  1.0000
  H   H537      1.0  0.62168  0.33482  0.44834  1.0000
  C   C669      1.0  0.59859  0.46913  0.40464  1.0000
  H   H538      1.0  0.63745  0.03513  0.23901  1.0000
  C   C670      1.0  0.44453  0.46469  0.20098  1.0000
  C   C671      1.0  0.60979  0.48602  0.38472  1.0000
  C   C672      1.0  0.64335  0.28471  0.27016  1.0000
  C   C673      1.0  0.64594  0.06568  0.28221  1.0000
  C   C674      1.0  0.64956  0.48398  0.09766  1.0000
  H   H539      1.0  0.58074  0.48125  0.40861  1.0000
  H   H540      1.0  0.65136  0.30382  0.35732  1.0000
  C   C675      1.0  0.54333  0.99632  0.27089  1.0000
  H   H541      1.0  0.41339  0.49551  0.26063  1.0000
  C   C676      1.0  0.64457  0.15260  0.99286  1.0000
  P   P23       1.0  0.59997  0.10694  0.99244  1.0000
  H   H542      1.0  0.51929  0.19886  0.68121  1.0000
  H   H543      1.0  0.49956  0.39988  0.58839  1.0000
  H   H544      1.0  0.35951  0.37510  0.77139  1.0000
  Fe  Fe55      1.0  0.53583  0.26421  0.75088  1.0000
  S   S98       1.0  0.52504  0.27252  0.79374  1.0000
  S   S99       1.0  0.56791  0.29605  0.73579  1.0000
  Fe  Fe56      1.0  0.49108  0.20149  0.72618  1.0000
  S   S100      1.0  0.47884  0.20411  0.76798  1.0000
  S   S101      1.0  0.46621  0.16484  0.68422  1.0000
  Fe  Fe57      1.0  0.47784  0.26480  0.76107  1.0000
  S   S102      1.0  0.43920  0.29493  0.76468  1.0000
  Fe  Fe58      1.0  0.52646  0.21092  0.79632  1.0000
  S   S103      1.0  0.55207  0.18473  0.84348  1.0000
  S   S104      1.0  0.48850  0.26183  0.71804  1.0000
  S   S105      1.0  0.53887  0.20300  0.75475  1.0000
  C   C677      1.0  0.34703  0.31539  0.68998  1.0000
  C   C678      1.0  0.35236  0.31279  0.72218  1.0000
  C   C679      1.0  0.38059  0.30645  0.74462  1.0000
  C   C680      1.0  0.40373  0.30143  0.73518  1.0000
  C   C681      1.0  0.39820  0.30295  0.70287  1.0000
  C   C682      1.0  0.37016  0.31023  0.68057  1.0000
  H   H545      1.0  0.33482  0.31633  0.72980  1.0000
  H   H546      1.0  0.38457  0.30535  0.76949  1.0000
  H   H547      1.0  0.41567  0.29938  0.69517  1.0000
  H   H548      1.0  0.36641  0.31241  0.65583  1.0000
  C   C683      1.0  0.43537  0.28651  0.63979  1.0000
  C   C684      1.0  0.63061  0.11849  0.98343  1.0000
  C   C685      1.0  0.62272  0.31652  0.74174  1.0000
  C   C686      1.0  0.60534  0.30638  0.75800  1.0000
  C   C687      1.0  0.61793  0.30617  0.79115  1.0000
  C   C688      1.0  0.41266  0.19636  0.53613  1.0000
  C   C689      1.0  0.53460  0.22745  0.65003  1.0000
  H   H549      1.0  0.61324  0.31683  0.71621  1.0000
  H   H550      1.0  0.60499  0.29867  0.80417  1.0000
  C   C690      1.0  0.37352  0.07911  0.72401  1.0000
  C   C691      1.0  0.34032  0.38983  0.75730  1.0000
  H   H551      1.0  0.56939  0.47004  0.64087  1.0000
  C   C692      1.0  0.56298  0.22208  0.51808  1.0000
  H   H552      1.0  0.62727  0.06957  0.95508  1.0000
  C   C693      1.0  0.51825  0.20271  0.59643  1.0000
  H   H553      1.0  0.49785  0.44399  0.54689  1.0000
  C   C694      1.0  0.57485  0.06297  0.84909  1.0000
  C   C695      1.0  0.58967  0.08695  0.87438  1.0000
  C   C696      1.0  0.58280  0.12433  0.87227  1.0000
  C   C697      1.0  0.56114  0.13800  0.84482  1.0000
  C   C698      1.0  0.54648  0.11403  0.81945  1.0000
  C   C699      1.0  0.55318  0.07666  0.82170  1.0000
  H   H554      1.0  0.44445  0.20986  0.60245  1.0000
  H   H555      1.0  0.59414  0.14267  0.89207  1.0000
  H   H556      1.0  0.52968  0.12419  0.79828  1.0000
  H   H557      1.0  0.54144  0.05834  0.80208  1.0000
  C   C700      1.0  0.45014  0.04954  0.71120  1.0000
  C   C701      1.0  0.46735  0.07446  0.73458  1.0000
  C   C702      1.0  0.47224  0.10994  0.72646  1.0000
  C   C703      1.0  0.46032  0.12048  0.69484  1.0000
  C   C704      1.0  0.44360  0.09531  0.67134  1.0000
  C   C705      1.0  0.43809  0.06005  0.67953  1.0000
  H   H558      1.0  0.47699  0.06635  0.75907  1.0000
  H   H559      1.0  0.48554  0.12895  0.74468  1.0000
  H   H560      1.0  0.43530  0.10295  0.64678  1.0000
  H   H561      1.0  0.42522  0.04070  0.66131  1.0000
  H   H562      1.0  0.56646  0.01188  0.78148  1.0000
  H   H563      1.0  0.51036  0.29317  0.62801  1.0000
  C   C706      1.0  0.57003  0.00231  0.99186  1.0000
  H   H564      1.0  0.60702  0.06697  0.71573  1.0000
  C   C707      1.0  0.60011  0.38684  0.56541  1.0000
  C   C708      1.0  0.60187  0.40979  0.59079  1.0000
  C   C709      1.0  0.62400  0.40559  0.62074  1.0000
  C   C710      1.0  0.62879  0.49515  0.61954  1.0000
  P   P24       1.0  0.62486  0.43391  0.65376  1.0000
  H   H565      1.0  0.52254  0.24877  0.49400  1.0000
  H   H566      1.0  0.51375  0.01486  0.75175  1.0000
  C   C711      1.0  0.40968  0.16057  0.52370  1.0000
  H   H567      1.0  0.39174  0.14319  0.52231  1.0000
  H   H568      1.0  0.34704  0.25435  0.62621  1.0000
  C   C712      1.0  0.59337  0.42113  0.66100  1.0000
  C   C713      1.0  0.59161  0.38681  0.67338  1.0000
  C   C714      1.0  0.56713  0.37673  0.67867  1.0000
  C   C715      1.0  0.33553  0.06758  0.50472  1.0000
  H   H569      1.0  0.35991  0.07572  0.80132  1.0000
  C   C716      1.0  0.51238  0.47662  0.71003  1.0000
  H   H570      1.0  0.56316  0.32922  0.57906  1.0000
  H   H571      1.0  0.59600  0.47499  0.83494  1.0000
  H   H572      1.0  0.58595  0.43085  0.58702  1.0000
  H   H573      1.0  0.51920  0.27184  0.54307  1.0000
  C   C717      1.0  0.61990  0.35890  0.56984  1.0000
  H   H574      1.0  0.33388  0.19055  0.60679  1.0000
  C   C718      1.0  0.51196  0.46667  0.55889  1.0000
  H   H575      1.0  0.60918  0.36788  0.67908  1.0000
  H   H576      1.0  0.56601  0.35031  0.68853  1.0000
  C   C719      1.0  0.35825  0.03343  0.55406  1.0000
  H   H577      1.0  0.53490  0.20215  0.92877  1.0000
  C   C720      1.0  0.63641  0.45203  0.77258  1.0000
  H   H578      1.0  0.50349  0.43586  0.79722  1.0000
  H   H579      1.0  0.48986  0.15566  0.58612  1.0000
  C   C721      1.0  0.37128  0.40992  0.83503  1.0000
  H   H580      1.0  0.41087  0.43986  0.86039  1.0000
  C   C722      1.0  0.35092  0.09940  0.72642  1.0000
  H   H581      1.0  0.60330  0.19895  0.54808  1.0000
  H   H582      1.0  0.56415  0.21168  0.49644  1.0000
  H   H583      1.0  0.35539  0.40028  0.72031  1.0000
  H   H584      1.0  0.49121  0.15270  0.64044  1.0000
  C   C723      1.0  0.43561  0.21854  0.53649  1.0000
  H   H585      1.0  0.38033  0.07229  0.53619  1.0000
  C   C724      1.0  0.35460  0.37883  0.83442  1.0000
  C   C725      1.0  0.58350  0.22808  0.57531  1.0000
  H   H586      1.0  0.42849  0.39624  0.90454  1.0000
  C   C726      1.0  0.58119  0.45931  0.77266  1.0000
  H   H587      1.0  0.32928  0.23693  0.54275  1.0000
  C   C727      1.0  0.53463  0.22870  0.61947  1.0000
  S   S106      1.0  0.54437  0.44849  0.52292  1.0000
  H   H588      1.0  0.39731  0.31937  0.62412  1.0000
  C   C728      1.0  0.36000  0.23993  0.52091  1.0000
  C   C729      1.0  0.53558  0.47491  0.55127  1.0000
  H   H589      1.0  0.39847  0.34234  0.90463  1.0000
  C   C730      1.0  0.61977  0.09771  0.81912  1.0000
  H   H590      1.0  0.63690  0.39950  0.79335  1.0000
  C   C731      1.0  0.64187  0.35426  0.59967  1.0000
  P   P25       1.0  0.38711  0.21388  0.55124  1.0000
  C   C732      1.0  0.51697  0.31359  0.61541  1.0000
  C   C733      1.0  0.43397  0.23396  0.60654  1.0000
  C   C734      1.0  0.40612  0.24305  0.58540  1.0000
  H   H591      1.0  0.63831  0.21539  0.70207  1.0000
  C   C735      1.0  0.53949  0.24285  0.51675  1.0000
  C   C736      1.0  0.52790  0.01373  0.73910  1.0000
  H   H592      1.0  0.48667  0.48590  0.66057  1.0000
  H   H593      1.0  0.57779  0.00723  0.69314  1.0000
  H   H594      1.0  0.59119  0.07867  0.77304  1.0000
  H   H595      1.0  0.60762  0.12230  0.81816  1.0000
  H   H596      1.0  0.63579  0.08610  0.68565  1.0000
  H   H597      1.0  0.48557  0.35197  0.61743  1.0000
  C   C737      1.0  0.51902  0.20007  0.65752  1.0000
  H   H598      1.0  0.52491  0.39243  0.67472  1.0000
  P   P26       1.0  0.55621  0.26274  0.61032  1.0000
  S   S107      1.0  0.53526  0.33946  0.50531  1.0000
  C   C738      1.0  0.34769  0.11514  0.58211  1.0000
  C   C739      1.0  0.52795  0.15096  0.90310  1.0000
  C   C740      1.0  0.56417  0.00972  0.70625  1.0000
  C   C741      1.0  0.58505  0.21488  0.54728  1.0000
  H   H599      1.0  0.44661  0.30319  0.66084  1.0000
  H   H600      1.0  0.47512  0.37844  0.78565  1.0000
  H   H601      1.0  0.55133  0.05480  0.97705  1.0000
  H   H602      1.0  0.36370  0.42964  0.81628  1.0000
  H   H603      1.0  0.51605  0.44840  0.70581  1.0000
  H   H604      1.0  0.53828  0.38837  0.56928  1.0000
  H   H605      1.0  0.58325  0.39061  0.54222  1.0000
  H   H606      1.0  0.37137  0.28141  0.57652  1.0000
  C   C742      1.0  0.36344  0.07638  0.77954  1.0000
  C   C743      1.0  0.65228  0.32561  0.75815  1.0000
  C   C744      1.0  0.53788  0.25625  0.54467  1.0000
  C   C745      1.0  0.60281  0.23597  0.66186  1.0000
  C   C746      1.0  0.39027  0.05681  0.74872  1.0000
  H   H607      1.0  0.56497  0.07333  0.93070  1.0000
  C   C747      1.0  0.65064  0.03387  0.82199  1.0000
  C   C748      1.0  0.55997  0.24909  0.57420  1.0000
  C   C749      1.0  0.38515  0.05528  0.77641  1.0000
  H   H608      1.0  0.34770  0.24626  0.78789  1.0000
  H   H609      1.0  0.39832  0.03810  0.79558  1.0000
  C   C750      1.0  0.42969  0.14697  0.51236  1.0000
  C   C751      1.0  0.56988  0.12318  0.95867  1.0000
  H   H610      1.0  0.47270  0.22251  0.52458  1.0000
  H   H611      1.0  0.37847  0.08068  0.70311  1.0000
  H   H612      1.0  0.59043  0.21087  0.65858  1.0000
  S   S108      1.0  0.58289  0.01591  0.85048  1.0000
  C   C752      1.0  0.35765  0.16316  0.69614  1.0000
  C   C753      1.0  0.36980  0.18636  0.72285  1.0000
  C   C754      1.0  0.39314  0.20922  0.72620  1.0000
  C   C755      1.0  0.40439  0.20926  0.70288  1.0000
  C   C756      1.0  0.39233  0.18636  0.67618  1.0000
  C   C757      1.0  0.36912  0.16319  0.67287  1.0000
  C   C758      1.0  0.56953  0.44430  0.65223  1.0000
  C   C759      1.0  0.50278  0.34703  0.60946  1.0000
  C   C760      1.0  0.51060  0.37401  0.59304  1.0000
  H   H613      1.0  0.36187  0.18598  0.74157  1.0000
  H   H614      1.0  0.40302  0.22633  0.74728  1.0000
  H   H615      1.0  0.42288  0.22646  0.70587  1.0000
  H   H616      1.0  0.40186  0.18573  0.65880  1.0000
  H   H617      1.0  0.36086  0.14448  0.65285  1.0000
  H   H618      1.0  0.46991  0.24815  0.64968  1.0000
  C   C761      1.0  0.57121  0.04006  0.98790  1.0000
  C   C762      1.0  0.52447  0.49219  0.74070  1.0000
  C   C763      1.0  0.63020  0.23815  0.68634  1.0000
  H   H619      1.0  0.60645  0.07671  0.89547  1.0000
  C   C764      1.0  0.55773  0.01213  0.75581  1.0000
  C   C765      1.0  0.64296  0.06367  0.70192  1.0000
  C   C766      1.0  0.38644  0.15930  0.59279  1.0000
  C   C767      1.0  0.44853  0.25568  0.63349  1.0000
  C   C768      1.0  0.49099  0.38298  0.77557  1.0000
  C   C769      1.0  0.49488  0.35628  0.75568  1.0000
  C   C770      1.0  0.51533  0.36158  0.74270  1.0000
  C   C771      1.0  0.53172  0.39386  0.74929  1.0000
  C   C772      1.0  0.52786  0.42113  0.76912  1.0000
  C   C773      1.0  0.50729  0.41540  0.78218  1.0000
  P   P27       1.0  0.54612  0.46486  0.77387  1.0000
  P   P28       1.0  0.33084  0.12978  0.69488  1.0000
  C   C774      1.0  0.61033  0.07263  0.79370  1.0000
  H   H620      1.0  0.52743  0.09760  0.88258  1.0000
  H   H621      1.0  0.32277  0.01388  0.78277  1.0000
  H   H622      1.0  0.52686  0.45234  0.65047  1.0000
  H   H623      1.0  0.42691  0.11950  0.50232  1.0000
  C   C775      1.0  0.59732  0.42785  0.78480  1.0000
  C   C776      1.0  0.54507  0.43415  0.65744  1.0000
  C   C777      1.0  0.45275  0.16899  0.51328  1.0000
  C   C778      1.0  0.45564  0.20481  0.52526  1.0000
  C   C779      1.0  0.36429  0.35492  0.85999  1.0000
  C   C780      1.0  0.64729  0.31614  0.80761  1.0000
  C   C781      1.0  0.37119  0.17591  0.56364  1.0000
  H   H624      1.0  0.46786  0.15871  0.50380  1.0000
  H   H625      1.0  0.48203  0.33143  0.75040  1.0000
  H   H626      1.0  0.51849  0.34061  0.72753  1.0000
  H   H627      1.0  0.54712  0.39753  0.73853  1.0000
  C   C782      1.0  0.50310  0.17410  0.63455  1.0000
  H   H628      1.0  0.65178  0.41353  0.86177  1.0000
  C   C783      1.0  0.34437  0.16107  0.54350  1.0000
  C   C784      1.0  0.57612  0.01099  0.73952  1.0000
  P   P29       1.0  0.61456  0.00900  0.76160  1.0000
  H   H629      1.0  0.58887  0.40618  0.79466  1.0000
  C   C785      1.0  0.64398  0.37749  0.62502  1.0000
  H   H630      1.0  0.60117  0.32070  0.63140  1.0000
  C   C786      1.0  0.33810  0.40414  0.72839  1.0000
  C   C787      1.0  0.50246  0.17565  0.60396  1.0000
  C   C788      1.0  0.60890  0.29747  0.64653  1.0000
  C   C789      1.0  0.33243  0.13132  0.55306  1.0000
  H   H631      1.0  0.65113  0.10970  0.86612  1.0000
  C   C790      1.0  0.54666  0.33404  0.58813  1.0000
  C   C791      1.0  0.53899  0.30675  0.60467  1.0000
  C   C792      1.0  0.40785  0.39146  0.88506  1.0000
  C   C793      1.0  0.62534  0.04005  0.79529  1.0000
  C   C794      1.0  0.54063  0.17360  0.92991  1.0000
  C   C795      1.0  0.54396  0.40051  0.67093  1.0000
  C   C796      1.0  0.56166  0.15987  0.95755  1.0000
  C   C797      1.0  0.53257  0.36757  0.58245  1.0000
  H   H632      1.0  0.48777  0.48150  0.58699  1.0000
  H   H633      1.0  0.38683  0.11553  0.62384  1.0000
  H   H634      1.0  0.54689  0.24732  0.66823  1.0000
  H   H635      1.0  0.63188  0.47645  0.60271  1.0000
  H   H636      1.0  0.33929  0.09071  0.58865  1.0000
  C   C798      1.0  0.33349  0.24689  0.52300  1.0000
  H   H637      1.0  0.60055  0.22157  0.59770  1.0000
  H   H638      1.0  0.40754  0.04109  0.74654  1.0000
  H   H639      1.0  0.51265  0.16204  0.88123  1.0000
  C   C799      1.0  0.53623  0.11455  0.90390  1.0000
  C   C800      1.0  0.55744  0.10084  0.93137  1.0000
  H   H640      1.0  0.64954  0.32389  0.67474  1.0000
  H   H641      1.0  0.40771  0.16892  0.60827  1.0000
  C   C801      1.0  0.40755  0.29556  0.61911  1.0000
  C   C802      1.0  0.39290  0.27387  0.59207  1.0000
  H   H642      1.0  0.62760  0.36623  0.49793  1.0000
  H   H643      1.0  0.61809  0.34083  0.55014  1.0000
  C   C803      1.0  0.35997  0.05884  0.53192  1.0000
  C   C804      1.0  0.63646  0.29934  0.67085  1.0000
  C   C805      1.0  0.51620  0.01379  0.70603  1.0000
  C   C806      1.0  0.39096  0.36104  0.88506  1.0000
  C   C807      1.0  0.39795  0.41598  0.86014  1.0000
  H   H644      1.0  0.43777  0.24668  0.54488  1.0000
  H   H645      1.0  0.37723  0.02736  0.57487  1.0000
  C   C808      1.0  0.62467  0.42406  0.78432  1.0000
  C   C809      1.0  0.59168  0.26587  0.64206  1.0000
  H   H646      1.0  0.51772  0.20287  0.57269  1.0000
  C   C810      1.0  0.64434  0.09063  0.84617  1.0000
  C   C811      1.0  0.34647  0.09855  0.75475  1.0000
  C   C812      1.0  0.62656  0.05255  0.71877  1.0000
  C   C813      1.0  0.37473  0.12894  0.60181  1.0000
  C   C814      1.0  0.63821  0.09557  0.96332  1.0000
  H   H647      1.0  0.64074  0.40807  0.71997  1.0000
  H   H648      1.0  0.35753  0.31053  0.80580  1.0000
  C   C815      1.0  0.62457  0.48221  0.64604  1.0000
  C   C816      1.0  0.32710  0.24850  0.60600  1.0000
  H   H649      1.0  0.33317  0.17134  0.51986  1.0000
  H   H650      1.0  0.33044  0.11540  0.75818  1.0000
  H   H651      1.0  0.32876  0.05225  0.67445  1.0000
  C   C817      1.0  0.53429  0.01155  0.68960  1.0000
  C   C818      1.0  0.33194  0.01640  0.54942  1.0000
  H   H652      1.0  0.49304  0.01507  0.69322  1.0000
  H   H653      1.0  0.57226  0.17828  0.97753  1.0000
  H   H654      1.0  0.52508  0.01114  0.66393  1.0000
  H   H655      1.0  0.35119  0.33161  0.86061  1.0000
  C   C819      1.0  0.57759  0.48814  0.83671  1.0000
  C   C820      1.0  0.62058  0.48347  0.76059  1.0000
  C   C821      1.0  0.50623  0.48821  0.58164  1.0000
  H   H656      1.0  0.33478  0.00753  0.73549  1.0000
  C   C822      1.0  0.64702  0.26981  0.69085  1.0000
  C   C823      1.0  0.36524  0.25408  0.49540  1.0000
  C   C824      1.0  0.59306  0.48717  0.76064  1.0000
  C   C825      1.0  0.63548  0.02315  0.73953  1.0000
  C   C826      1.0  0.55052  0.48681  0.81124  1.0000
  S   S109      1.0  0.44545  0.00490  0.72209  1.0000
  H   H657      1.0  0.38545  0.24960  0.49303  1.0000
  C   C827      1.0  0.64650  0.35683  0.49448  1.0000
  C   C828      1.0  0.33544  0.30065  0.79554  1.0000
  C   C829      1.0  0.32993  0.26418  0.78519  1.0000
  H   H658      1.0  0.63322  0.23065  0.49334  1.0000
  C   C830      1.0  0.39513  0.77448  0.02401  1.0000
  S   S110      1.0  0.62095  0.97074  0.36674  1.0000
  H   H659      1.0  0.54223  0.88508  0.44552  1.0000
  Fe  Fe59      1.0  0.48754  0.73685  0.26733  1.0000
  S   S111      1.0  0.50208  0.73938  0.22693  1.0000
  S   S112      1.0  0.44687  0.70783  0.26769  1.0000
  Fe  Fe60      1.0  0.53973  0.78532  0.31013  1.0000
  S   S113      1.0  0.55715  0.79068  0.27229  1.0000
  S   S114      1.0  0.55844  0.81620  0.35753  1.0000
  Fe  Fe61      1.0  0.51069  0.79921  0.24027  1.0000
  S   S115      1.0  0.49886  0.84565  0.20538  1.0000
  Fe  Fe62      1.0  0.54755  0.73034  0.26306  1.0000
  S   S116      1.0  0.57537  0.68713  0.25126  1.0000
  S   S117      1.0  0.49398  0.79707  0.27862  1.0000
  S   S118      1.0  0.53242  0.72416  0.30300  1.0000
  C   C831      1.0  0.41134  0.69806  0.23877  1.0000
  C   C832      1.0  0.40376  0.70235  0.20624  1.0000
  C   C833      1.0  0.37580  0.69233  0.18429  1.0000
  C   C834      1.0  0.35488  0.67808  0.19440  1.0000
  C   C835      1.0  0.36220  0.67481  0.22696  1.0000
  C   C836      1.0  0.39028  0.68434  0.24887  1.0000
  H   H660      1.0  0.41958  0.71286  0.19799  1.0000
  H   H661      1.0  0.37048  0.69523  0.15923  1.0000
  H   H662      1.0  0.34651  0.66401  0.23528  1.0000
  H   H663      1.0  0.39576  0.68091  0.27393  1.0000
  C   C837      1.0  0.51847  0.98808  0.27636  1.0000
  C   C838      1.0  0.62510  0.64956  0.25917  1.0000
  H   H664      1.0  0.37253  0.97436  0.24425  1.0000
  C   C839      1.0  0.61356  0.68110  0.26755  1.0000
  C   C840      1.0  0.63261  0.70685  0.28822  1.0000
  C   C841      1.0  0.32653  0.98167  0.22502  1.0000
  C   C842      1.0  0.48506  0.83407  0.00435  1.0000
  H   H665      1.0  0.44219  0.61425  0.23655  1.0000
  H   H666      1.0  0.62424  0.73124  0.29493  1.0000
  C   C843      1.0  0.42731  0.95731  0.06492  1.0000
  C   C844      1.0  0.51648  0.55031  0.06412  1.0000
  H   H667      1.0  0.53775  0.58809  0.23510  1.0000
  H   H668      1.0  0.50387  0.57395  0.05386  1.0000
  C   C845      1.0  0.56120  0.96777  0.26943  1.0000
  C   C846      1.0  0.57580  0.85924  0.36021  1.0000
  C   C847      1.0  0.58701  0.86919  0.33805  1.0000
  C   C848      1.0  0.60128  0.90307  0.34104  1.0000
  C   C849      1.0  0.60406  0.92780  0.36577  1.0000
  C   C850      1.0  0.59321  0.91778  0.38830  1.0000
  C   C851      1.0  0.57924  0.88353  0.38553  1.0000
  H   H669      1.0  0.58496  0.85067  0.31873  1.0000
  H   H670      1.0  0.61007  0.91034  0.32388  1.0000
  H   H671      1.0  0.59530  0.93648  0.40755  1.0000
  H   H672      1.0  0.57063  0.87602  0.40273  1.0000
  C   C852      1.0  0.44449  0.93887  0.21997  1.0000
  C   C853      1.0  0.46009  0.94397  0.20101  1.0000
  C   C854      1.0  0.47702  0.91548  0.19694  1.0000
  C   C855      1.0  0.47804  0.88158  0.21133  1.0000
  C   C856      1.0  0.46201  0.87657  0.22980  1.0000
  C   C857      1.0  0.44564  0.90516  0.23443  1.0000
  H   H673      1.0  0.45914  0.96982  0.18965  1.0000
  H   H674      1.0  0.48954  0.91995  0.18289  1.0000
  H   H675      1.0  0.46173  0.85051  0.24016  1.0000
  H   H676      1.0  0.43351  0.90092  0.24897  1.0000
  S   S119      1.0  0.53953  0.67545  0.01337  1.0000
  C   C858      1.0  0.53179  0.62861  0.17218  1.0000
  C   C859      1.0  0.53034  0.59047  0.17116  1.0000
  C   C860      1.0  0.50461  0.57240  0.15265  1.0000
  C   C861      1.0  0.48043  0.59246  0.13448  1.0000
  C   C862      1.0  0.48195  0.63079  0.13452  1.0000
  C   C863      1.0  0.50773  0.64871  0.15391  1.0000
  P   P30       1.0  0.45088  0.65640  0.11001  1.0000
  C   C864      1.0  0.45799  0.70451  0.11968  1.0000
  C   C865      1.0  0.44349  0.65066  0.06831  1.0000
  C   C866      1.0  0.42540  0.67544  0.04658  1.0000
  C   C867      1.0  0.41986  0.67193  0.01434  1.0000
  C   C868      1.0  0.45604  0.62247  0.05723  1.0000
  C   C869      1.0  0.44853  0.72206  0.14120  1.0000
  C   C870      1.0  0.45589  0.75871  0.14989  1.0000
  C   C871      1.0  0.47277  0.77796  0.13733  1.0000
  C   C872      1.0  0.48198  0.76089  0.11564  1.0000
  C   C873      1.0  0.47464  0.72430  0.10681  1.0000
  C   C874      1.0  0.42050  0.64137  0.11842  1.0000
  C   C875      1.0  0.42426  0.63423  0.14976  1.0000
  C   C876      1.0  0.40068  0.62418  0.15672  1.0000
  C   C877      1.0  0.37325  0.62093  0.13251  1.0000
  C   C878      1.0  0.36941  0.62715  0.10119  1.0000
  C   C879      1.0  0.39292  0.63735  0.09410  1.0000
  H   H677      1.0  0.55156  0.64268  0.18725  1.0000
  H   H678      1.0  0.54907  0.57494  0.18503  1.0000
  H   H679      1.0  0.50356  0.54277  0.15212  1.0000
  H   H680      1.0  0.46068  0.57807  0.11999  1.0000
  H   H681      1.0  0.50943  0.67814  0.15526  1.0000
  H   H682      1.0  0.41574  0.69766  0.05458  1.0000
  H   H683      1.0  0.43957  0.76096  0.03587  1.0000
  H   H684      1.0  0.47039  0.60328  0.07327  1.0000
  H   H685      1.0  0.43594  0.70759  0.15178  1.0000
  H   H686      1.0  0.44916  0.77204  0.16707  1.0000
  H   H687      1.0  0.47915  0.80592  0.14494  1.0000
  H   H688      1.0  0.49533  0.77581  0.10617  1.0000
  H   H689      1.0  0.48243  0.71126  0.09039  1.0000
  H   H690      1.0  0.44527  0.63737  0.16894  1.0000
  H   H691      1.0  0.40339  0.62008  0.18105  1.0000
  H   H692      1.0  0.35486  0.61426  0.13813  1.0000
  H   H693      1.0  0.38934  0.64217  0.06970  1.0000
  H   H694      1.0  0.55163  0.95114  0.44568  1.0000
  H   H695      1.0  0.64179  0.98627  0.02864  1.0000
  C   C880      1.0  0.55409  0.93158  0.27304  1.0000
  C   C881      1.0  0.48191  0.63627  0.23837  1.0000
  H   H696      1.0  0.46037  0.59765  0.01635  1.0000
  C   C882      1.0  0.60747  0.76369  0.05686  1.0000
  C   C883      1.0  0.55686  0.78525  0.19199  1.0000
  C   C884      1.0  0.46268  0.60757  0.23576  1.0000
  H   H697      1.0  0.56988  0.57061  0.13356  1.0000
  H   H698      1.0  0.50987  0.78623  0.00478  1.0000
  C   C885      1.0  0.37453  0.58248  0.23275  1.0000
  C   C886      1.0  0.44664  0.50263  0.19810  1.0000
  C   C887      1.0  0.58343  0.79893  0.19408  1.0000
  C   C888      1.0  0.35305  0.97292  0.24883  1.0000
  C   C889      1.0  0.58850  0.76025  0.44678  1.0000
  C   C890      1.0  0.45684  0.50981  0.26581  1.0000
  C   C891      1.0  0.35322  0.57529  0.20267  1.0000
  H   H699      1.0  0.33254  0.90966  0.16177  1.0000
  C   C892      1.0  0.52764  0.81167  0.42576  1.0000
  H   H700      1.0  0.35230  0.90949  0.06552  1.0000
  S   S120      1.0  0.42316  0.97354  0.22629  1.0000
  C   C893      1.0  0.38909  0.94806  0.00178  1.0000
  H   H701      1.0  0.45418  0.50309  0.12737  1.0000
  C   C894      1.0  0.49665  0.79905  0.46347  1.0000
  H   H702      1.0  0.39219  0.52657  0.17040  1.0000
  H   H703      1.0  0.56507  0.50548  0.17725  1.0000
  C   C895      1.0  0.50887  0.62919  0.23813  1.0000
  C   C896      1.0  0.60863  0.64652  0.17121  1.0000
  C   C897      1.0  0.40242  0.56959  0.24058  1.0000
  H   H704      1.0  0.58052  0.97318  0.26539  1.0000
  C   C898      1.0  0.59963  0.78558  0.07724  1.0000
  H   H705      1.0  0.62212  0.71097  0.04885  1.0000
  H   H706      1.0  0.58423  0.61446  0.29111  1.0000
  H   H707      1.0  0.52394  0.90101  0.07166  1.0000
  C   C899      1.0  0.60009  0.77848  0.18182  1.0000
  H   H708      1.0  0.34812  0.62434  0.08245  1.0000
  C   C900      1.0  0.49814  0.80371  0.41162  1.0000
  C   C901      1.0  0.51009  0.52900  0.08608  1.0000
  C   C902      1.0  0.58682  0.51337  0.19285  1.0000
  H   H709      1.0  0.45977  0.79107  0.41942  1.0000
  C   C903      1.0  0.59666  0.94752  0.47564  1.0000
  C   C904      1.0  0.59014  0.74422  0.16717  1.0000
  C   C905      1.0  0.40594  0.85049  0.14994  1.0000
  H   H710      1.0  0.36153  0.96719  0.09757  1.0000
  C   C906      1.0  0.35973  0.55482  0.18048  1.0000
  C   C907      1.0  0.40860  0.91615  0.12086  1.0000
  C   C908      1.0  0.41649  0.88356  0.11007  1.0000
  C   C909      1.0  0.41527  0.85074  0.12504  1.0000
  P   P31       1.0  0.42956  0.88314  0.07854  1.0000
  C   C910      1.0  0.41644  0.84076  0.05671  1.0000
  H   H711      1.0  0.39102  0.88297  0.17982  1.0000
  H   H712      1.0  0.57625  0.52104  0.23360  1.0000
  C   C911      1.0  0.39761  0.88296  0.16003  1.0000
  C   C912      1.0  0.56903  0.93311  0.45880  1.0000
  C   C913      1.0  0.63700  0.52314  0.20161  1.0000
  H   H713      1.0  0.59263  0.81326  0.07066  1.0000
  C   C914      1.0  0.43549  0.81431  0.05424  1.0000
  C   C915      1.0  0.42484  0.78111  0.03825  1.0000
  H   H714      1.0  0.61674  0.84379  0.44257  1.0000
  H   H715      1.0  0.49272  0.94577  0.28503  1.0000
  H   H716      1.0  0.37504  0.95544  0.29688  1.0000
  C   C916      1.0  0.46839  0.88504  0.09459  1.0000
  C   C917      1.0  0.48448  0.87753  0.12648  1.0000
  C   C918      1.0  0.51458  0.87817  0.13853  1.0000
  C   C919      1.0  0.52882  0.88647  0.11878  1.0000
  C   C920      1.0  0.51292  0.89427  0.08695  1.0000
  C   C921      1.0  0.48279  0.89364  0.07491  1.0000
  H   H717      1.0  0.40567  0.82526  0.16186  1.0000
  C   C922      1.0  0.57868  0.65879  0.11642  1.0000
  S   S121      1.0  0.54864  0.56742  0.02800  1.0000
  H   H718      1.0  0.40972  0.94200  0.11048  1.0000
  H   H719      1.0  0.42181  0.82533  0.11771  1.0000
  C   C923      1.0  0.32370  0.96926  0.00575  1.0000
  H   H720      1.0  0.62626  0.53810  0.26958  1.0000
  C   C924      1.0  0.59312  0.52217  0.22462  1.0000
  H   H721      1.0  0.52668  0.74026  0.17691  1.0000
  C   C925      1.0  0.64220  0.56548  0.33745  1.0000
  H   H722      1.0  0.45851  0.81909  0.06456  1.0000
  C   C926      1.0  0.54195  0.81307  0.45893  1.0000
  C   C927      1.0  0.39889  0.91573  0.14547  1.0000
  C   C928      1.0  0.52966  0.92370  0.27907  1.0000
  C   C929      1.0  0.48621  0.50568  0.28492  1.0000
  H   H723      1.0  0.47384  0.87126  0.14214  1.0000
  H   H724      1.0  0.52679  0.87243  0.16333  1.0000
  H   H725      1.0  0.55215  0.88713  0.12822  1.0000
  C   C930      1.0  0.59860  0.74047  0.42704  1.0000
  H   H726      1.0  0.47070  0.89996  0.05030  1.0000
  H   H727      1.0  0.37171  0.85306  0.04550  1.0000
  H   H728      1.0  0.63005  0.56805  0.13719  1.0000
  H   H729      1.0  0.49206  0.53625  0.09192  1.0000
  H   H730      1.0  0.55302  0.61350  0.08896  1.0000
  H   H731      1.0  0.33039  0.95119  0.30709  1.0000
  H   H732      1.0  0.56767  0.90951  0.27152  1.0000
  H   H733      1.0  0.57030  0.67720  0.09671  1.0000
  C   C931      1.0  0.64323  0.53156  0.23360  1.0000
  C   C932      1.0  0.45047  0.61913  0.02494  1.0000
  H   H734      1.0  0.58880  0.50035  0.31329  1.0000
  C   C933      1.0  0.39866  0.91760  0.02095  1.0000
  H   H735      1.0  0.44251  0.96137  0.08920  1.0000
  C   C934      1.0  0.62610  0.59531  0.32154  1.0000
  H   H736      1.0  0.59127  0.82517  0.20568  1.0000
  P   P32       1.0  0.44566  0.53354  0.22867  1.0000
  C   C935      1.0  0.58641  0.87197  0.47533  1.0000
  C   C936      1.0  0.32932  0.95979  0.28418  1.0000
  C   C937      1.0  0.63245  0.51155  0.07904  1.0000
  C   C938      1.0  0.54695  0.75110  0.17774  1.0000
  H   H737      1.0  0.49063  0.83402  0.02964  1.0000
  H   H738      1.0  0.62080  0.78929  0.18391  1.0000
  H   H739      1.0  0.38683  0.74956  0.01028  1.0000
  H   H740      1.0  0.63440  0.80873  0.40791  1.0000
  H   H741      1.0  0.60663  0.77438  0.03466  1.0000
  H   H742      1.0  0.50353  0.53690  0.22860  1.0000
  C   C939      1.0  0.51667  0.59335  0.23499  1.0000
  H   H743      1.0  0.60484  0.59223  0.18662  1.0000
  H   H744      1.0  0.61065  0.62923  0.24342  1.0000
  H   H745      1.0  0.59238  0.71204  0.42126  1.0000
  C   C940      1.0  0.40935  0.54970  0.21819  1.0000
  C   C941      1.0  0.34583  0.93526  0.05377  1.0000
  H   H746      1.0  0.65181  0.87733  0.42031  1.0000
  C   C942      1.0  0.61640  0.72794  0.06503  1.0000
  H   H747      1.0  0.55531  0.70431  0.15427  1.0000
  H   H748      1.0  0.60328  0.50567  0.15682  1.0000
  C   C943      1.0  0.35127  0.96793  0.07207  1.0000
  C   C944      1.0  0.61002  0.73590  0.11455  1.0000
  H   H749      1.0  0.50272  0.51644  0.27794  1.0000
  P   P33       1.0  0.61199  0.71774  0.15180  1.0000
  H   H750      1.0  0.52438  0.89563  0.28216  1.0000
  H   H751      1.0  0.47603  0.66412  0.24096  1.0000
  H   H752      1.0  0.45078  0.54564  0.16822  1.0000
  C   C945      1.0  0.56338  0.73070  0.16515  1.0000
  C   C946      1.0  0.59564  0.79749  0.45348  1.0000
  C   C947      1.0  0.60865  0.51356  0.18134  1.0000
  H   H753      1.0  0.60076  0.51164  0.37421  1.0000
  H   H754      1.0  0.59461  0.78930  0.12125  1.0000
  C   C948      1.0  0.58329  0.55687  0.30045  1.0000
  C   C949      1.0  0.61248  0.81474  0.43955  1.0000
  H   H755      1.0  0.36946  0.59835  0.24996  1.0000
  H   H756      1.0  0.48739  0.80237  0.38599  1.0000
  C   C950      1.0  0.38672  0.83323  0.04342  1.0000
  C   C951      1.0  0.41722  0.92203  0.05300  1.0000
  H   H757      1.0  0.53927  0.81663  0.41072  1.0000
  C   C952      1.0  0.53919  0.54101  0.05536  1.0000
  C   C953      1.0  0.63536  0.54425  0.12642  1.0000
  H   H758      1.0  0.57439  0.74675  0.45606  1.0000
  C   C954      1.0  0.61779  0.71408  0.09378  1.0000
  S   S122      1.0  0.32644  0.89338  0.99882  1.0000
  C   C955      1.0  0.60085  0.77179  0.10598  1.0000
  H   H759      1.0  0.62254  0.74292  0.39726  1.0000
  C   C956      1.0  0.37609  0.80055  0.02659  1.0000
  H   H760      1.0  0.62493  0.68631  0.09972  1.0000
  H   H761      1.0  0.62382  0.65542  0.19441  1.0000
  C   C957      1.0  0.35447  0.96221  0.27846  1.0000
  C   C958      1.0  0.59946  0.67074  0.14585  1.0000
  C   C959      1.0  0.48264  0.79735  0.43045  1.0000
  C   C960      1.0  0.62255  0.79491  0.41979  1.0000
  C   C961      1.0  0.59662  0.59112  0.30322  1.0000
  C   C962      1.0  0.43247  0.64388  0.00356  1.0000
  H   H762      1.0  0.39324  0.94107  0.15400  1.0000
  H   H763      1.0  0.63650  0.62181  0.32337  1.0000
  H   H764      1.0  0.41867  0.57549  0.26405  1.0000
  C   C963      1.0  0.49729  0.56452  0.23159  1.0000
  C   C964      1.0  0.62875  0.53125  0.33550  1.0000
  C   C965      1.0  0.61563  0.75782  0.41355  1.0000
  H   H765      1.0  0.52369  0.65160  0.24052  1.0000
  C   C966      1.0  0.47013  0.57134  0.23215  1.0000
  H   H766      1.0  0.54410  0.80091  0.20181  1.0000
  C   C967      1.0  0.59793  0.61059  0.16686  1.0000
  C   C968      1.0  0.57808  0.59854  0.13716  1.0000
  C   C969      1.0  0.56846  0.62270  0.11200  1.0000
  C   C970      1.0  0.56383  0.89551  0.45874  1.0000
  C   C971      1.0  0.62130  0.53149  0.24493  1.0000
  C   C972      1.0  0.59935  0.52691  0.31611  1.0000
  C   C973      1.0  0.38769  0.54213  0.18810  1.0000
  C   C974      1.0  0.51191  0.95197  0.28083  1.0000
  C   C975      1.0  0.62540  0.54170  0.09343  1.0000
  H   H767      1.0  0.56047  0.55347  0.28631  1.0000
  H   H768      1.0  0.63796  0.72222  0.22145  1.0000
  C   C976      1.0  0.52621  0.80696  0.47772  1.0000
  C   C977      1.0  0.33220  0.93566  0.02048  1.0000
  H   H769      1.0  0.39090  0.89094  0.01053  1.0000
  H   H770      1.0  0.60069  0.97668  0.47591  1.0000
  P   P34       1.0  0.58009  0.82341  0.47650  1.0000
  H   H771      1.0  0.48458  0.79413  0.47803  1.0000
  C   C978      1.0  0.44951  0.51646  0.17110  1.0000
  H   H772      1.0  0.33249  0.96672  0.13333  1.0000
  H   H773      1.0  0.61187  0.56290  0.07888  1.0000
  C   C979      1.0  0.52651  0.49819  0.10018  1.0000
  C   C980      1.0  0.55541  0.50999  0.06923  1.0000
  H   H774      1.0  0.40631  0.69138  0.99764  1.0000
  H   H775      1.0  0.34306  0.54909  0.15725  1.0000
  S   S123      1.0  0.32104  0.66204  0.16531  1.0000
  H   H776      1.0  0.32609  0.98902  0.20214  1.0000
  H   H777      1.0  0.33169  0.58578  0.19654  1.0000
  H   H778      1.0  0.35303  0.79582  0.01505  1.0000
  H   H779      1.0  0.59464  0.95346  0.00876  1.0000
  C   C981      1.0  0.64899  0.72015  0.18025  1.0000
  H   H780      1.0  0.57257  0.50176  0.06225  1.0000
  C   C982      1.0  0.39808  0.98315  0.01432  1.0000
  C   C983      1.0  0.41738  0.98776  0.04582  1.0000
  C   C984      1.0  0.65227  0.51650  0.14532  1.0000
  C   C985      1.0  0.59546  0.98285  0.00637  1.0000
  Fe  Fe63      1.0  0.53215  0.61711  0.99476  1.0000
  H   H781      1.0  0.45770  0.88107  0.99606  1.0000
  H   H782      1.0  0.65119  0.73482  0.48801  1.0000
  H   H783      1.0  0.62440  0.50954  0.05341  1.0000
  S   S124      1.0  0.40065  0.91857  0.70687  1.0000
  S   S125      1.0  0.40585  0.94625  0.64107  1.0000
  Fe  Fe64      1.0  0.39424  0.89393  0.65947  1.0000
  S   S126      1.0  0.40711  0.83343  0.66255  1.0000
  Fe  Fe65      1.0  0.40873  0.97122  0.68744  1.0000
  H   H784      1.0  0.62966  0.50509  0.75137  1.0000
  S   S127      1.0  0.61793  0.92831  0.88878  1.0000
  C   C986      1.0  0.64298  0.70122  0.69728  1.0000
  Fe  Fe66      1.0  0.62146  0.92658  0.93892  1.0000
  S   S128      1.0  0.58992  0.89273  0.95247  1.0000
  Fe  Fe67      1.0  0.58445  0.64800  0.69240  1.0000
  S   S129      1.0  0.54888  0.64960  0.64397  1.0000
  S   S130      1.0  0.63203  0.65707  0.70369  1.0000
  Fe  Fe68      1.0  0.54367  0.62761  0.72480  1.0000
  S   S131      1.0  0.50477  0.62787  0.67815  1.0000
  S   S132      1.0  0.55173  0.61440  0.77633  1.0000
  Fe  Fe69      1.0  0.53246  0.59738  0.65691  1.0000
  S   S133      1.0  0.51522  0.54485  0.62570  1.0000
  Fe  Fe70      1.0  0.52429  0.67976  0.66871  1.0000
  S   S134      1.0  0.50425  0.73417  0.64746  1.0000
  S   S135      1.0  0.56977  0.59419  0.70422  1.0000
  S   S136      1.0  0.56130  0.68097  0.71626  1.0000
  Fe  Fe71      1.0  0.49531  0.68578  0.97585  1.0000
  C   C987      1.0  0.62145  0.76825  0.55927  1.0000
  C   C988      1.0  0.33545  0.59574  0.54484  1.0000
  Fe  Fe72      1.0  0.50742  0.64305  0.92469  1.0000
  S   S137      1.0  0.55184  0.62865  0.95888  1.0000
  S   S138      1.0  0.48735  0.63289  0.87083  1.0000
  H   H785      1.0  0.64775  0.71593  0.76651  1.0000
  H   H786      1.0  0.58118  0.51189  0.75150  1.0000
  Fe  Fe73      1.0  0.55528  0.68767  0.97492  1.0000
  H   H787      1.0  0.36201  0.95216  0.82272  1.0000
  S   S139      1.0  0.48687  0.62710  0.95883  1.0000
  S   S140      1.0  0.51194  0.70230  0.93942  1.0000
  H   H788      1.0  0.63163  0.83664  0.95398  1.0000
  C   C989      1.0  0.53357  0.62287  0.80203  1.0000
  C   C990      1.0  0.50456  0.63257  0.79094  1.0000
  C   C991      1.0  0.49081  0.63620  0.81234  1.0000
  C   C992      1.0  0.50603  0.63105  0.84508  1.0000
  C   C993      1.0  0.53522  0.62250  0.85618  1.0000
  C   C994      1.0  0.54870  0.61793  0.83474  1.0000
  H   H789      1.0  0.49254  0.63617  0.76588  1.0000
  H   H790      1.0  0.46815  0.64258  0.80345  1.0000
  H   H791      1.0  0.54717  0.61821  0.88121  1.0000
  H   H792      1.0  0.57095  0.61007  0.84359  1.0000
  C   C995      1.0  0.52378  0.51863  0.59709  1.0000
  C   C996      1.0  0.54745  0.52680  0.58954  1.0000
  H   H793      1.0  0.56122  0.54996  0.60100  1.0000
  C   C997      1.0  0.59141  0.84492  0.95881  1.0000
  C   C998      1.0  0.56909  0.82776  0.96476  1.0000
  C   C999      1.0  0.56920  0.78983  0.96958  1.0000
  C   C1000     1.0  0.59207  0.76873  0.96928  1.0000
  C   C1001     1.0  0.61454  0.78593  0.96362  1.0000
  C   C1002     1.0  0.61413  0.82378  0.95816  1.0000
  H   H794      1.0  0.55166  0.84387  0.96587  1.0000
  H   H795      1.0  0.55200  0.77702  0.97433  1.0000
  H   H796      1.0  0.49878  0.57833  0.72343  1.0000
  C   C1003     1.0  0.43347  0.66768  0.69837  1.0000
  C   C1004     1.0  0.43774  0.80958  0.66262  1.0000
  C   C1005     1.0  0.45282  0.82059  0.64434  1.0000
  C   C1006     1.0  0.47367  0.79757  0.64076  1.0000
  C   C1007     1.0  0.48003  0.76355  0.65568  1.0000
  C   C1008     1.0  0.46598  0.75334  0.67520  1.0000
  C   C1009     1.0  0.44491  0.77619  0.67850  1.0000
  H   H797      1.0  0.44731  0.84584  0.63156  1.0000
  H   H798      1.0  0.48433  0.80570  0.62551  1.0000
  H   H799      1.0  0.47062  0.72732  0.68687  1.0000
  H   H800      1.0  0.43341  0.76738  0.69266  1.0000
  C   C1010     1.0  0.62281  0.72610  0.67867  1.0000
  H   H801      1.0  0.39794  0.80601  0.59240  1.0000
  H   H802      1.0  0.61716  0.96909  0.81801  1.0000
  H   H803      1.0  0.37385  0.94442  0.97744  1.0000
  H   H804      1.0  0.60027  0.71831  0.66804  1.0000
  H   H805      1.0  0.37186  0.62572  0.54415  1.0000
  H   H806      1.0  0.61816  0.49804  0.68842  1.0000
  C   C1011     1.0  0.63166  0.83274  0.87300  1.0000
  C   C1012     1.0  0.35851  0.62062  0.55727  1.0000
  C   C1013     1.0  0.37299  0.74979  0.92629  1.0000
  C   C1014     1.0  0.38535  0.71720  0.92142  1.0000
  C   C1015     1.0  0.41475  0.71031  0.93880  1.0000
  C   C1016     1.0  0.43184  0.73572  0.96164  1.0000
  C   C1017     1.0  0.41977  0.76897  0.96539  1.0000
  C   C1018     1.0  0.39048  0.77601  0.94787  1.0000
  H   H807      1.0  0.37201  0.69693  0.90451  1.0000
  H   H808      1.0  0.42387  0.68477  0.93539  1.0000
  C   C1019     1.0  0.34610  0.63226  0.60241  1.0000
  H   H809      1.0  0.38129  0.80128  0.95174  1.0000
  H   H810      1.0  0.53657  0.80801  0.50330  1.0000
  H   H811      1.0  0.59893  0.65690  0.82869  1.0000
  S   S141      1.0  0.34690  0.90682  0.63927  1.0000
  H   H812      1.0  0.38863  0.81459  0.72456  1.0000
  H   H813      1.0  0.41401  0.59754  0.59895  1.0000
  S   S142      1.0  0.33548  0.75598  0.90632  1.0000
  C   C1020     1.0  0.57091  0.77630  0.69839  1.0000
  C   C1021     1.0  0.46956  0.66489  0.58956  1.0000
  H   H814      1.0  0.44026  0.81464  0.73479  1.0000
  C   C1022     1.0  0.62139  0.96193  0.77304  1.0000
  Fe  Fe74      1.0  0.35878  0.96118  0.62447  1.0000
  H   H815      1.0  0.61598  0.77980  0.65869  1.0000
  H   H816      1.0  0.54039  0.81689  0.67298  1.0000
  H   H817      1.0  0.56597  0.75868  0.67768  1.0000
  H   H818      1.0  0.45164  0.65382  0.71560  1.0000
  S   S143      1.0  0.32313  0.92258  0.84854  1.0000
  C   C1023     1.0  0.51992  0.52927  0.74501  1.0000
  H   H819      1.0  0.42870  0.64170  0.97868  1.0000
  H   H820      1.0  0.50597  0.50333  0.79564  1.0000
  H   H821      1.0  0.62688  0.78421  0.60672  1.0000
  C   C1024     1.0  0.36459  0.78171  0.55107  1.0000
  C   C1025     1.0  0.59207  0.83383  0.54070  1.0000
  H   H822      1.0  0.53081  0.97237  0.83876  1.0000
  C   C1026     1.0  0.45333  0.60314  0.59202  1.0000
  H   H823      1.0  0.34213  0.80941  0.82193  1.0000
  C   C1027     1.0  0.58124  0.50694  0.86484  1.0000
  C   C1028     1.0  0.39421  0.71010  0.68624  1.0000
  H   H824      1.0  0.36906  0.71870  0.63694  1.0000
  C   C1029     1.0  0.62502  0.56828  0.84622  1.0000
  C   C1030     1.0  0.38698  0.70410  0.65385  1.0000
  H   H825      1.0  0.44294  0.70788  0.59427  1.0000
  C   C1031     1.0  0.32446  0.91715  0.74824  1.0000
  C   C1032     1.0  0.47356  0.62721  0.58887  1.0000
  H   H826      1.0  0.34965  0.64615  0.62461  1.0000
  C   C1033     1.0  0.62114  0.54497  0.66237  1.0000
  C   C1034     1.0  0.49557  0.49767  0.68432  1.0000
  H   H827      1.0  0.61887  0.60251  0.88165  1.0000
  H   H828      1.0  0.49260  0.61656  0.58646  1.0000
  C   C1035     1.0  0.36404  0.63910  0.58618  1.0000
  H   H829      1.0  0.48567  0.68364  0.58806  1.0000
  C   C1036     1.0  0.63718  0.70359  0.78047  1.0000
  C   C1037     1.0  0.62881  0.91422  0.81146  1.0000
  H   H830      1.0  0.52986  0.54257  0.76798  1.0000
  C   C1038     1.0  0.42621  0.66147  0.66599  1.0000
  H   H831      1.0  0.53894  0.89962  0.77208  1.0000
  C   C1039     1.0  0.60436  0.82835  0.87346  1.0000
  C   C1040     1.0  0.49047  0.53426  0.68907  1.0000
  S   S144      1.0  0.59442  0.72158  0.97827  1.0000
  C   C1041     1.0  0.42450  0.65454  0.59577  1.0000
  C   C1042     1.0  0.55797  0.52462  0.86779  1.0000
  H   H832      1.0  0.63298  0.74293  0.56663  1.0000
  H   H833      1.0  0.60234  0.56753  0.83058  1.0000
  H   H834      1.0  0.52764  0.75677  0.73390  1.0000
  C   C1043     1.0  0.61012  0.77765  0.52729  1.0000
  H   H835      1.0  0.55788  0.93894  0.88792  1.0000
  C   C1044     1.0  0.44516  0.67857  0.59306  1.0000
  H   H836      1.0  0.63842  0.88138  0.74670  1.0000
  H   H837      1.0  0.64673  0.64915  0.76970  1.0000
  H   H838      1.0  0.60284  0.74077  0.72889  1.0000
  H   H839      1.0  0.55298  0.87175  0.88877  1.0000
  H   H840      1.0  0.48451  0.79545  0.80950  1.0000
  H   H841      1.0  0.50676  0.93520  0.67597  1.0000
  C   C1045     1.0  0.40294  0.67972  0.64345  1.0000
  C   C1046     1.0  0.56299  0.83206  0.72230  1.0000
  H   H842      1.0  0.57154  0.51202  0.56133  1.0000
  H   H843      1.0  0.34843  0.69117  0.53929  1.0000
  P   P35       1.0  0.39349  0.67195  0.60154  1.0000
  C   C1047     1.0  0.55328  0.50510  0.56696  1.0000
  H   H844      1.0  0.43298  0.78911  0.98242  1.0000
  H   H845      1.0  0.41415  0.74725  0.61847  1.0000
  H   H846      1.0  0.47764  0.55056  0.66904  1.0000
  C   C1048     1.0  0.61026  0.70806  0.81386  1.0000
  C   C1049     1.0  0.36487  0.81393  0.83611  1.0000
  H   H847      1.0  0.54620  0.93277  0.72950  1.0000
  C   C1050     1.0  0.52557  0.91976  0.72495  1.0000
  C   C1051     1.0  0.63182  0.76085  0.67326  1.0000
  H   H848      1.0  0.51965  0.71151  0.76942  1.0000
  H   H849      1.0  0.59998  0.72348  0.82654  1.0000
  H   H850      1.0  0.63176  0.54263  0.59373  1.0000
  C   C1052     1.0  0.41750  0.69199  0.70851  1.0000
  C   C1053     1.0  0.60991  0.66999  0.81554  1.0000
  H   H851      1.0  0.58742  0.83943  0.77216  1.0000
  H   H852      1.0  0.64817  0.84834  0.89179  1.0000
  H   H853      1.0  0.56083  0.53969  0.88937  1.0000
  C   C1054     1.0  0.50341  0.92116  0.69485  1.0000
  H   H854      1.0  0.45422  0.90563  0.80027  1.0000
  C   C1055     1.0  0.55653  0.80922  0.69571  1.0000
  C   C1056     1.0  0.62279  0.64874  0.79940  1.0000
  Fe  Fe75      1.0  0.61670  0.98938  0.89319  1.0000
  P   P36       1.0  0.62388  0.77447  0.79264  1.0000
  C   C1057     1.0  0.59526  0.81054  0.51770  1.0000
  H   H855      1.0  0.63185  0.86895  0.50478  1.0000
  H   H856      1.0  0.33119  0.58174  0.52243  1.0000
  H   H857      1.0  0.49770  0.73088  0.80671  1.0000
  H   H858      1.0  0.51462  0.82087  0.73617  1.0000
  H   H859      1.0  0.63248  0.76991  0.96369  1.0000
  C   C1058     1.0  0.62504  0.55763  0.63579  1.0000
  C   C1059     1.0  0.49597  0.80717  0.99038  1.0000
  H   H860      1.0  0.63742  0.53447  0.81533  1.0000
  C   C1060     1.0  0.42902  0.61668  0.59573  1.0000
  C   C1061     1.0  0.48610  0.73912  0.86678  1.0000
  C   C1062     1.0  0.51549  0.74497  0.87463  1.0000
  C   C1063     1.0  0.52834  0.77838  0.88815  1.0000
  C   C1064     1.0  0.51177  0.80608  0.89354  1.0000
  C   C1065     1.0  0.48224  0.80048  0.88584  1.0000
  C   C1066     1.0  0.46965  0.76642  0.87292  1.0000
  P   P37       1.0  0.46163  0.83443  0.89666  1.0000
  C   C1067     1.0  0.47204  0.88020  0.89046  1.0000
  C   C1068     1.0  0.42366  0.82639  0.87317  1.0000
  C   C1069     1.0  0.40374  0.82387  0.88747  1.0000
  C   C1070     1.0  0.37449  0.81783  0.86894  1.0000
  C   C1071     1.0  0.38229  0.71470  0.58128  1.0000
  C   C1072     1.0  0.38457  0.81555  0.82172  1.0000
  C   C1073     1.0  0.41385  0.82179  0.84011  1.0000
  C   C1074     1.0  0.49800  0.89575  0.91215  1.0000
  C   C1075     1.0  0.50582  0.93160  0.90868  1.0000
  C   C1076     1.0  0.48774  0.95243  0.88361  1.0000
  C   C1077     1.0  0.46166  0.93751  0.86222  1.0000
  C   C1078     1.0  0.45372  0.90164  0.86572  1.0000
  C   C1079     1.0  0.46977  0.83275  0.93858  1.0000
  C   C1080     1.0  0.48810  0.80617  0.95758  1.0000
  H   H861      1.0  0.38204  0.72935  0.69405  1.0000
  C   C1081     1.0  0.62606  0.93637  0.75247  1.0000
  S   S145      1.0  0.61660  0.98756  0.94180  1.0000
  C   C1082     1.0  0.45923  0.86005  0.95284  1.0000
  H   H862      1.0  0.47641  0.71260  0.85753  1.0000
  H   H863      1.0  0.52845  0.72301  0.87141  1.0000
  H   H864      1.0  0.55141  0.78229  0.89570  1.0000
  H   H865      1.0  0.52237  0.83124  0.90479  1.0000
  H   H866      1.0  0.44737  0.76031  0.86848  1.0000
  H   H867      1.0  0.41049  0.82613  0.91284  1.0000
  C   C1083     1.0  0.50250  0.54994  0.71947  1.0000
  C   C1084     1.0  0.62174  0.95028  0.80217  1.0000
  H   H868      1.0  0.37704  0.81184  0.79631  1.0000
  H   H869      1.0  0.42884  0.82305  0.82856  1.0000
  H   H870      1.0  0.51220  0.88035  0.93201  1.0000
  H   H871      1.0  0.52618  0.94297  0.92523  1.0000
  H   H872      1.0  0.44751  0.95382  0.84296  1.0000
  H   H873      1.0  0.43311  0.89120  0.84935  1.0000
  H   H874      1.0  0.49631  0.78450  0.94730  1.0000
  C   C1085     1.0  0.34608  0.93597  0.77322  1.0000
  H   H875      1.0  0.62483  0.58676  0.63167  1.0000
  H   H876      1.0  0.62137  0.61927  0.79960  1.0000
  H   H877      1.0  0.44518  0.88094  0.93856  1.0000
  C   C1086     1.0  0.35962  0.71580  0.55121  1.0000
  H   H878      1.0  0.51296  0.53717  0.84504  1.0000
  H   H879      1.0  0.40266  0.90413  0.79063  1.0000
  C   C1087     1.0  0.58306  0.80846  0.84919  1.0000
  H   H880      1.0  0.36957  0.85949  0.75226  1.0000
  H   H881      1.0  0.35922  0.81581  0.88006  1.0000
  C   C1088     1.0  0.38739  0.78079  0.58072  1.0000
  H   H882      1.0  0.56212  0.80433  0.84976  1.0000
  H   H883      1.0  0.59979  0.84043  0.89266  1.0000
  H   H884      1.0  0.52174  0.83760  0.84061  1.0000
  H   H885      1.0  0.49401  0.98008  0.88070  1.0000
  C   C1089     1.0  0.63782  0.81702  0.84847  1.0000
  C   C1090     1.0  0.61792  0.79142  0.58189  1.0000
  H   H886      1.0  0.64217  0.86239  0.79972  1.0000
  H   H887      1.0  0.60218  0.50811  0.88432  1.0000
  H   H888      1.0  0.43896  0.64267  0.65871  1.0000
  H   H889      1.0  0.36245  0.95113  0.76866  1.0000
  H   H890      1.0  0.58077  0.85938  0.53396  1.0000
  C   C1091     1.0  0.64500  0.54974  0.83755  1.0000
  C   C1092     1.0  0.53091  0.52304  0.84281  1.0000
  C   C1093     1.0  0.63345  0.90050  0.76202  1.0000
  C   C1094     1.0  0.52710  0.50391  0.81481  1.0000
  H   H891      1.0  0.42331  0.69699  0.73361  1.0000
  H   H892      1.0  0.63032  0.90558  0.83448  1.0000
  C   C1095     1.0  0.39638  0.74744  0.59561  1.0000
  H   H893      1.0  0.60076  0.84221  0.59028  1.0000
  C   C1096     1.0  0.60324  0.82418  0.57260  1.0000
  C   C1097     1.0  0.63428  0.58806  0.87484  1.0000
  H   H894      1.0  0.49955  0.93885  0.79036  1.0000
  H   H895      1.0  0.64477  0.80915  0.74769  1.0000
  C   C1098     1.0  0.59148  0.76594  0.72767  1.0000
  H   H896      1.0  0.45972  0.90513  0.66571  1.0000
  C   C1099     1.0  0.63676  0.66555  0.78227  1.0000
  C   C1100     1.0  0.47685  0.90443  0.68908  1.0000
  Fe  Fe76      1.0  0.35423  0.93346  0.68643  1.0000
  H   H897      1.0  0.45149  0.87417  0.70854  1.0000
  C   C1101     1.0  0.52124  0.90122  0.74914  1.0000
  C   C1102     1.0  0.49424  0.88525  0.74372  1.0000
  C   C1103     1.0  0.47222  0.88672  0.71344  1.0000
  P   P38       1.0  0.48896  0.86063  0.77490  1.0000
  C   C1104     1.0  0.50003  0.81368  0.77430  1.0000
  C   C1105     1.0  0.50920  0.88529  0.81151  1.0000
  C   C1106     1.0  0.52373  0.86679  0.83972  1.0000
  C   C1107     1.0  0.54129  0.88610  0.86713  1.0000
  C   C1108     1.0  0.54405  0.92406  0.86670  1.0000
  C   C1109     1.0  0.52874  0.94288  0.83905  1.0000
  C   C1110     1.0  0.51118  0.92367  0.81163  1.0000
  C   C1111     1.0  0.49473  0.78762  0.79361  1.0000
  C   C1112     1.0  0.50199  0.75098  0.79198  1.0000
  C   C1113     1.0  0.51424  0.73995  0.77083  1.0000
  C   C1114     1.0  0.51894  0.76547  0.75102  1.0000
  C   C1115     1.0  0.51175  0.80208  0.75261  1.0000
  C   C1116     1.0  0.45134  0.85970  0.76877  1.0000
  C   C1117     1.0  0.43253  0.83377  0.74775  1.0000
  C   C1118     1.0  0.40321  0.83349  0.74205  1.0000
  C   C1119     1.0  0.39249  0.85880  0.75758  1.0000
  C   C1120     1.0  0.41115  0.88421  0.77904  1.0000
  C   C1121     1.0  0.44043  0.88490  0.78446  1.0000
  S   S146      1.0  0.36261  0.98863  0.67040  1.0000
  C   C1122     1.0  0.62355  0.72526  0.79588  1.0000
  C   C1123     1.0  0.59726  0.78799  0.75480  1.0000
  C   C1124     1.0  0.62893  0.53275  0.61445  1.0000
  C   C1125     1.0  0.61653  0.79668  0.82410  1.0000
  H   H898      1.0  0.64055  0.93590  0.50498  1.0000
  C   C1126     1.0  0.46655  0.86042  0.98553  1.0000
  H   H899      1.0  0.45679  0.57394  0.59201  1.0000
  H   H900      1.0  0.55215  0.85779  0.71997  1.0000
  S   S147      1.0  0.33951  0.86445  0.92094  1.0000
  C   C1127     1.0  0.58892  0.79328  0.82435  1.0000
  H   H901      1.0  0.57209  0.77812  0.80564  1.0000
  C   C1128     1.0  0.58304  0.82144  0.75183  1.0000
  C   C1129     1.0  0.34575  0.93652  0.80387  1.0000
  C   C1130     1.0  0.63531  0.88966  0.79174  1.0000
  C   C1131     1.0  0.62118  0.50744  0.66767  1.0000
  H   H902      1.0  0.61792  0.56440  0.67873  1.0000
  H   H903      1.0  0.61310  0.75913  0.51037  1.0000
  C   C1132     1.0  0.35083  0.74921  0.53623  1.0000
  S   S148      1.0  0.46684  0.72490  0.98886  1.0000
  H   H904      1.0  0.35758  0.80765  0.53967  1.0000
  S   S149      1.0  0.32793  0.98513  0.57707  1.0000
  C   C1133     1.0  0.32429  0.91756  0.81027  1.0000
  S   S150      1.0  0.32177  0.91870  0.70830  1.0000
  H   H905      1.0  0.62490  0.94438  0.72941  1.0000
  H   H906      1.0  0.54946  0.98804  0.98353  1.0000
  C   C1134     1.0  0.32306  0.60732  0.58990  1.0000
  H   H907      1.0  0.33316  0.74994  0.51319  1.0000
  C   C1135     1.0  0.61417  0.88668  0.49199  1.0000
  C   C1136     1.0  0.61922  0.92435  0.49215  1.0000
  Fe  Fe77      1.0  0.77354  0.16563  0.21603  1.0000
  S   S151      1.0  0.77442  0.10570  0.22679  1.0000
  S   S152      1.0  0.81090  0.20360  0.21880  1.0000
  Fe  Fe78      1.0  0.70784  0.16788  0.19124  1.0000
  S   S153      1.0  0.70435  0.10823  0.20004  1.0000
  H   H908      1.0  0.80775  0.06344  0.09009  1.0000
  Fe  Fe79      1.0  0.74106  0.11917  0.24671  1.0000
  S   S154      1.0  0.73978  0.08703  0.28846  1.0000
  Fe  Fe80      1.0  0.73721  0.09936  0.17918  1.0000
  S   S155      1.0  0.73299  0.04834  0.14805  1.0000
  S   S156      1.0  0.74268  0.17984  0.23937  1.0000
  S   S157      1.0  0.73829  0.15832  0.16702  1.0000
  H   H909      1.0  0.66833  0.32893  0.26304  1.0000
  H   H910      1.0  0.68245  0.39171  0.21537  1.0000
  H   H911      1.0  0.96591  0.22195  0.34503  1.0000
  S   S158      1.0  0.94831  0.18825  0.27824  1.0000
  H   H912      1.0  0.69846  0.25774  0.20167  1.0000
  H   H913      1.0  0.97450  0.21363  0.04137  1.0000
  Fe  Fe81      1.0  0.67626  0.08150  0.42067  1.0000
  S   S159      1.0  0.70440  0.11900  0.40522  1.0000
  H   H914      1.0  0.94530  0.48106  0.04260  1.0000
  P   P39       1.0  0.83211  0.00806  0.13947  1.0000
  C   C1137     1.0  0.67587  0.26392  0.19433  1.0000
  H   H915      1.0  0.93756  0.44919  0.24532  1.0000
  P   P40       1.0  0.66376  0.30318  0.42481  1.0000
  C   C1138     1.0  0.70748  0.38120  0.39696  1.0000
  C   C1139     1.0  0.70340  0.00624  0.05777  1.0000
  H   H916      1.0  0.77169  0.31709  0.12171  1.0000
  C   C1140     1.0  0.83162  0.46175  0.26559  1.0000
  H   H917      1.0  0.76137  0.07903  0.44873  1.0000
  C   C1141     1.0  0.69179  0.41905  0.21980  1.0000
  C   C1142     1.0  0.94949  0.36436  0.14820  1.0000
  C   C1143     1.0  0.94084  0.40116  0.14564  1.0000
  C   C1144     1.0  0.94939  0.42369  0.17278  1.0000
  H   H918      1.0  0.70439  0.39221  0.34974  1.0000
  H   H919      1.0  0.74064  0.00652  0.28715  1.0000
  H   H920      1.0  0.94287  0.34697  0.12721  1.0000
  H   H921      1.0  0.92754  0.41202  0.12283  1.0000
  C   C1145     1.0  0.66858  0.30086  0.27032  1.0000
  C   C1146     1.0  0.69318  0.24334  0.28497  1.0000
  C   C1147     1.0  0.71963  0.04506  0.10590  1.0000
  C   C1148     1.0  0.71643  0.07578  0.08710  1.0000
  H   H922      1.0  0.86112  0.28917  0.15628  1.0000
  C   C1149     1.0  0.79255  0.31575  0.14121  1.0000
  H   H923      1.0  0.72154  0.10265  0.09816  1.0000
  H   H924      1.0  0.70540  0.09552  0.03969  1.0000
  C   C1150     1.0  0.84892  0.19730  0.23478  1.0000
  C   C1151     1.0  0.86249  0.17031  0.25672  1.0000
  C   C1152     1.0  0.89286  0.16764  0.26950  1.0000
  C   C1153     1.0  0.91004  0.19186  0.26056  1.0000
  C   C1154     1.0  0.89637  0.21834  0.23815  1.0000
  C   C1155     1.0  0.86608  0.22100  0.22549  1.0000
  H   H925      1.0  0.84965  0.15203  0.26431  1.0000
  H   H926      1.0  0.90314  0.14694  0.28673  1.0000
  H   H927      1.0  0.90914  0.23693  0.23070  1.0000
  H   H928      1.0  0.85576  0.24139  0.20815  1.0000
  C   C1156     1.0  0.72743  0.09717  0.31893  1.0000
  C   C1157     1.0  0.72321  0.13293  0.32737  1.0000
  C   C1158     1.0  0.71549  0.13932  0.35342  1.0000
  C   C1159     1.0  0.71105  0.11004  0.37060  1.0000
  C   C1160     1.0  0.71415  0.07433  0.36133  1.0000
  C   C1161     1.0  0.72277  0.06801  0.33604  1.0000
  H   H929      1.0  0.72684  0.15560  0.31451  1.0000
  H   H930      1.0  0.71323  0.16705  0.36047  1.0000
  H   H931      1.0  0.71094  0.05155  0.37438  1.0000
  H   H932      1.0  0.72595  0.04027  0.32977  1.0000
  S   S160      1.0  0.97616  0.28669  0.26488  1.0000
  S   S161      1.0  0.68073  0.02328  0.43739  1.0000
  H   H933      1.0  0.87048  0.40689  0.13211  1.0000
  C   C1162     1.0  0.69682  0.37532  0.36417  1.0000
  H   H934      1.0  0.84088  0.04634  0.28149  1.0000
  H   H935      1.0  0.66073  0.32445  0.12368  1.0000
  C   C1163     1.0  0.66664  0.32576  0.36853  1.0000
  H   H936      1.0  0.66823  0.07133  0.28634  1.0000
  C   C1164     1.0  0.82621  0.10715  0.17961  1.0000
  C   C1165     1.0  0.76103  0.39336  0.16646  1.0000
  C   C1166     1.0  0.69477  0.33021  0.48612  1.0000
  C   C1167     1.0  0.75488  0.46737  0.14976  1.0000
  H   H937      1.0  0.78887  0.39128  0.14048  1.0000
  H   H938      1.0  0.81307  0.29268  0.11206  1.0000
  C   C1168     1.0  0.68446  0.27495  0.12772  1.0000
  C   C1169     1.0  0.85849  0.07695  0.14811  1.0000
  C   C1170     1.0  0.66563  0.45283  0.28056  1.0000
  C   C1171     1.0  0.67567  0.44839  0.20296  1.0000
  C   C1172     1.0  0.82171  0.07058  0.16928  1.0000
  C   C1173     1.0  0.77202  0.44476  0.13986  1.0000
  H   H939      1.0  0.98047  0.23337  0.09518  1.0000
  H   H940      1.0  0.66532  0.25779  0.11710  1.0000
  C   C1174     1.0  0.74971  0.09759  0.48670  1.0000
  C   C1175     1.0  0.95480  0.40377  0.31464  1.0000
  Fe  Fe82      1.0  0.66262  0.04269  0.47277  1.0000
  C   C1176     1.0  0.96676  0.40926  0.20218  1.0000
  C   C1177     1.0  0.79232  0.37123  0.27360  1.0000
  C   C1178     1.0  0.78870  0.33797  0.28622  1.0000
  C   C1179     1.0  0.77801  0.30738  0.26628  1.0000
  C   C1180     1.0  0.77069  0.31007  0.23370  1.0000
  C   C1181     1.0  0.77371  0.34356  0.22069  1.0000
  C   C1182     1.0  0.78508  0.37396  0.24102  1.0000
  P   P41       1.0  0.76613  0.34619  0.17885  1.0000
  C   C1183     1.0  0.79616  0.32767  0.17178  1.0000
  C   C1184     1.0  0.73408  0.31880  0.15760  1.0000
  C   C1185     1.0  0.73636  0.28091  0.15370  1.0000
  C   C1186     1.0  0.69348  0.28022  0.27771  1.0000
  H   H941      1.0  0.97413  0.42668  0.22301  1.0000
  C   C1187     1.0  0.70659  0.33441  0.14635  1.0000
  C   C1188     1.0  0.81595  0.30206  0.13563  1.0000
  C   C1189     1.0  0.84303  0.30016  0.16048  1.0000
  C   C1190     1.0  0.84674  0.31205  0.19091  1.0000
  C   C1191     1.0  0.82345  0.32586  0.19654  1.0000
  H   H942      1.0  0.80103  0.39484  0.28913  1.0000
  H   H943      1.0  0.79457  0.33574  0.31150  1.0000
  H   H944      1.0  0.77575  0.28129  0.27603  1.0000
  H   H945      1.0  0.76314  0.28573  0.21890  1.0000
  H   H946      1.0  0.78861  0.39972  0.23185  1.0000
  H   H947      1.0  0.75718  0.26783  0.16280  1.0000
  H   H948      1.0  0.66887  0.18898  0.38864  1.0000
  H   H949      1.0  0.86759  0.30985  0.21031  1.0000
  H   H950      1.0  0.82677  0.33472  0.22024  1.0000
  S   S162      1.0  0.93886  0.46980  0.17175  1.0000
  C   C1192     1.0  0.70733  0.07163  0.05393  1.0000
  H   H951      1.0  0.79670  0.23396  0.43038  1.0000
  H   H952      1.0  0.66092  0.22335  0.34040  1.0000
  H   H953      1.0  0.81339  0.11926  0.19130  1.0000
  C   C1193     1.0  0.87373  0.48420  0.30987  1.0000
  C   C1194     1.0  0.97395  0.24249  0.04649  1.0000
  H   H954      1.0  0.97925  0.29899  0.10832  1.0000
  H   H955      1.0  0.94576  0.38599  0.32708  1.0000
  C   C1195     1.0  0.67645  0.34756  0.34999  1.0000
  C   C1196     1.0  0.89076  0.45875  0.30241  1.0000
  C   C1197     1.0  0.98376  0.48297  0.37651  1.0000
  C   C1198     1.0  0.97285  0.31670  0.06140  1.0000
  H   H956      1.0  0.66244  0.42548  0.39094  1.0000
  H   H957      1.0  0.71342  0.22990  0.13646  1.0000
  H   H958      1.0  0.71262  0.29240  0.27651  1.0000
  H   H959      1.0  0.73300  0.40589  0.19058  1.0000
  C   C1199     1.0  0.98405  0.41330  0.32878  1.0000
  C   C1200     1.0  0.84698  0.12843  0.17452  1.0000
  C   C1201     1.0  0.80507  0.00588  0.09944  1.0000
  H   H960      1.0  0.89328  0.06740  0.22948  1.0000
  C   C1202     1.0  0.89544  0.01270  0.24717  1.0000
  H   H961      1.0  0.81844  0.46216  0.42848  1.0000
  C   C1203     1.0  0.86311  0.11336  0.15878  1.0000
  H   H962      1.0  0.87901  0.13011  0.15461  1.0000
  S   S163      1.0  0.66429  0.19440  0.16716  1.0000
  C   C1204     1.0  0.68531  0.26248  0.43543  1.0000
  H   H963      1.0  0.89805  0.35492  0.16315  1.0000
  C   C1205     1.0  0.89862  0.37575  0.20750  1.0000
  C   C1206     1.0  0.89013  0.40393  0.22291  1.0000
  C   C1207     1.0  0.87566  0.43405  0.20534  1.0000
  P   P42       1.0  0.90026  0.40303  0.26530  1.0000
  C   C1208     1.0  0.87825  0.43456  0.27640  1.0000
  C   C1209     1.0  0.89510  0.35688  0.27600  1.0000
  C   C1210     1.0  0.86987  0.34653  0.27991  1.0000
  C   C1211     1.0  0.86543  0.31021  0.28619  1.0000
  C   C1212     1.0  0.88633  0.28410  0.28923  1.0000
  C   C1213     1.0  0.91178  0.29431  0.28617  1.0000
  C   C1214     1.0  0.91611  0.33045  0.27944  1.0000
  C   C1215     1.0  0.73148  0.46039  0.24845  1.0000
  H   H964      1.0  0.72342  0.40263  0.40802  1.0000
  C   C1216     1.0  0.71783  0.19852  0.45219  1.0000
  H   H965      1.0  0.66833  0.34285  0.32461  1.0000
  C   C1217     1.0  0.94212  0.44866  0.00175  1.0000
  C   C1218     1.0  0.93771  0.41644  0.28436  1.0000
  C   C1219     1.0  0.95011  0.43935  0.26884  1.0000
  C   C1220     1.0  0.70074  0.03688  0.03904  1.0000
  H   H966      1.0  0.96654  0.32642  0.01315  1.0000
  H   H967      1.0  0.72830  0.47110  0.17642  1.0000
  H   H968      1.0  0.66776  0.24553  0.46918  1.0000
  C   C1221     1.0  0.79761  0.03726  0.08084  1.0000
  C   C1222     1.0  0.81372  0.23120  0.45366  1.0000
  H   H969      1.0  0.80518  0.05492  0.17316  1.0000
  H   H970      1.0  0.91150  0.35341  0.22059  1.0000
  H   H971      1.0  0.72874  0.08421  0.47690  1.0000
  H   H972      1.0  0.85335  0.36610  0.27766  1.0000
  H   H973      1.0  0.84564  0.30206  0.28839  1.0000
  H   H974      1.0  0.88275  0.25582  0.29367  1.0000
  H   H975      1.0  0.92797  0.27394  0.28856  1.0000
  H   H976      1.0  0.93581  0.33767  0.27664  1.0000
  C   C1223     1.0  0.67672  0.33196  0.40140  1.0000
  C   C1224     1.0  0.88542  0.04849  0.24231  1.0000
  C   C1225     1.0  0.89163  0.99815  0.16551  1.0000
  S   S164      1.0  0.97673  0.30361  0.18076  1.0000
  H   H977      1.0  0.83847  0.41802  0.23780  1.0000
  H   H978      1.0  0.66811  0.19844  0.29044  1.0000
  C   C1226     1.0  0.87559  0.40582  0.15731  1.0000
  C   C1227     1.0  0.68756  0.48392  0.20834  1.0000
  H   H979      1.0  0.73534  0.21437  0.41846  1.0000
  H   H980      1.0  0.89224  0.01829  0.18322  1.0000
  C   C1228     1.0  0.74384  0.41638  0.17626  1.0000
  H   H981      1.0  0.70388  0.36325  0.14927  1.0000
  H   H982      1.0  0.75558  0.48392  0.40462  1.0000
  H   H983      1.0  0.67314  0.46507  0.14454  1.0000
  C   C1229     1.0  0.71967  0.42504  0.24260  1.0000
  Fe  Fe83      1.0  0.98196  0.22623  0.27168  1.0000
  C   C1230     1.0  0.86542  0.06012  0.25434  1.0000
  C   C1231     1.0  0.74097  0.45325  0.16814  1.0000
  C   C1232     1.0  0.77518  0.40795  0.14820  1.0000
  H   H984      1.0  0.78311  0.45594  0.12593  1.0000
  H   H985      1.0  0.85029  0.15678  0.18241  1.0000
  H   H986      1.0  0.80916  0.10963  0.47038  1.0000
  C   C1233     1.0  0.89107  0.37653  0.17479  1.0000
  C   C1234     1.0  0.65499  0.23740  0.17804  1.0000
  H   H987      1.0  0.80882  0.46376  0.25101  1.0000
  C   C1235     1.0  0.71164  0.25919  0.13879  1.0000
  H   H988      1.0  0.67732  0.46208  0.26670  1.0000
  H   H989      1.0  0.87070  0.45757  0.21670  1.0000
  C   C1236     1.0  0.84848  0.43609  0.25820  1.0000
  H   H990      1.0  0.71208  0.22687  0.28945  1.0000
  S   S165      1.0  0.66314  0.10194  0.45970  1.0000
  H   H991      1.0  0.83435  0.28256  0.45209  1.0000
  H   H992      1.0  0.68365  0.31977  0.21146  1.0000
  H   H993      1.0  0.69587  0.18881  0.48318  1.0000
  H   H994      1.0  0.97238  0.34541  0.06729  1.0000
  C   C1237     1.0  0.71543  0.48976  0.23162  1.0000
  H   H995      1.0  0.79779  0.17959  0.46152  1.0000
  C   C1238     1.0  0.86796  0.43458  0.17264  1.0000
  H   H996      1.0  0.85769  0.08790  0.25061  1.0000
  C   C1239     1.0  0.69735  0.35979  0.41552  1.0000
  C   C1240     1.0  0.96947  0.30579  0.03077  1.0000
  H   H997      1.0  0.91362  0.45835  0.31677  1.0000
  C   C1241     1.0  0.70927  0.48750  0.38278  1.0000
  C   C1242     1.0  0.79515  0.11211  0.48311  1.0000
  H   H998      1.0  0.95172  0.42482  0.01541  1.0000
  C   C1243     1.0  0.66740  0.29909  0.19970  1.0000
  C   C1244     1.0  0.66740  0.32594  0.46148  1.0000
  C   C1245     1.0  0.70465  0.25358  0.42132  1.0000
  C   C1246     1.0  0.96635  0.34986  0.17789  1.0000
  H   H999      1.0  0.87653  0.03741  0.33829  1.0000
  C   C1247     1.0  0.83807  0.05504  0.15371  1.0000
  H   H1000     1.0  0.70759  0.46662  0.36524  1.0000
  C   C1248     1.0  0.72089  0.22172  0.42980  1.0000
  H   H1001     1.0  0.85677  0.45786  0.15936  1.0000
  C   C1249     1.0  0.97929  0.44891  0.28314  1.0000
  C   C1250     1.0  0.66815  0.22730  0.28543  1.0000
  C   C1251     1.0  0.97738  0.25353  0.07711  1.0000
  C   C1252     1.0  0.71308  0.01031  0.09099  1.0000
  C   C1253     1.0  0.96529  0.01479  0.35318  1.0000
  H   H1002     1.0  0.70712  0.27081  0.40363  1.0000
  H   H1003     1.0  0.73202  0.40231  0.25578  1.0000
  H   H1004     1.0  0.93461  0.99756  0.42780  1.0000
  C   C1254     1.0  0.68265  0.23920  0.45817  1.0000
  H   H1005     1.0  0.71369  0.31968  0.48344  1.0000
  C   C1255     1.0  0.69865  0.20720  0.46629  1.0000
  H   H1006     1.0  0.87887  0.45623  0.00957  1.0000
  C   C1256     1.0  0.84423  0.48576  0.29138  1.0000
  H   H1007     1.0  0.77532  0.00110  0.14141  1.0000
  C   C1257     1.0  0.96977  0.26853  0.02297  1.0000
  H   H1008     1.0  0.75432  0.00995  0.24110  1.0000
  H   H1009     1.0  0.72986  0.17336  0.45804  1.0000
  H   H1010     1.0  0.95691  0.02624  0.36965  1.0000
  C   C1258     1.0  0.83491  0.25856  0.46583  1.0000
  H   H1011     1.0  0.91159  0.04916  0.39296  1.0000
  C   C1259     1.0  0.97491  0.37248  0.20486  1.0000
  C   C1260     1.0  0.85577  0.03623  0.27165  1.0000
  C   C1261     1.0  0.68193  0.31252  0.13153  1.0000
  H   H1012     1.0  0.87071  0.06604  0.13525  1.0000
  H   H1013     1.0  0.83710  0.45949  0.48727  1.0000
  H   H1014     1.0  0.77014  0.05953  0.03591  1.0000
  C   C1262     1.0  0.82083  0.48710  0.44227  1.0000
  C   C1263     1.0  0.97673  0.29058  0.08456  1.0000
  C   C1264     1.0  0.83145  0.48547  0.47565  1.0000
  C   C1265     1.0  0.77642  0.03519  0.05002  1.0000
  H   H1015     1.0  0.70575  0.36517  0.44076  1.0000
  C   C1266     1.0  0.81453  0.20019  0.47144  1.0000
  H   H1016     1.0  0.96801  0.46543  0.38015  1.0000
  C   C1267     1.0  0.93842  0.48032  0.01706  1.0000
  C   C1268     1.0  0.86552  0.00001  0.27647  1.0000
  H   H1017     1.0  0.75305  0.46535  0.26621  1.0000
  C   C1269     1.0  0.76988  0.00092  0.26372  1.0000
  C   C1270     1.0  0.76821  0.09454  0.47087  1.0000
  C   C1271     1.0  0.65960  0.48647  0.13072  1.0000
  S   S166      1.0  0.69055  0.03338  0.99726  1.0000
  H   H1018     1.0  0.65501  0.46065  0.08641  1.0000
  C   C1272     1.0  0.76216  0.99904  0.28971  1.0000
  C   C1273     1.0  0.66584  0.47416  0.30616  1.0000
  H   H1019     1.0  0.91146  0.00375  0.23852  1.0000
  C   C1274     1.0  0.90594  0.02131  0.38422  1.0000
  H   H1020     1.0  0.65378  0.44334  0.18598  1.0000
  H   H1021     1.0  0.65505  0.14405  0.10433  1.0000
  C   C1275     1.0  0.88611  0.01448  0.35319  1.0000
  H   H1022     1.0  0.74613  0.00040  0.01370  1.0000
  C   C1276     1.0  0.76270  0.00186  0.03750  1.0000
  C   C1277     1.0  0.92961  0.99870  0.96543  1.0000
  Fe  Fe84      1.0  0.80000  0.31204  0.80847  1.0000
  S   S167      1.0  0.82553  0.36441  0.82039  1.0000
  S   S168      1.0  0.81926  0.26226  0.79419  1.0000
  Fe  Fe85      1.0  0.74613  0.34801  0.81147  1.0000
  S   S169      1.0  0.76845  0.40360  0.82338  1.0000
  S   S170      1.0  0.70162  0.33904  0.81385  1.0000
  Fe  Fe86      1.0  0.78551  0.38956  0.78595  1.0000
  S   S171      1.0  0.79011  0.43312  0.75336  1.0000
  Fe  Fe87      1.0  0.80700  0.37426  0.85710  1.0000
  S   S172      1.0  0.84044  0.39485  0.90494  1.0000
  S   S173      1.0  0.76036  0.33663  0.77141  1.0000
  S   S174      1.0  0.78431  0.31931  0.84778  1.0000
  H   H1023     1.0  0.77276  0.99964  0.78287  1.0000
  C   C1278     1.0  0.65991  0.05886  0.84749  1.0000
  C   C1279     1.0  0.85783  0.22393  0.51347  1.0000
  Fe  Fe88      1.0  0.85893  0.42239  0.62297  1.0000
  S   S175      1.0  0.90647  0.41272  0.64628  1.0000
  S   S176      1.0  0.83111  0.38937  0.64253  1.0000
  C   C1280     1.0  0.67811  0.01747  0.72755  1.0000
  Fe  Fe89      1.0  0.90539  0.40737  0.59725  1.0000
  S   S177      1.0  0.93433  0.36737  0.58541  1.0000
  C   C1281     1.0  0.80363  0.13338  0.51111  1.0000
  S   S178      1.0  0.85720  0.41298  0.57327  1.0000
  C   C1282     1.0  0.79131  0.06128  0.66831  1.0000
  S   S179      1.0  0.93002  0.19317  0.58196  1.0000
  H   H1024     1.0  0.73288  0.41060  0.75526  1.0000
  S   S180      1.0  0.93394  0.19241  0.89203  1.0000
  C   C1283     1.0  0.67467  0.13933  0.96408  1.0000
  C   C1284     1.0  0.67384  0.36160  0.51859  1.0000
  H   H1025     1.0  0.94654  0.11485  0.70849  1.0000
  H   H1026     1.0  0.90525  0.29114  0.82905  1.0000
  H   H1027     1.0  0.87517  0.22132  0.53647  1.0000
  C   C1285     1.0  0.93199  0.31896  0.58423  1.0000
  C   C1286     1.0  0.95281  0.29910  0.57776  1.0000
  C   C1287     1.0  0.95273  0.26071  0.57771  1.0000
  C   C1288     1.0  0.93122  0.24156  0.58321  1.0000
  C   C1289     1.0  0.90994  0.26126  0.58908  1.0000
  C   C1290     1.0  0.91040  0.29984  0.58982  1.0000
  H   H1028     1.0  0.92759  0.12262  0.51256  1.0000
  C   C1291     1.0  0.90951  0.11311  0.51760  1.0000
  H   H1029     1.0  0.89327  0.24666  0.59345  1.0000
  H   H1030     1.0  0.89417  0.31474  0.59477  1.0000
  C   C1292     1.0  0.83665  0.42134  0.93585  1.0000
  C   C1293     1.0  0.89551  0.32056  0.93883  1.0000
  H   H1031     1.0  0.95936  0.28292  0.92125  1.0000
  S   S181      1.0  0.96321  0.10894  0.77574  1.0000
  H   H1032     1.0  0.82590  0.00617  0.86263  1.0000
  C   C1294     1.0  0.80902  0.45901  0.95756  1.0000
  H   H1033     1.0  0.71918  0.35164  0.53327  1.0000
  C   C1295     1.0  0.66859  0.04590  0.70608  1.0000
  C   C1296     1.0  0.80312  0.42083  0.72386  1.0000
  C   C1297     1.0  0.80417  0.38427  0.71519  1.0000
  C   C1298     1.0  0.81285  0.37525  0.69039  1.0000
  C   C1299     1.0  0.82132  0.40246  0.67440  1.0000
  C   C1300     1.0  0.82076  0.43906  0.68343  1.0000
  C   C1301     1.0  0.81155  0.44820  0.70793  1.0000
  H   H1034     1.0  0.79769  0.36290  0.72713  1.0000
  H   H1035     1.0  0.81288  0.34695  0.68356  1.0000
  H   H1036     1.0  0.82646  0.46033  0.67081  1.0000
  H   H1037     1.0  0.90811  0.44307  0.86489  1.0000
  C   C1302     1.0  0.85182  0.24425  0.82128  1.0000
  C   C1303     1.0  0.86159  0.25228  0.85368  1.0000
  C   C1304     1.0  0.88683  0.23619  0.87495  1.0000
  C   C1305     1.0  0.90296  0.21276  0.86403  1.0000
  C   C1306     1.0  0.89348  0.20512  0.83156  1.0000
  C   C1307     1.0  0.86780  0.22058  0.81027  1.0000
  H   H1038     1.0  0.84937  0.27029  0.86244  1.0000
  H   H1039     1.0  0.89377  0.24183  0.90002  1.0000
  H   H1040     1.0  0.90585  0.18718  0.82297  1.0000
  H   H1041     1.0  0.86039  0.21447  0.78518  1.0000
  H   H1042     1.0  0.92769  0.04878  0.72641  1.0000
  C   C1308     1.0  0.69784  0.47771  0.85385  1.0000
  C   C1309     1.0  0.67265  0.46244  0.85502  1.0000
  C   C1310     1.0  0.92026  0.47821  0.95112  1.0000
  H   H1043     1.0  0.69192  0.14706  0.95691  1.0000
  H   H1044     1.0  0.88856  0.15826  0.94525  1.0000
  C   C1311     1.0  0.91539  0.29767  0.96062  1.0000
  H   H1045     1.0  0.75574  0.02508  0.66420  1.0000
  H   H1046     1.0  0.88341  0.03590  0.53751  1.0000
  H   H1047     1.0  0.85500  0.44350  0.83660  1.0000
  Fe  Fe90      1.0  0.97016  0.16228  0.58578  1.0000
  C   C1312     1.0  0.90022  0.01168  0.90039  1.0000
  C   C1313     1.0  0.96267  0.26283  0.81394  1.0000
  H   H1048     1.0  0.66639  0.08752  0.93889  1.0000
  C   C1314     1.0  0.95162  0.26774  0.66516  1.0000
  H   H1049     1.0  0.65395  0.47883  0.85117  1.0000
  C   C1315     1.0  0.89886  0.33002  0.91112  1.0000
  H   H1050     1.0  0.73911  0.05055  0.77593  1.0000
  C   C1316     1.0  0.65866  0.42732  0.68694  1.0000
  H   H1051     1.0  0.84595  0.07887  0.53764  1.0000
  C   C1317     1.0  0.78497  0.13612  0.52704  1.0000
  C   C1318     1.0  0.96973  0.11306  0.71915  1.0000
  H   H1052     1.0  0.82075  0.23150  0.70850  1.0000
  H   H1053     1.0  0.96132  0.01711  0.79907  1.0000
  C   C1319     1.0  0.92571  0.03106  0.91835  1.0000
  H   H1054     1.0  0.79370  0.25975  0.65646  1.0000
  H   H1055     1.0  0.87352  0.27598  0.50537  1.0000
  C   C1320     1.0  0.68677  0.40773  0.74055  1.0000
  C   C1321     1.0  0.71098  0.42948  0.70786  1.0000
  H   H1056     1.0  0.85889  0.01101  0.75859  1.0000
  H   H1057     1.0  0.95340  0.26353  0.85596  1.0000
  C   C1322     1.0  0.81642  0.26588  0.66921  1.0000
  P   P43       1.0  0.83806  0.15716  0.52569  1.0000
  C   C1323     1.0  0.93334  0.02144  0.72184  1.0000
  H   H1058     1.0  0.95810  0.28106  0.64808  1.0000
  C   C1324     1.0  0.72010  0.41803  0.86514  1.0000
  C   C1325     1.0  0.88464  0.06428  0.53178  1.0000
  H   H1059     1.0  0.97187  0.40741  0.73642  1.0000
  C   C1326     1.0  0.66190  0.00653  0.74458  1.0000
  H   H1060     1.0  0.92437  0.05771  0.52516  1.0000
  H   H1061     1.0  0.92622  0.21897  0.72415  1.0000
  H   H1062     1.0  0.92440  0.32353  0.88342  1.0000
  H   H1063     1.0  0.66809  0.27164  0.71015  1.0000
  C   C1327     1.0  0.94586  0.01701  0.81004  1.0000
  H   H1064     1.0  0.67626  0.37529  0.54061  1.0000
  C   C1328     1.0  0.94579  0.21267  0.69050  1.0000
  C   C1329     1.0  0.94200  0.29369  0.92683  1.0000
  H   H1065     1.0  0.81638  0.21759  0.55174  1.0000
  H   H1066     1.0  0.68385  0.44649  0.66125  1.0000
  H   H1067     1.0  0.65784  0.44930  0.77297  1.0000
  C   C1330     1.0  0.92127  0.03836  0.79766  1.0000
  C   C1331     1.0  0.92211  0.31666  0.90516  1.0000
  C   C1332     1.0  0.92788  0.42052  0.72715  1.0000
  C   C1333     1.0  0.88838  0.13764  0.51752  1.0000
  H   H1068     1.0  0.67907  0.05346  0.86837  1.0000
  H   H1069     1.0  0.88314  0.34730  0.89407  1.0000
  C   C1334     1.0  0.76992  0.07744  0.72563  1.0000
  H   H1070     1.0  0.88332  0.05717  0.80299  1.0000
  C   C1335     1.0  0.95495  0.23009  0.66919  1.0000
  H   H1071     1.0  0.93579  0.42299  0.95692  1.0000
  C   C1336     1.0  0.86525  0.06553  0.85265  1.0000
  C   C1337     1.0  0.83812  0.07100  0.82818  1.0000
  C   C1338     1.0  0.82565  0.10560  0.82346  1.0000
  C   C1339     1.0  0.84038  0.13524  0.84267  1.0000
  C   C1340     1.0  0.86744  0.13018  0.86677  1.0000
  C   C1341     1.0  0.87993  0.09566  0.87164  1.0000
  C   C1342     1.0  0.94566  0.27010  0.83104  1.0000
  C   C1343     1.0  0.90188  0.03980  0.81255  1.0000
  H   H1072     1.0  0.71205  0.48165  0.79896  1.0000
  H   H1073     1.0  0.97423  0.11533  0.67419  1.0000
  C   C1344     1.0  0.86076  0.25882  0.71544  1.0000
  H   H1074     1.0  0.96415  0.21436  0.65532  1.0000
  H   H1075     1.0  0.65657  0.31606  0.83323  1.0000
  C   C1345     1.0  0.78982  0.02024  0.75015  1.0000
  S   S182      1.0  0.97489  0.10350  0.60062  1.0000
  C   C1346     1.0  0.95225  0.26997  0.78158  1.0000
  H   H1076     1.0  0.79140  0.43159  0.91159  1.0000
  C   C1347     1.0  0.77202  0.02137  0.76693  1.0000
  H   H1077     1.0  0.93135  0.44969  0.72685  1.0000
  C   C1348     1.0  0.86836  0.46180  0.82960  1.0000
  H   H1078     1.0  0.80459  0.10953  0.80481  1.0000
  H   H1079     1.0  0.83098  0.16224  0.83885  1.0000
  H   H1080     1.0  0.87893  0.15315  0.88167  1.0000
  H   H1081     1.0  0.90111  0.09314  0.89008  1.0000
  C   C1349     1.0  0.78424  0.09575  0.62097  1.0000
  C   C1350     1.0  0.75686  0.07988  0.60569  1.0000
  C   C1351     1.0  0.93892  0.28418  0.95488  1.0000
  H   H1082     1.0  0.94821  0.18342  0.69335  1.0000
  C   C1352     1.0  0.75810  0.11823  0.51482  1.0000
  C   C1353     1.0  0.80138  0.08667  0.65223  1.0000
  H   H1083     1.0  0.88738  0.30587  0.77239  1.0000
  S   S183      1.0  0.66468  0.99660  0.91051  1.0000
  Fe  Fe91      1.0  0.96477  0.15709  0.87954  1.0000
  C   C1354     1.0  0.72158  0.45511  0.85893  1.0000
  C   C1355     1.0  0.76385  0.04529  0.65261  1.0000
  H   H1084     1.0  0.82655  0.04871  0.81258  1.0000
  C   C1356     1.0  0.78910  0.04850  0.72955  1.0000
  C   C1357     1.0  0.68436  0.43571  0.68332  1.0000
  H   H1085     1.0  0.70276  0.49168  0.74290  1.0000
  H   H1086     1.0  0.95883  0.04123  0.96462  1.0000
  C   C1358     1.0  0.69798  0.34820  0.51444  1.0000
  C   C1359     1.0  0.97069  0.17855  0.98479  1.0000
  C   C1360     1.0  0.83164  0.25004  0.69852  1.0000
  C   C1361     1.0  0.84188  0.08131  0.72782  1.0000
  C   C1362     1.0  0.86509  0.08330  0.71834  1.0000
  C   C1363     1.0  0.88777  0.10818  0.73322  1.0000
  C   C1364     1.0  0.88809  0.13012  0.75852  1.0000
  C   C1365     1.0  0.86533  0.12784  0.76845  1.0000
  C   C1366     1.0  0.84218  0.10388  0.75298  1.0000
  H   H1087     1.0  0.79216  0.11512  0.60860  1.0000
  H   H1088     1.0  0.74350  0.08668  0.58145  1.0000
  S   S184      1.0  0.86408  0.48333  0.62167  1.0000
  H   H1089     1.0  0.74360  0.12053  0.52694  1.0000
  C   C1367     1.0  0.91149  0.16389  0.95646  1.0000
  C   C1368     1.0  0.69496  0.40314  0.86612  1.0000
  H   H1090     1.0  0.86977  0.31881  0.66377  1.0000
  H   H1091     1.0  0.93523  0.31684  0.67721  1.0000
  Fe  Fe92      1.0  0.91174  0.47329  0.64227  1.0000
  H   H1092     1.0  0.87726  0.33084  0.94317  1.0000
  C   C1369     1.0  0.66002  0.41388  0.71599  1.0000
  H   H1093     1.0  0.91787  0.05489  0.77722  1.0000
  H   H1094     1.0  0.66526  0.33275  0.74514  1.0000
  H   H1095     1.0  0.96575  0.26428  0.76881  1.0000
  C   C1370     1.0  0.66677  0.16276  0.98351  1.0000
  H   H1096     1.0  0.86555  0.06584  0.69929  1.0000
  H   H1097     1.0  0.90549  0.11005  0.72564  1.0000
  H   H1098     1.0  0.90618  0.14854  0.77066  1.0000
  H   H1099     1.0  0.86565  0.14450  0.78830  1.0000
  H   H1100     1.0  0.87413  0.35910  0.71660  1.0000
  C   C1371     1.0  0.86115  0.42826  0.96384  1.0000
  C   C1372     1.0  0.67128  0.42532  0.86113  1.0000
  H   H1101     1.0  0.81855  0.47172  0.87484  1.0000
  C   C1373     1.0  0.95063  0.39660  0.73222  1.0000
  C   C1374     1.0  0.96213  0.01353  0.72850  1.0000
  H   H1102     1.0  0.68118  0.05425  0.69286  1.0000
  C   C1375     1.0  0.83672  0.19628  0.50155  1.0000
  H   H1103     1.0  0.88136  0.41605  0.96654  1.0000
  C   C1376     1.0  0.93971  0.02539  0.95084  1.0000
  H   H1104     1.0  0.93519  0.05020  0.90731  1.0000
  H   H1105     1.0  0.72853  0.00017  0.53905  1.0000
  H   H1106     1.0  0.66311  0.00967  0.82313  1.0000
  H   H1107     1.0  0.88268  0.42522  0.71733  1.0000
  S   S185      1.0  0.91464  0.46747  0.59488  1.0000
  Fe  Fe93      1.0  0.86637  0.47363  0.57376  1.0000
  H   H1108     1.0  0.81857  0.30343  0.63437  1.0000
  H   H1109     1.0  0.76898  0.09951  0.70981  1.0000
  H   H1110     1.0  0.98395  0.25159  0.82571  1.0000
  H   H1111     1.0  0.87215  0.24599  0.73796  1.0000
  C   C1377     1.0  0.84155  0.21966  0.60187  1.0000
  C   C1378     1.0  0.86417  0.20443  0.62720  1.0000
  C   C1379     1.0  0.87854  0.17418  0.62193  1.0000
  C   C1380     1.0  0.87034  0.15912  0.59138  1.0000
  C   C1381     1.0  0.84778  0.17447  0.56575  1.0000
  C   C1382     1.0  0.83343  0.20485  0.57126  1.0000
  H   H1112     1.0  0.79094  0.15201  0.54876  1.0000
  H   H1113     1.0  0.83084  0.24361  0.60576  1.0000
  H   H1114     1.0  0.87103  0.21665  0.65072  1.0000
  H   H1115     1.0  0.89674  0.16309  0.64128  1.0000
  H   H1116     1.0  0.88256  0.13661  0.58776  1.0000
  C   C1383     1.0  0.71217  0.41538  0.73639  1.0000
  P   P44       1.0  0.81284  0.04873  0.70867  1.0000
  H   H1117     1.0  0.73833  0.40050  0.86891  1.0000
  H   H1118     1.0  0.81063  0.47660  0.71426  1.0000
  C   C1384     1.0  0.90042  0.40676  0.72159  1.0000
  C   C1385     1.0  0.66482  0.32567  0.79134  1.0000
  C   C1386     1.0  0.94582  0.35882  0.73130  1.0000
  C   C1387     1.0  0.91803  0.34478  0.72460  1.0000
  C   C1388     1.0  0.89555  0.36906  0.72068  1.0000
  P   P45       1.0  0.91216  0.29612  0.72481  1.0000
  C   C1389     1.0  0.93026  0.27089  0.70414  1.0000
  C   C1390     1.0  0.92485  0.28480  0.76609  1.0000
  C   C1391     1.0  0.91856  0.28561  0.81590  1.0000
  H   H1119     1.0  0.96905  0.24591  0.57282  1.0000
  C   C1392     1.0  0.90831  0.29341  0.78364  1.0000
  C   C1393     1.0  0.93348  0.23294  0.70795  1.0000
  C   C1394     1.0  0.74664  0.05495  0.62163  1.0000
  C   C1395     1.0  0.81048  0.43678  0.93286  1.0000
  C   C1396     1.0  0.75198  0.07825  0.74233  1.0000
  C   C1397     1.0  0.93888  0.28804  0.68208  1.0000
  C   C1398     1.0  0.87466  0.28424  0.70344  1.0000
  C   C1399     1.0  0.85943  0.29930  0.67364  1.0000
  C   C1400     1.0  0.83040  0.29027  0.65669  1.0000
  H   H1120     1.0  0.96922  0.31337  0.57273  1.0000
  H   H1121     1.0  0.72539  0.04275  0.60980  1.0000
  H   H1122     1.0  0.82485  0.10296  0.76109  1.0000
  H   H1123     1.0  0.68792  0.39672  0.76283  1.0000
  H   H1124     1.0  0.97560  0.12010  0.98485  1.0000
  H   H1125     1.0  0.73081  0.43544  0.70480  1.0000
  S   S186      1.0  0.95585  0.10092  0.85746  1.0000
  C   C1401     1.0  0.86509  0.12564  0.52451  1.0000
  C   C1402     1.0  0.90770  0.07649  0.52476  1.0000
  H   H1126     1.0  0.96368  0.34062  0.73547  1.0000
  H   H1127     1.0  0.82226  0.09974  0.66355  1.0000
  H   H1128     1.0  0.74128  0.46597  0.85814  1.0000
  H   H1129     1.0  0.89081  0.16598  0.51267  1.0000
  C   C1403     1.0  0.90688  0.01959  0.83989  1.0000
  C   C1404     1.0  0.92161  0.20007  0.96235  1.0000
  H   H1130     1.0  0.93862  0.48346  0.84831  1.0000
  C   C1405     1.0  0.86344  0.08872  0.53172  1.0000
  H   H1131     1.0  0.69380  0.37419  0.87037  1.0000
  C   C1406     1.0  0.98538  0.11340  0.69961  1.0000
  H   H1132     1.0  0.73722  0.10061  0.73924  1.0000
  H   H1133     1.0  0.91339  0.47696  0.92561  1.0000
  P   P46       1.0  0.88140  0.02064  0.85855  1.0000
  C   C1407     1.0  0.75308  0.05022  0.76304  1.0000
  H   H1134     1.0  0.78858  0.47032  0.95521  1.0000
  C   C1408     1.0  0.83368  0.46658  0.98529  1.0000
  H   H1135     1.0  0.92306  0.10710  0.95956  1.0000
  C   C1409     1.0  0.85979  0.45095  0.98833  1.0000
  C   C1410     1.0  0.82873  0.00437  0.70995  1.0000
  H   H1136     1.0  0.90618  0.22188  0.95558  1.0000
  C   C1411     1.0  0.66022  0.10591  0.95379  1.0000
  H   H1137     1.0  0.98547  0.37392  0.57099  1.0000
  H   H1138     1.0  0.85963  0.48765  0.92430  1.0000
  C   C1412     1.0  0.93319  0.44768  0.96881  1.0000
  Fe  Fe94      1.0  0.98126  0.11938  0.82929  1.0000
  C   C1413     1.0  0.98390  0.11027  0.75222  1.0000
  H   H1139     1.0  0.66112  0.37311  0.64785  1.0000
  C   C1414     1.0  0.95095  0.99671  0.83719  1.0000
  S   S187      1.0  0.66892  0.02443  0.52259  1.0000
  H   H1140     1.0  0.97819  0.03515  0.73758  1.0000
  C   C1415     1.0  0.89829  0.46163  0.84552  1.0000
  C   C1416     1.0  0.85560  0.48530  0.80436  1.0000
  C   C1417     1.0  0.93151  0.99784  0.85202  1.0000
  C   C1418     1.0  0.93092  0.13508  0.96448  1.0000
  C   C1419     1.0  0.96050  0.14241  0.97874  1.0000
  C   C1420     1.0  0.91552  0.48467  0.83599  1.0000
  H   H1141     1.0  0.89174  0.48782  0.74523  1.0000
  H   H1142     1.0  0.88969  0.00068  0.70325  1.0000
  H   H1143     1.0  0.69810  0.00374  0.73111  1.0000
  H   H1144     1.0  0.80388  0.99717  0.75336  1.0000
  H   H1145     1.0  0.83240  0.48506  0.79175  1.0000
  H   H1146     1.0  0.91220  0.29023  0.98175  1.0000
  P   P47       1.0  0.96460  0.25452  0.98306  1.0000
  C   C1421     1.0  0.95132  0.20774  0.97618  1.0000
  H   H1147     1.0  0.65724  0.33256  0.60315  1.0000
  C   C1422     1.0  0.69314  0.99823  0.55392  1.0000
  C   C1423     1.0  0.85696  0.25490  0.49577  1.0000
  H   H1148     1.0  0.67769  0.18891  0.99112  1.0000
  S   S188      1.0  0.98632  0.03987  0.53758  1.0000
  H   H1149     1.0  0.86998  0.49493  0.68745  1.0000
  C   C1424     1.0  0.94964  0.98781  0.33123  1.0000
  Fe  Fe95      1.0  0.78940  0.56827  0.35002  1.0000
  S   S189      1.0  0.78923  0.62930  0.35694  1.0000
  S   S190      1.0  0.79838  0.52057  0.38437  1.0000
  Fe  Fe96      1.0  0.77959  0.57531  0.27929  1.0000
  S   S191      1.0  0.77756  0.63666  0.28088  1.0000
  S   S192      1.0  0.78130  0.53799  0.23965  1.0000
  Fe  Fe97      1.0  0.81578  0.63341  0.32734  1.0000
  S   S193      1.0  0.86031  0.65683  0.33642  1.0000
  Fe  Fe98      1.0  0.75041  0.62840  0.30975  1.0000
  S   S194      1.0  0.71268  0.66620  0.30596  1.0000
  S   S195      1.0  0.81868  0.57244  0.32417  1.0000
  S   S196      1.0  0.74949  0.56687  0.30442  1.0000
  C   C1425     1.0  0.91727  0.98170  0.16780  1.0000
  Fe  Fe99      1.0  0.91160  0.57342  0.09630  1.0000
  S   S197      1.0  0.86337  0.57687  0.07436  1.0000
  S   S198      1.0  0.94655  0.61195  0.09408  1.0000
  Fe  Fe100     1.0  0.86394  0.55928  0.12155  1.0000
  S   S199      1.0  0.84049  0.59084  0.14733  1.0000
  Fe  Fe101     1.0  0.86395  0.51645  0.06324  1.0000
  C   C1426     1.0  0.97949  0.72119  0.24462  1.0000
  S   S200      1.0  0.91213  0.56064  0.14406  1.0000
  S   S201      1.0  0.91252  0.51400  0.08271  1.0000
  Fe  Fe102     1.0  0.95391  0.83679  0.36532  1.0000
  S   S202      1.0  0.90868  0.82031  0.35987  1.0000
  H   H1150     1.0  0.91611  0.51463  0.21773  1.0000
  C   C1427     1.0  0.81879  0.98107  0.16357  1.0000
  S   S203      1.0  0.94081  0.77933  0.05583  1.0000
  H   H1151     1.0  0.65984  0.59366  0.21549  1.0000
  C   C1428     1.0  0.79779  0.99206  0.26708  1.0000
  H   H1152     1.0  0.68827  0.72912  0.25992  1.0000
  C   C1429     1.0  0.95617  0.68450  0.45060  1.0000
  H   H1153     1.0  0.73193  0.65403  0.21358  1.0000
  Fe  Fe103     1.0  0.98119  0.81580  0.07236  1.0000
  C   C1430     1.0  0.94335  0.65938  0.08615  1.0000
  C   C1431     1.0  0.91721  0.67513  0.06709  1.0000
  C   C1432     1.0  0.91659  0.71199  0.05814  1.0000
  C   C1433     1.0  0.94197  0.73350  0.06855  1.0000
  C   C1434     1.0  0.85809  0.62289  0.99507  1.0000
  C   C1435     1.0  0.96775  0.70019  0.01553  1.0000
  H   H1154     1.0  0.89768  0.65869  0.05859  1.0000
  H   H1155     1.0  0.89640  0.72383  0.04297  1.0000
  H   H1156     1.0  0.74512  0.60123  0.18789  1.0000
  H   H1157     1.0  0.85716  0.81795  0.27364  1.0000
  C   C1436     1.0  0.81317  0.52060  0.42663  1.0000
  C   C1437     1.0  0.98015  0.65513  0.18137  1.0000
  C   C1438     1.0  0.81642  0.55259  0.44485  1.0000
  H   H1158     1.0  0.81057  0.57856  0.43327  1.0000
  C   C1439     1.0  0.79957  0.55245  0.21566  1.0000
  C   C1440     1.0  0.80738  0.52656  0.19759  1.0000
  C   C1441     1.0  0.82017  0.53761  0.17671  1.0000
  C   C1442     1.0  0.82502  0.57478  0.17355  1.0000
  C   C1443     1.0  0.81730  0.60052  0.19177  1.0000
  C   C1444     1.0  0.80518  0.58944  0.21311  1.0000
  C   C1445     1.0  0.91560  0.59159  0.46580  1.0000
  H   H1159     1.0  0.82599  0.51751  0.16284  1.0000
  H   H1160     1.0  0.82087  0.62933  0.18947  1.0000
  H   H1161     1.0  0.79943  0.60968  0.22694  1.0000
  C   C1446     1.0  0.87252  0.70280  0.34170  1.0000
  C   C1447     1.0  0.85503  0.73190  0.34245  1.0000
  C   C1448     1.0  0.86627  0.76790  0.34748  1.0000
  C   C1449     1.0  0.89490  0.77505  0.35147  1.0000
  C   C1450     1.0  0.91215  0.74598  0.34999  1.0000
  C   C1451     1.0  0.90105  0.71001  0.34558  1.0000
  H   H1162     1.0  0.83303  0.72664  0.33960  1.0000
  H   H1163     1.0  0.85282  0.79026  0.34866  1.0000
  H   H1164     1.0  0.93426  0.75113  0.35326  1.0000
  H   H1165     1.0  0.91464  0.68745  0.34550  1.0000
  H   H1166     1.0  0.75847  0.94508  0.04638  1.0000
  C   C1452     1.0  0.69513  0.62666  0.21639  1.0000
  C   C1453     1.0  0.96389  0.67366  0.33552  1.0000
  H   H1167     1.0  0.94859  0.71628  0.00408  1.0000
  C   C1454     1.0  0.66868  0.92516  0.44969  1.0000
  S   S204      1.0  0.95700  0.89377  0.34949  1.0000
  H   H1168     1.0  0.66926  0.54388  0.40864  1.0000
  P   P48       1.0  0.95253  0.69368  0.21405  1.0000
  S   S205      1.0  0.83072  0.49643  0.01483  1.0000
  C   C1455     1.0  0.97737  0.73881  0.43795  1.0000
  C   C1456     1.0  0.73969  0.52316  0.42887  1.0000
  H   H1169     1.0  0.80336  0.99375  0.24667  1.0000
  C   C1457     1.0  0.67193  0.72029  0.17021  1.0000
  H   H1170     1.0  0.92304  0.53521  0.01188  1.0000
  C   C1458     1.0  0.88726  0.59321  0.39991  1.0000
  Fe  Fe104     1.0  0.90951  0.50152  0.12929  1.0000
  C   C1459     1.0  0.85346  0.58511  0.99296  1.0000
  C   C1460     1.0  0.96505  0.64022  0.32094  1.0000
  C   C1461     1.0  0.97935  0.67893  0.36807  1.0000
  C   C1462     1.0  0.77886  0.96205  0.17701  1.0000
  C   C1463     1.0  0.82669  0.55089  0.47820  1.0000
  H   H1171     1.0  0.87620  0.59392  0.37441  1.0000
  C   C1464     1.0  0.89918  0.68737  0.26221  1.0000
  C   C1465     1.0  0.88360  0.65507  0.24999  1.0000
  C   C1466     1.0  0.88826  0.63531  0.22624  1.0000
  C   C1467     1.0  0.90843  0.64763  0.21469  1.0000
  C   C1468     1.0  0.92508  0.67927  0.22773  1.0000
  C   C1469     1.0  0.91989  0.69944  0.25122  1.0000
  C   C1470     1.0  0.91695  0.95550  0.14522  1.0000
  H   H1172     1.0  0.90225  0.85474  0.29389  1.0000
  H   H1173     1.0  0.90482  0.77229  0.09922  1.0000
  C   C1471     1.0  0.78236  0.98849  0.31914  1.0000
  C   C1472     1.0  0.98624  0.96243  0.47153  1.0000
  C   C1473     1.0  0.97132  0.62131  0.22165  1.0000
  C   C1474     1.0  0.67869  0.59441  0.20997  1.0000
  H   H1174     1.0  0.76098  0.53037  0.44630  1.0000
  C   C1475     1.0  0.79690  0.93821  0.19943  1.0000
  H   H1175     1.0  0.96350  0.61965  0.24041  1.0000
  H   H1176     1.0  0.87248  0.53086  0.22712  1.0000
  C   C1476     1.0  0.88110  0.90522  0.29546  1.0000
  C   C1477     1.0  0.88179  0.86792  0.28890  1.0000
  H   H1177     1.0  0.83972  0.57281  0.00336  1.0000
  C   C1478     1.0  0.90913  0.71087  0.15586  1.0000
  C   C1479     1.0  0.89758  0.72994  0.12753  1.0000
  C   C1480     1.0  0.68570  0.93859  0.48002  1.0000
  H   H1178     1.0  0.69874  0.97932  0.04674  1.0000
  C   C1481     1.0  0.96850  0.68113  0.09693  1.0000
  H   H1179     1.0  0.89517  0.70300  0.28028  1.0000
  H   H1180     1.0  0.86769  0.64561  0.25870  1.0000
  H   H1181     1.0  0.87610  0.61046  0.21644  1.0000
  H   H1182     1.0  0.91109  0.63214  0.19573  1.0000
  H   H1183     1.0  0.93177  0.72436  0.26133  1.0000
  C   C1482     1.0  0.92924  0.70155  0.43907  1.0000
  H   H1184     1.0  0.80352  0.49785  0.19971  1.0000
  H   H1185     1.0  0.95656  0.88958  0.20712  1.0000
  P   P49       1.0  0.95984  0.63961  0.46769  1.0000
  C   C1483     1.0  0.91820  0.52881  0.23951  1.0000
  H   H1186     1.0  0.95383  0.77025  0.23459  1.0000
  C   C1484     1.0  0.91356  0.75790  0.12140  1.0000
  H   H1187     1.0  0.87707  0.56384  0.27638  1.0000
  H   H1188     1.0  0.65872  0.94382  0.43041  1.0000
  H   H1189     1.0  0.72826  0.72943  0.24187  1.0000
  H   H1190     1.0  0.89657  0.68887  0.15982  1.0000
  H   H1191     1.0  0.87639  0.72263  0.11005  1.0000
  H   H1192     1.0  0.66512  0.53807  0.24983  1.0000
  H   H1193     1.0  0.66509  0.56935  0.35100  1.0000
  H   H1194     1.0  0.71699  0.54379  0.17755  1.0000
  C   C1485     1.0  0.67429  0.67004  0.29156  1.0000
  H   H1195     1.0  0.95278  0.63656  0.29571  1.0000
  C   C1486     1.0  0.92651  0.73693  0.42728  1.0000
  C   C1487     1.0  0.76969  0.97066  0.05596  1.0000
  C   C1488     1.0  0.91229  0.61426  0.41517  1.0000
  C   C1489     1.0  0.88522  0.98842  0.26367  1.0000
  H   H1196     1.0  0.71797  0.72386  0.18442  1.0000
  H   H1197     1.0  0.97857  0.67966  0.16800  1.0000
  C   C1490     1.0  0.98455  0.58716  0.44138  1.0000
  H   H1198     1.0  0.97852  0.70496  0.37925  1.0000
  C   C1491     1.0  0.66469  0.88753  0.44407  1.0000
  C   C1492     1.0  0.71902  0.62916  0.20837  1.0000
  H   H1199     1.0  0.97453  0.75437  0.18826  1.0000
  H   H1200     1.0  0.69228  0.69912  0.48674  1.0000
  C   C1493     1.0  0.66267  0.70139  0.29999  1.0000
  H   H1201     1.0  0.96292  0.57880  0.42596  1.0000
  C   C1494     1.0  0.93678  0.71978  0.17835  1.0000
  H   H1202     1.0  0.83108  0.50584  0.29677  1.0000
  C   C1495     1.0  0.96087  0.97219  0.31067  1.0000
  P   P50       1.0  0.85431  0.97020  0.30089  1.0000
  H   H1203     1.0  0.96413  0.53030  0.25767  1.0000
  H   H1204     1.0  0.67403  0.83431  0.46393  1.0000
  H   H1205     1.0  0.85949  0.95538  0.19074  1.0000
  C   C1496     1.0  0.98316  0.59022  0.21370  1.0000
  C   C1497     1.0  0.85635  0.84714  0.27755  1.0000
  C   C1498     1.0  0.96926  0.65389  0.20514  1.0000
  H   H1206     1.0  0.68951  0.64963  0.22788  1.0000
  C   C1499     1.0  0.70039  0.72370  0.19233  1.0000
  H   H1207     1.0  0.94417  0.65214  0.01848  1.0000
  C   C1500     1.0  0.71536  0.54006  0.42992  1.0000
  C   C1501     1.0  0.68669  0.56389  0.19656  1.0000
  H   H1208     1.0  0.95379  0.78778  0.13826  1.0000
  Fe  Fe105     1.0  0.98521  0.87000  0.32646  1.0000
  C   C1502     1.0  0.86538  0.98848  0.14067  1.0000
  C   C1503     1.0  0.89361  0.53791  0.24475  1.0000
  C   C1504     1.0  0.83696  0.95760  0.18660  1.0000
  P   P51       1.0  0.66586  0.52185  0.18788  1.0000
  C   C1505     1.0  0.89101  0.94587  0.12028  1.0000
  C   C1506     1.0  0.89626  0.55652  0.27256  1.0000
  H   H1209     1.0  0.92917  0.97840  0.33070  1.0000
  H   H1210     1.0  0.79562  0.94823  0.10094  1.0000
  C   C1507     1.0  0.96529  0.66408  0.02370  1.0000
  C   C1508     1.0  0.94846  0.55702  0.29021  1.0000
  S   S206      1.0  0.86095  0.49945  0.10911  1.0000
  H   H1211     1.0  0.66368  0.61941  0.26503  1.0000
  C   C1509     1.0  0.82595  0.93604  0.20425  1.0000
  H   H1212     1.0  0.98213  0.87836  0.17133  1.0000
  H   H1213     1.0  0.92027  0.63105  0.40104  1.0000
  C   C1510     1.0  0.68360  0.72666  0.23482  1.0000
  C   C1511     1.0  0.96784  0.71786  0.08831  1.0000
  H   H1214     1.0  0.94830  0.78295  0.41750  1.0000
  C   C1512     1.0  0.67713  0.86330  0.46896  1.0000
  C   C1513     1.0  0.92553  0.51092  0.99945  1.0000
  H   H1215     1.0  0.94904  0.95072  0.29403  1.0000
  C   C1514     1.0  0.70622  0.72697  0.22462  1.0000
  C   C1515     1.0  0.81036  0.97977  0.32265  1.0000
  H   H1216     1.0  0.98402  0.56486  0.22581  1.0000
  H   H1217     1.0  0.84824  0.63984  0.00750  1.0000
  H   H1218     1.0  0.75636  0.96428  0.17335  1.0000
  H   H1219     1.0  0.92513  0.58046  0.31666  1.0000
  C   C1516     1.0  0.68795  0.53082  0.40733  1.0000
  C   C1517     1.0  0.91134  0.95632  0.39293  1.0000
  C   C1518     1.0  0.89113  0.94934  0.36211  1.0000
  C   C1519     1.0  0.98222  0.61199  0.33884  1.0000
  H   H1220     1.0  0.71784  0.56030  0.44831  1.0000
  H   H1221     1.0  0.90124  0.92029  0.30575  1.0000
  C   C1520     1.0  0.85487  0.92235  0.29029  1.0000
  C   C1521     1.0  0.82933  0.90118  0.27875  1.0000
  C   C1522     1.0  0.83012  0.86378  0.27235  1.0000
  H   H1222     1.0  0.89324  0.96098  0.26664  1.0000
  C   C1523     1.0  0.92355  0.56606  0.29523  1.0000
  C   C1524     1.0  0.87896  0.97842  0.34161  1.0000
  H   H1223     1.0  0.67709  0.72185  0.31564  1.0000
  P   P52       1.0  0.98374  0.56877  0.32003  1.0000
  H   H1224     1.0  0.89082  0.92555  0.10276  1.0000
  H   H1225     1.0  0.92140  0.93379  0.40828  1.0000
  H   H1226     1.0  0.88546  0.92117  0.35458  1.0000
  H   H1227     1.0  0.80880  0.91312  0.27521  1.0000
  H   H1228     1.0  0.81048  0.84743  0.26410  1.0000
  H   H1229     1.0  0.78833  0.92151  0.21303  1.0000
  H   H1230     1.0  0.90563  0.74982  0.41804  1.0000
  C   C1525     1.0  0.72654  0.59937  0.19403  1.0000
  H   H1231     1.0  0.66808  0.71801  0.14538  1.0000
  H   H1232     1.0  0.83996  0.91742  0.22147  1.0000
  C   C1526     1.0  0.95057  0.75559  0.42684  1.0000
  C   C1527     1.0  0.92667  0.61369  0.44830  1.0000
  H   H1233     1.0  0.95105  0.69565  0.32167  1.0000
  C   C1528     1.0  0.94552  0.53810  0.26221  1.0000
  H   H1234     1.0  0.95189  0.51432  0.34096  1.0000
  C   C1529     1.0  0.71052  0.56680  0.18822  1.0000
  H   H1235     1.0  0.77632  0.98754  0.33929  1.0000
  C   C1530     1.0  0.95286  0.74761  0.17178  1.0000
  H   H1236     1.0  0.88339  0.50307  0.32978  1.0000
  C   C1531     1.0  0.87621  0.57169  0.41747  1.0000
  C   C1532     1.0  0.94123  0.76662  0.14345  1.0000
  C   C1533     1.0  0.98022  0.70344  0.44985  1.0000
  C   C1534     1.0  0.86530  0.96220  0.11799  1.0000
  H   H1237     1.0  0.91028  0.68772  0.43930  1.0000
  H   H1238     1.0  0.93682  0.94262  0.14707  1.0000
  C   C1535     1.0  0.89038  0.57087  0.45039  1.0000
  H   H1239     1.0  0.84555  0.95400  0.09859  1.0000
  H   H1240     1.0  0.85656  0.55582  0.40556  1.0000
  S   S207      1.0  0.97933  0.81224  0.33947  1.0000
  C   C1536     1.0  0.97470  0.51073  0.35423  1.0000
  H   H1241     1.0  0.71561  0.98633  0.10526  1.0000
  H   H1242     1.0  0.82570  0.97156  0.34562  1.0000
  S   S208      1.0  0.98434  0.87271  0.09362  1.0000
  H   H1243     1.0  0.97880  0.93443  0.46571  1.0000
  H   H1244     1.0  0.68892  0.96773  0.48457  1.0000
  H   H1245     1.0  0.88167  0.55423  0.46399  1.0000
  C   C1537     1.0  0.65520  0.64390  0.27130  1.0000
  C   C1538     1.0  0.81833  0.98184  0.29669  1.0000
  C   C1539     1.0  0.79068  0.97264  0.08685  1.0000
  H   H1246     1.0  0.72482  0.51696  0.23722  1.0000
  C   C1540     1.0  0.65512  0.72285  0.21286  1.0000
  C   C1541     1.0  0.97872  0.88089  0.21694  1.0000
  S   S209      1.0  0.97371  0.88561  0.27463  1.0000
  C   C1542     1.0  0.78971  0.98316  0.15902  1.0000
  C   C1543     1.0  0.97399  0.75790  0.24938  1.0000
  C   C1544     1.0  0.68472  0.50488  0.38327  1.0000
  H   H1247     1.0  0.93743  0.98910  0.18714  1.0000
  C   C1545     1.0  0.91883  0.99226  0.40394  1.0000
  H   H1248     1.0  0.67769  0.49991  0.31172  1.0000
  C   C1546     1.0  0.73661  0.49686  0.40537  1.0000
  H   H1249     1.0  0.75288  0.49605  0.14372  1.0000
  H   H1250     1.0  0.92609  0.59035  0.49130  1.0000
  Fe  Fe106     1.0  0.74225  0.90675  0.74337  1.0000
  S   S210      1.0  0.74569  0.84600  0.74838  1.0000
  S   S211      1.0  0.73304  0.94551  0.77774  1.0000
  Fe  Fe107     1.0  0.74751  0.90422  0.67849  1.0000
  S   S212      1.0  0.74997  0.84279  0.67888  1.0000
  S   S213      1.0  0.75505  0.93381  0.63873  1.0000
  Fe  Fe108     1.0  0.71476  0.84372  0.69738  1.0000
  C   C1547     1.0  0.96138  0.88155  0.91332  1.0000
  Fe  Fe109     1.0  0.78107  0.85006  0.72990  1.0000
  S   S214      1.0  0.81974  0.81175  0.74963  1.0000
  S   S215      1.0  0.70994  0.90479  0.69293  1.0000
  S   S216      1.0  0.78019  0.91157  0.72888  1.0000
  H   H1251     1.0  0.81475  0.57695  0.91842  1.0000
  C   C1548     1.0  0.67445  0.55077  0.85750  1.0000
  C   C1549     1.0  0.86670  0.56300  0.97771  1.0000
  S   S217      1.0  0.95665  0.81321  0.78939  1.0000
  H   H1252     1.0  0.71409  0.98779  0.81910  1.0000
  H   H1253     1.0  0.86223  0.52663  0.77534  1.0000
  C   C1550     1.0  0.90955  0.57723  0.74157  1.0000
  S   S218      1.0  0.68995  0.89985  0.88597  1.0000
  C   C1551     1.0  0.69558  0.51149  0.75585  1.0000
  H   H1254     1.0  0.68122  0.76172  0.84056  1.0000
  H   H1255     1.0  0.82169  0.92696  0.66522  1.0000
  H   H1256     1.0  0.88787  0.57911  0.82217  1.0000
  C   C1552     1.0  0.67228  0.71148  0.71061  1.0000
  C   C1553     1.0  0.90486  0.97834  0.94763  1.0000
  H   H1257     1.0  0.70600  0.57211  0.90214  1.0000
  C   C1554     1.0  0.96451  0.62449  0.69834  1.0000
  C   C1555     1.0  0.69564  0.72706  0.49575  1.0000
  C   C1556     1.0  0.91595  0.50986  0.96628  1.0000
  C   C1557     1.0  0.95157  0.54869  0.69072  1.0000
  C   C1558     1.0  0.93977  0.57181  0.66494  1.0000
  C   C1559     1.0  0.94638  0.60952  0.66873  1.0000
  H   H1258     1.0  0.65873  0.79860  0.50842  1.0000
  H   H1259     1.0  0.66179  0.86194  0.62601  1.0000
  H   H1260     1.0  0.92566  0.56063  0.64208  1.0000
  H   H1261     1.0  0.93726  0.62720  0.64865  1.0000
  C   C1560     1.0  0.73058  0.95813  0.60619  1.0000
  C   C1561     1.0  0.92856  0.58205  0.81674  1.0000
  Fe  Fe110     1.0  0.66501  0.99024  0.95974  1.0000
  H   H1262     1.0  0.66271  0.99228  0.57586  1.0000
  C   C1562     1.0  0.68365  0.77481  0.82074  1.0000
  C   C1563     1.0  0.73969  0.97050  0.58270  1.0000
  H   H1263     1.0  0.67227  0.58495  0.80235  1.0000
  H   H1264     1.0  0.89715  0.95746  0.95897  1.0000
  H   H1265     1.0  0.80139  0.98807  0.66172  1.0000
  C   C1564     1.0  0.85762  0.81338  0.75915  1.0000
  C   C1565     1.0  0.87339  0.84622  0.76428  1.0000
  C   C1566     1.0  0.90359  0.84571  0.77325  1.0000
  C   C1567     1.0  0.91839  0.81246  0.77682  1.0000
  C   C1568     1.0  0.90258  0.77972  0.77141  1.0000
  C   C1569     1.0  0.87250  0.78024  0.76291  1.0000
  H   H1266     1.0  0.86235  0.87185  0.76189  1.0000
  H   H1267     1.0  0.91559  0.87119  0.77740  1.0000
  H   H1268     1.0  0.91354  0.75394  0.77405  1.0000
  H   H1269     1.0  0.86062  0.75467  0.75911  1.0000
  C   C1570     1.0  0.71996  0.93219  0.80684  1.0000
  C   C1571     1.0  0.71232  0.95930  0.82407  1.0000
  C   C1572     1.0  0.70267  0.94984  0.84798  1.0000
  C   C1573     1.0  0.70082  0.91315  0.85516  1.0000
  C   C1574     1.0  0.70849  0.88608  0.83793  1.0000
  C   C1575     1.0  0.71783  0.89551  0.81380  1.0000
  C   C1576     1.0  0.86288  0.95838  0.73960  1.0000
  H   H1270     1.0  0.69729  0.97089  0.86142  1.0000
  C   C1577     1.0  0.70082  0.50597  0.78772  1.0000
  H   H1271     1.0  0.72382  0.87446  0.80092  1.0000
  H   H1272     1.0  0.73892  0.57661  0.83228  1.0000
  C   C1578     1.0  0.96209  0.67898  0.55280  1.0000
  H   H1273     1.0  0.75283  0.86249  0.50775  1.0000
  C   C1579     1.0  0.98481  0.61991  0.56231  1.0000
  C   C1580     1.0  0.87267  0.50868  0.79500  1.0000
  H   H1274     1.0  0.95380  0.92458  0.70302  1.0000
  C   C1581     1.0  0.97383  0.60930  0.95954  1.0000
  C   C1582     1.0  0.85365  0.98618  0.84014  1.0000
  C   C1583     1.0  0.85446  0.50552  0.90433  1.0000
  C   C1584     1.0  0.69289  0.85116  0.56123  1.0000
  C   C1585     1.0  0.74688  0.85891  0.55181  1.0000
  C   C1586     1.0  0.76037  0.86323  0.58489  1.0000
  C   C1587     1.0  0.78946  0.87333  0.59922  1.0000
  C   C1588     1.0  0.80532  0.87934  0.58072  1.0000
  C   C1589     1.0  0.79202  0.87536  0.54777  1.0000
  C   C1590     1.0  0.76289  0.86529  0.53333  1.0000
  C   C1591     1.0  0.67860  0.88316  0.56349  1.0000
  C   C1592     1.0  0.96011  0.51904  0.80707  1.0000
  H   H1275     1.0  0.96330  0.88416  0.83997  1.0000
  C   C1593     1.0  0.83422  0.51737  0.49387  1.0000
  C   C1594     1.0  0.69572  0.82298  0.58265  1.0000
  C   C1595     1.0  0.66692  0.88663  0.58634  1.0000
  H   H1276     1.0  0.90075  0.62976  0.95382  1.0000
  H   H1277     1.0  0.87102  0.96868  0.90229  1.0000
  C   C1596     1.0  0.69840  0.91443  0.50475  1.0000
  C   C1597     1.0  0.69199  0.53192  0.80478  1.0000
  C   C1598     1.0  0.95044  0.59228  0.96319  1.0000
  C   C1599     1.0  0.95552  0.88797  0.85870  1.0000
  H   H1278     1.0  0.67060  0.60475  0.91695  1.0000
  S   S219      1.0  0.67007  0.92900  0.95970  1.0000
  H   H1279     1.0  0.87331  0.55428  0.66371  1.0000
  C   C1600     1.0  0.77815  0.57921  0.87379  1.0000
  H   H1280     1.0  0.74862  0.85944  0.59991  1.0000
  H   H1281     1.0  0.79951  0.87676  0.62475  1.0000
  C   C1601     1.0  0.68163  0.54291  0.74079  1.0000
  H   H1282     1.0  0.95473  0.70290  0.56149  1.0000
  C   C1602     1.0  0.98074  0.52090  0.83838  1.0000
  H   H1283     1.0  0.67674  0.90584  0.54818  1.0000
  Fe  Fe111     1.0  0.66605  0.93530  0.90899  1.0000
  H   H1284     1.0  0.95931  0.81382  0.85645  1.0000
  C   C1603     1.0  0.66299  0.80149  0.76871  1.0000
  S   S220      1.0  0.94451  0.50096  0.68697  1.0000
  C   C1604     1.0  0.88818  0.61679  0.96524  1.0000
  C   C1605     1.0  0.90700  0.59531  0.82606  1.0000
  C   C1606     1.0  0.82309  0.51982  0.85053  1.0000
  C   C1607     1.0  0.88043  0.51811  0.70260  1.0000
  H   H1285     1.0  0.97375  0.87325  0.93733  1.0000
  C   C1608     1.0  0.66349  0.58933  0.89477  1.0000
  S   S221      1.0  0.97566  0.70514  0.78610  1.0000
  C   C1609     1.0  0.97726  0.79637  0.86891  1.0000
  C   C1610     1.0  0.95768  0.67597  0.52080  1.0000
  H   H1286     1.0  0.90304  0.93863  0.69177  1.0000
  C   C1611     1.0  0.67686  0.78321  0.50811  1.0000
  H   H1287     1.0  0.78871  0.95774  0.83925  1.0000
  C   C1612     1.0  0.97276  0.87867  0.89001  1.0000
  P   P53       1.0  0.92476  0.53786  0.79747  1.0000
  H   H1288     1.0  0.79097  0.53449  0.94227  1.0000
  H   H1289     1.0  0.92527  0.89777  0.92405  1.0000
  C   C1613     1.0  0.81867  0.98045  0.68359  1.0000
  H   H1290     1.0  0.97858  0.65314  0.59823  1.0000
  C   C1614     1.0  0.69057  0.80670  0.76930  1.0000
  C   C1615     1.0  0.71472  0.79614  0.79555  1.0000
  C   C1616     1.0  0.71126  0.78039  0.82134  1.0000
  H   H1291     1.0  0.71185  0.92507  0.52801  1.0000
  H   H1292     1.0  0.94678  0.69779  0.50514  1.0000
  H   H1293     1.0  0.89925  0.60661  0.69824  1.0000
  C   C1617     1.0  0.94840  0.95149  0.70901  1.0000
  H   H1294     1.0  0.97395  0.65591  0.83817  1.0000
  C   C1618     1.0  0.68417  0.98609  0.57757  1.0000
  H   H1295     1.0  0.70395  0.75393  0.71535  1.0000
  H   H1296     1.0  0.80427  0.88019  0.53339  1.0000
  C   C1619     1.0  0.90725  0.54386  0.75521  1.0000
  C   C1620     1.0  0.95540  0.63897  0.83523  1.0000
  C   C1621     1.0  0.83083  0.49665  0.87636  1.0000
  H   H1297     1.0  0.73611  0.80009  0.79590  1.0000
  H   H1298     1.0  0.72998  0.77228  0.84171  1.0000
  C   C1622     1.0  0.70440  0.79950  0.51887  1.0000
  C   C1623     1.0  0.98233  0.98126  0.49675  1.0000
  C   C1624     1.0  0.81136  0.93124  0.81399  1.0000
  C   C1625     1.0  0.97377  0.75881  0.86256  1.0000
  C   C1626     1.0  0.96997  0.56368  0.72022  1.0000
  H   H1299     1.0  0.74907  0.79082  0.52643  1.0000
  C   C1627     1.0  0.88466  0.57859  0.96431  1.0000
  P   P54       1.0  0.90032  0.54961  0.94338  1.0000
  H   H1300     1.0  0.94814  0.59506  0.98559  1.0000
  C   C1628     1.0  0.87089  0.53731  0.90653  1.0000
  H   H1301     1.0  0.67795  0.54738  0.71622  1.0000
  C   C1629     1.0  0.79294  0.56735  0.90472  1.0000
  C   C1630     1.0  0.69347  0.87673  0.49973  1.0000
  C   C1631     1.0  0.83894  0.55200  0.85272  1.0000
  C   C1632     1.0  0.86259  0.56095  0.88074  1.0000
  H   H1302     1.0  0.88001  0.94974  0.76124  1.0000
  H   H1303     1.0  0.70726  0.85764  0.84335  1.0000
  C   C1633     1.0  0.95271  0.60426  0.82124  1.0000
  C   C1634     1.0  0.93017  0.57176  0.93809  1.0000
  C   C1635     1.0  0.75142  0.53061  0.90043  1.0000
  S   S222      1.0  0.67098  0.81462  0.67723  1.0000
  C   C1636     1.0  0.89690  0.58107  0.70872  1.0000
  P   P55       1.0  0.70917  0.84648  0.53269  1.0000
  C   C1637     1.0  0.93466  0.56657  0.91003  1.0000
  C   C1638     1.0  0.83587  0.93165  0.80694  1.0000
  C   C1639     1.0  0.88233  0.55155  0.68923  1.0000
  H   H1304     1.0  0.97043  0.98100  0.84745  1.0000
  S   S223      1.0  0.84581  0.51697  0.53594  1.0000
  H   H1305     1.0  0.95353  0.74812  0.84523  1.0000
  C   C1640     1.0  0.91958  0.95945  0.70237  1.0000
  C   C1641     1.0  0.65933  0.78561  0.79452  1.0000
  H   H1306     1.0  0.70723  0.79835  0.58197  1.0000
  C   C1642     1.0  0.67836  0.56378  0.78955  1.0000
  H   H1307     1.0  0.87422  0.58638  0.88237  1.0000
  H   H1308     1.0  0.76127  0.96459  0.58464  1.0000
  H   H1309     1.0  0.86103  0.90727  0.71473  1.0000
  H   H1310     1.0  0.89294  0.64057  0.84678  1.0000
  C   C1643     1.0  0.96766  0.50359  0.78330  1.0000
  H   H1311     1.0  0.66251  0.59367  0.74591  1.0000
  H   H1312     1.0  0.93620  0.98234  0.87335  1.0000
  C   C1644     1.0  0.72757  0.77913  0.51811  1.0000
  C   C1645     1.0  0.96998  0.97825  0.72289  1.0000
  C   C1646     1.0  0.90978  0.63017  0.84002  1.0000
  C   C1647     1.0  0.77953  0.54326  0.91809  1.0000
  H   H1313     1.0  0.83846  0.91050  0.79149  1.0000
  H   H1314     1.0  0.92025  0.54930  0.89091  1.0000
  C   C1648     1.0  0.90283  0.50831  0.81051  1.0000
  C   C1649     1.0  0.83035  0.94563  0.68540  1.0000
  H   H1315     1.0  0.95258  0.50265  0.75881  1.0000
  H   H1316     1.0  0.79493  0.91010  0.80388  1.0000
  C   C1650     1.0  0.89291  0.51418  0.73541  1.0000
  C   C1651     1.0  0.67299  0.56902  0.75761  1.0000
  H   H1317     1.0  0.93595  0.67919  0.85499  1.0000
  H   H1318     1.0  0.74139  0.51191  0.91124  1.0000
  H   H1319     1.0  0.97183  0.96731  0.50996  1.0000
  C   C1652     1.0  0.67024  0.85876  0.60780  1.0000
  C   C1653     1.0  0.96690  0.64487  0.50932  1.0000
  C   C1654     1.0  0.74998  0.56681  0.85610  1.0000
  C   C1655     1.0  0.91205  0.99441  0.70885  1.0000
  H   H1320     1.0  0.82786  0.88720  0.59193  1.0000
  C   C1656     1.0  0.97625  0.60140  0.72411  1.0000
  H   H1321     1.0  0.91426  0.90719  0.82680  1.0000
  S   S224      1.0  0.97261  0.67191  0.70192  1.0000
  C   C1657     1.0  0.85237  0.93452  0.71337  1.0000
  C   C1658     1.0  0.89008  0.98491  0.91531  1.0000
  C   C1659     1.0  0.93399  0.65198  0.84462  1.0000
  C   C1660     1.0  0.70278  0.96628  0.60359  1.0000
  C   C1661     1.0  0.92762  0.90083  0.85109  1.0000
  C   C1662     1.0  0.91678  0.90461  0.87467  1.0000
  C   C1663     1.0  0.93370  0.89511  0.90578  1.0000
  H   H1322     1.0  0.96151  0.57976  0.88488  1.0000
  C   C1664     1.0  0.87536  0.63876  0.98112  1.0000
  H   H1323     1.0  0.68736  0.80546  0.62288  1.0000
  H   H1324     1.0  0.69566  0.95746  0.62174  1.0000
  C   C1665     1.0  0.73649  0.54205  0.86915  1.0000
  H   H1325     1.0  0.83274  0.57005  0.83271  1.0000
  H   H1326     1.0  0.87589  0.95850  0.81447  1.0000
  H   H1327     1.0  0.92147  0.60021  0.75596  1.0000
  P   P56       1.0  0.70003  0.52587  0.84645  1.0000
  H   H1328     1.0  0.68805  0.69235  0.72500  1.0000
  C   C1666     1.0  0.80790  0.95815  0.83403  1.0000
  H   H1329     1.0  0.69301  0.81847  0.74901  1.0000
  C   C1667     1.0  0.66109  0.77110  0.68630  1.0000
  H   H1330     1.0  0.78851  0.59812  0.86354  1.0000
  C   C1668     1.0  0.98052  0.61685  0.53035  1.0000
  C   C1669     1.0  0.68353  0.57076  0.88621  1.0000
  C   C1670     1.0  0.85696  0.95900  0.81994  1.0000
  C   C1671     1.0  0.68460  0.82692  0.60595  1.0000
  H   H1331     1.0  0.89512  0.91427  0.86882  1.0000
  C   C1672     1.0  0.68134  0.74637  0.70523  1.0000
  H   H1332     1.0  0.87874  0.66814  0.98264  1.0000
  C   C1673     1.0  0.97558  0.65095  0.57353  1.0000
  H   H1333     1.0  0.67017  0.98506  0.76168  1.0000
  C   C1674     1.0  0.95822  0.58339  0.90660  1.0000
  H   H1334     1.0  0.97983  0.54606  0.74010  1.0000
  H   H1335     1.0  0.65593  0.91138  0.58796  1.0000
  C   C1675     1.0  0.82887  0.98560  0.84699  1.0000
  H   H1336     1.0  0.80481  0.51275  0.82883  1.0000
  C   C1676     1.0  0.72114  0.99058  0.55675  1.0000
  H   H1337     1.0  0.65912  0.82130  0.84875  1.0000
  C   C1677     1.0  0.85106  0.99313  0.73793  1.0000
  H   H1338     1.0  0.96926  0.59519  0.81340  1.0000
  H   H1339     1.0  0.94125  0.99349  0.99045  1.0000
  H   H1340     1.0  0.74110  0.72736  0.50606  1.0000
  H   H1341     1.0  0.86288  0.53372  0.97645  1.0000
  C   C1678     1.0  0.67251  0.74716  0.49653  1.0000
  C   C1679     1.0  0.72315  0.74301  0.50660  1.0000
  H   H1342     1.0  0.97561  0.53315  0.85702  1.0000
  C   C1680     1.0  0.97761  0.60503  0.93117  1.0000
  H   H1343     1.0  0.98521  0.91684  0.76334  1.0000
  Fe  Fe112     1.0  0.98568  0.76546  0.78821  1.0000
  H   H1344     1.0  0.82870  0.57576  0.49201  1.0000
