data_image0
_chemical_formula_structural       HCSCH2SFeHC5HSHC3H3CH2C3HFeHC2SCH2CSPC3H2C3H3C2H3C2HC2HCS2H4C2H3SFeS2C2S2H3C2HCH2CHFeSHC9PC3FeC13HCH11FeCH2CHCHSH3CH2FeC2FeHCHCFeSHSC10HCH2C2HCHCFeC2HCH2C8H2CHCFeHC2H2SHSC3HPHC2HCH3CH3FeH3C2SHC2HC2HFeHC4HCHC2SHSHC2HC3HCPC6HPC2SCH2C6H4C3HCH2C2H4CH5CHC8H2SCH5C2HSH2C2H3FeCHSCSC2HCHCH3CHPCH5FeH2C2HC7SC6HCH2C4HCH2CH3C2HCFeCPCHC4SC2H2SH2CH3CHC3HCHCH2C3H3CHSC2HCSCSH3CHCPHC2HCH3C4H3C5H2C2HCH3CH2CH2C2HC6HC2PH2CFeCFeHFeS2PSH2CHC3HC2H3C4SC3H2SC4HFeCHCHC5HCFeHC4H2C2HCHCH3CHCH3C4HC2H5CHCSHCHC2H3CHC3SPCH2CHC2HC4FeCSCS2H2C2SHFeH3C2H2C2HCHCH2C2HCSC2FeC2HC2H5CSHC3SHCH3CPCHC2HC2H2C2H2C2HCH2C3PC2H3CH4CSHCH2C3H5C3HC4FeCHSHCH2CHCSC4H3C2H2C2SHCHC2PC3H2FeC3H2FeC7HCSH4CFeH2CHC4HCH2CHCH3SH2C2HCSC2H2CH2C2HC10HCHSHCHC2H2S2PHCHCHC2HCH3SHC3HC3FeH2CFeS2C10HC3SH2SC4H2CFeCSCH3CH3SCSCH5C3H4C2FeCH2CH3C3H2C3HC3PCHCHCHCHC2H
_chemical_formula_sum              "H384 C480 S64 Fe32 P16"
_cell_length_a       34.2135
_cell_length_b       36.2981
_cell_length_c       24.7848
_cell_angle_alpha    89.823
_cell_angle_beta     89.9975
_cell_angle_gamma    90.1529

_space_group_name_H-M_alt    "P 1"
_space_group_IT_number       1

loop_
  _space_group_symop_operation_xyz
  'x, y, z'

loop_
  _atom_site_type_symbol
  _atom_site_label
  _atom_site_symmetry_multiplicity
  _atom_site_fract_x
  _atom_site_fract_y
  _atom_site_fract_z
  _atom_site_occupancy
  H   H1        1.0  0.38053  0.27781  0.14892  1.0000
  C   C1        1.0  0.20046  0.17060  0.21474  1.0000
  S   S1        1.0  0.43580  0.28644  0.33116  1.0000
  C   C2        1.0  0.24263  0.29734  0.05182  1.0000
  H   H2        1.0  0.25148  0.25039  0.36044  1.0000
  H   H3        1.0  0.22137  0.16640  0.24692  1.0000
  S   S2        1.0  0.05206  0.05964  0.05679  1.0000
  Fe  Fe1       1.0  0.99854  0.09445  0.06726  1.0000
  H   H4        1.0  0.32347  0.24686  0.37296  1.0000
  C   C3        1.0  0.27957  0.15102  0.11882  1.0000
  C   C4        1.0  0.18226  0.19731  0.12861  1.0000
  C   C5        1.0  0.40586  0.27258  0.17364  1.0000
  C   C6        1.0  0.40627  0.28310  0.22832  1.0000
  C   C7        1.0  0.34679  0.18155  0.07267  1.0000
  H   H5        1.0  0.15844  0.13301  0.24958  1.0000
  S   S3        1.0  0.43735  0.23845  0.08372  1.0000
  H   H6        1.0  0.38108  0.29666  0.24539  1.0000
  C   C8        1.0  0.33796  0.14443  0.06448  1.0000
  C   C9        1.0  0.43782  0.25421  0.15143  1.0000
  C   C10       1.0  0.24907  0.26113  0.13404  1.0000
  H   H7        1.0  0.00349  0.01507  0.14189  1.0000
  H   H8        1.0  0.04855  0.03579  0.42816  1.0000
  H   H9        1.0  0.36591  0.22943  0.29661  1.0000
  C   C11       1.0  0.43863  0.27541  0.26148  1.0000
  H   H10       1.0  0.32175  0.31694  0.13382  1.0000
  H   H11       1.0  0.22346  0.12662  0.02760  1.0000
  C   C12       1.0  0.02666  0.02241  0.40349  1.0000
  C   C13       1.0  0.47102  0.25771  0.23899  1.0000
  C   C14       1.0  0.24029  0.29273  0.16431  1.0000
  H   H12       1.0  0.25358  0.13856  0.13585  1.0000
  Fe  Fe2       1.0  0.39832  0.26126  0.01681  1.0000
  H   H13       1.0  0.37295  0.19328  0.05496  1.0000
  C   C15       1.0  0.31048  0.24063  0.33409  1.0000
  C   C16       1.0  0.28816  0.18849  0.12703  1.0000
  S   S4        1.0  0.33973  0.28834  0.02629  1.0000
  C   C17       1.0  0.32205  0.20353  0.10375  1.0000
  H   H14       1.0  0.32957  0.23217  0.11005  1.0000
  H   H15       1.0  0.22219  0.23718  0.27149  1.0000
  C   C18       1.0  0.16500  0.15129  0.21613  1.0000
  S   S5        1.0  0.46633  0.31661  0.47132  1.0000
  P   P1        1.0  0.25602  0.21705  0.16690  1.0000
  C   C19       1.0  0.47046  0.24695  0.18429  1.0000
  C   C20       1.0  0.24963  0.26366  0.07755  1.0000
  C   C21       1.0  0.20910  0.19423  0.17129  1.0000
  H   H16       1.0  0.29731  0.10042  0.08087  1.0000
  H   H17       1.0  0.11115  0.13936  0.17418  1.0000
  C   C22       1.0  0.13830  0.15487  0.17377  1.0000
  C   C23       1.0  0.14700  0.17779  0.13003  1.0000
  C   C24       1.0  0.27003  0.24265  0.32692  1.0000
  H   H18       1.0  0.18881  0.21388  0.09334  1.0000
  H   H19       1.0  0.12684  0.17962  0.09634  1.0000
  H   H20       1.0  0.23862  0.29159  0.20778  1.0000
  C   C25       1.0  0.99705  0.04322  0.37959  1.0000
  C   C26       1.0  0.33445  0.23075  0.29097  1.0000
  H   H21       1.0  0.35714  0.12759  0.04008  1.0000
  H   H22       1.0  0.25553  0.23966  0.05316  1.0000
  H   H23       1.0  0.33765  0.21590  0.20792  1.0000
  C   C27       1.0  0.31812  0.22305  0.24049  1.0000
  C   C28       1.0  0.30437  0.12915  0.08760  1.0000
  H   H24       1.0  0.99599  0.07284  0.38524  1.0000
  C   C29       1.0  0.25355  0.23493  0.27651  1.0000
  C   C30       1.0  0.27744  0.22498  0.23278  1.0000
  H   H25       1.0  0.99241  0.15413  0.19305  1.0000
  C   C31       1.0  0.21326  0.15014  0.00478  1.0000
  S   S6        1.0  0.14065  0.11759  0.01475  1.0000
  S   S7        1.0  0.02314  0.14158  0.01780  1.0000
  H   H26       1.0  0.30520  0.33337  0.22802  1.0000
  H   H27       1.0  0.98260  0.01538  0.23663  1.0000
  H   H28       1.0  0.45196  0.33398  0.14067  1.0000
  H   H29       1.0  0.97893  0.18237  0.28266  1.0000
  C   C32       1.0  0.23507  0.32882  0.08222  1.0000
  C   C33       1.0  0.23365  0.32648  0.13846  1.0000
  H   H30       1.0  0.24350  0.29901  0.00812  1.0000
  H   H31       1.0  0.01394  0.08652  0.71404  1.0000
  H   H32       1.0  0.17759  0.23376  0.92167  1.0000
  S   S8        1.0  0.05000  0.07845  0.92776  1.0000
  Fe  Fe3       1.0  0.40273  0.27926  0.89442  1.0000
  S   S9        1.0  0.44831  0.29048  0.82880  1.0000
  S   S10       1.0  0.34419  0.30689  0.89672  1.0000
  C   C34       1.0  0.40239  0.32921  0.58341  1.0000
  C   C35       1.0  0.18766  0.21044  0.94501  1.0000
  S   S11       1.0  0.38182  0.22939  0.94156  1.0000
  S   S12       1.0  0.26078  0.24097  0.93028  1.0000
  H   H33       1.0  0.13726  0.01731  0.85161  1.0000
  H   H34       1.0  0.10026  0.27654  0.90065  1.0000
  H   H35       1.0  0.08043  0.03310  0.53030  1.0000
  C   C36       1.0  0.45194  0.27663  0.76042  1.0000
  C   C37       1.0  0.42504  0.25268  0.73650  1.0000
  H   H36       1.0  0.40580  0.29950  0.58377  1.0000
  C   C38       1.0  0.02472  0.03460  0.57049  1.0000
  H   H37       1.0  0.40923  0.22310  0.66417  1.0000
  H   H38       1.0  0.01561  0.06023  0.55171  1.0000
  C   C39       1.0  0.06118  0.01939  0.55868  1.0000
  H   H39       1.0  0.40081  0.24205  0.75991  1.0000
  Fe  Fe4       1.0  0.32384  0.25931  0.94891  1.0000
  S   S13       1.0  0.42350  0.30792  0.96930  1.0000
  H   H40       1.0  0.03121  0.16814  0.59006  1.0000
  C   C40       1.0  0.42990  0.24200  0.68223  1.0000
  C   C41       1.0  0.22782  0.20718  0.95652  1.0000
  C   C42       1.0  0.04844  0.16911  0.62679  1.0000
  C   C43       1.0  0.23473  0.19436  0.80666  1.0000
  C   C44       1.0  0.24088  0.22144  0.76745  1.0000
  C   C45       1.0  0.21060  0.23116  0.73240  1.0000
  C   C46       1.0  0.17411  0.21387  0.73669  1.0000
  C   C47       1.0  0.16787  0.18607  0.77540  1.0000
  C   C48       1.0  0.19842  0.17684  0.81084  1.0000
  P   P2        1.0  0.11944  0.16696  0.78522  1.0000
  C   C49       1.0  0.09178  0.16916  0.72306  1.0000
  C   C50       1.0  0.12341  0.11928  0.80620  1.0000
  C   C51       1.0  0.13403  0.11077  0.85946  1.0000
  Fe  Fe5       1.0  0.02221  0.03705  0.98363  1.0000
  C   C52       1.0  0.13351  0.04565  0.83880  1.0000
  C   C53       1.0  0.12192  0.05370  0.78600  1.0000
  C   C54       1.0  0.11687  0.09032  0.76968  1.0000
  C   C55       1.0  0.10973  0.16007  0.67385  1.0000
  C   C56       1.0  0.08809  0.16000  0.62595  1.0000
  C   C57       1.0  0.03053  0.17861  0.67538  1.0000
  C   C58       1.0  0.05194  0.17846  0.72339  1.0000
  C   C59       1.0  0.09536  0.19335  0.83713  1.0000
  C   C60       1.0  0.10868  0.22885  0.85048  1.0000
  C   C61       1.0  0.08954  0.24940  0.89009  1.0000
  C   C62       1.0  0.05665  0.23494  0.91603  1.0000
  C   C63       1.0  0.04301  0.19988  0.90254  1.0000
  C   C64       1.0  0.06247  0.17893  0.86371  1.0000
  H   H41       1.0  0.25782  0.18775  0.83508  1.0000
  C   C65       1.0  0.99965  0.01693  0.60685  1.0000
  H   H42       1.0  0.26890  0.23540  0.76515  1.0000
  H   H43       1.0  0.15060  0.22291  0.71064  1.0000
  H   H44       1.0  0.19427  0.15701  0.84291  1.0000
  H   H45       1.0  0.13813  0.13239  0.88880  1.0000
  H   H46       1.0  0.01288  0.09716  0.81311  1.0000
  H   H47       1.0  0.04161  0.25091  0.94646  1.0000
  H   H48       1.0  0.11671  0.03153  0.75770  1.0000
  H   H49       1.0  0.10779  0.09566  0.72867  1.0000
  H   H50       1.0  0.14028  0.15232  0.67273  1.0000
  H   H51       1.0  0.03686  0.18491  0.76050  1.0000
  H   H52       1.0  0.13397  0.24078  0.83083  1.0000
  Fe  Fe6       1.0  0.99686  0.11248  0.94520  1.0000
  C   C66       1.0  0.46122  0.25562  0.65113  1.0000
  H   H53       1.0  0.01705  0.18903  0.92185  1.0000
  H   H54       1.0  0.05131  0.15183  0.85370  1.0000
  C   C67       1.0  0.16046  0.18384  0.96329  1.0000
  H   H55       1.0  0.10181  0.15241  0.58823  1.0000
  C   C68       1.0  0.13961  0.07421  0.87547  1.0000
  H   H56       1.0  0.14795  0.06816  0.91680  1.0000
  S   S14       1.0  0.46646  0.24066  0.58343  1.0000
  H   H57       1.0  0.05273  0.01705  0.83115  1.0000
  H   H58       1.0  0.21522  0.25268  0.70268  1.0000
  H   H59       1.0  0.12973  0.18685  0.95418  1.0000
  C   C69       1.0  0.17317  0.15314  0.99265  1.0000
  H   H60       1.0  0.99955  0.18491  0.67602  1.0000
  H   H61       1.0  0.01692  0.01851  0.74465  1.0000
  Fe  Fe7       1.0  0.07528  0.10485  0.00257  1.0000
  C   C70       1.0  0.98920  0.10716  0.78822  1.0000
  C   C71       1.0  0.24041  0.17696  0.98698  1.0000
  Fe  Fe8       1.0  0.36453  0.33305  0.97341  1.0000
  H   H62       1.0  0.36231  0.32904  0.51658  1.0000
  C   C72       1.0  0.98964  0.10097  0.73207  1.0000
  H   H63       1.0  0.27115  0.17393  0.99593  1.0000
  C   C73       1.0  0.16905  0.66281  0.34059  1.0000
  Fe  Fe9       1.0  0.39335  0.64490  0.40589  1.0000
  S   S15       1.0  0.34423  0.60354  0.40879  1.0000
  H   H64       1.0  0.46640  0.52779  0.48733  1.0000
  S   S16       1.0  0.41679  0.63337  0.08413  1.0000
  C   C74       1.0  0.38990  0.64031  0.24382  1.0000
  C   C75       1.0  0.45395  0.42255  0.46456  1.0000
  C   C76       1.0  0.42168  0.44625  0.46054  1.0000
  C   C77       1.0  0.42314  0.65672  0.26629  1.0000
  C   C78       1.0  0.46943  0.42844  0.01500  1.0000
  C   C79       1.0  0.36838  0.40357  0.19933  1.0000
  C   C80       1.0  0.32517  0.35049  0.20507  1.0000
  C   C81       1.0  0.42576  0.48416  0.46948  1.0000
  C   C82       1.0  0.43449  0.55959  0.24078  1.0000
  C   C83       1.0  0.45114  0.45667  0.30063  1.0000
  H   H65       1.0  0.39899  0.40977  0.12302  1.0000
  C   C84       1.0  0.34199  0.38161  0.22871  1.0000
  H   H66       1.0  0.25945  0.63095  0.37270  1.0000
  H   H67       1.0  0.38553  0.54135  0.08941  1.0000
  C   C85       1.0  0.46775  0.38237  0.31762  1.0000
  C   C86       1.0  0.35509  0.48060  0.31822  1.0000
  H   H68       1.0  0.13855  0.65834  0.35055  1.0000
  C   C87       1.0  0.31392  0.47163  0.23980  1.0000
  H   H69       1.0  0.45009  0.39342  0.45776  1.0000
  C   C88       1.0  0.38683  0.49858  0.15034  1.0000
  Fe  Fe10      1.0  0.32125  0.63653  0.47917  1.0000
  C   C89       1.0  0.36167  0.36233  0.12318  1.0000
  C   C90       1.0  0.42094  0.64035  0.15464  1.0000
  H   H70       1.0  0.46918  0.45224  0.18784  1.0000
  C   C91       1.0  0.44361  0.52076  0.10177  1.0000
  H   H71       1.0  0.37975  0.55520  0.28315  1.0000
  H   H72       1.0  0.25586  0.49421  0.24502  1.0000
  C   C92       1.0  0.42883  0.55367  0.33759  1.0000
  C   C93       1.0  0.41129  0.55594  0.28684  1.0000
  C   C94       1.0  0.41033  0.47378  0.17946  1.0000
  C   C95       1.0  0.32464  0.49948  0.34363  1.0000
  C   C96       1.0  0.35019  0.46698  0.26560  1.0000
  C   C97       1.0  0.45517  0.66476  0.23275  1.0000
  C   C98       1.0  0.45050  0.47198  0.16780  1.0000
  C   C99       1.0  0.46289  0.49856  0.48050  1.0000
  H   H73       1.0  0.38208  0.47682  0.34020  1.0000
  H   H74       1.0  0.41093  0.55040  0.37329  1.0000
  C   C100      1.0  0.37841  0.39359  0.14650  1.0000
  H   H75       1.0  0.35578  0.50022  0.15724  1.0000
  C   C101      1.0  0.28903  0.50461  0.31721  1.0000
  Fe  Fe11      1.0  0.38188  0.57421  0.46993  1.0000
  H   H76       1.0  0.36239  0.62107  0.17061  1.0000
  C   C102      1.0  0.23718  0.64737  0.35298  1.0000
  C   C103      1.0  0.45443  0.65598  0.17743  1.0000
  H   H77       1.0  0.39328  0.43501  0.45071  1.0000
  H   H78       1.0  0.32866  0.51018  0.38400  1.0000
  S   S17       1.0  0.38319  0.51172  0.46859  1.0000
  H   H79       1.0  0.18970  0.61957  0.39303  1.0000
  S   S18       1.0  0.43247  0.61318  0.46236  1.0000
  C   C104      1.0  0.19779  0.64089  0.36441  1.0000
  C   C105      1.0  0.38864  0.63265  0.18806  1.0000
  C   C106      1.0  0.43634  0.39234  0.28469  1.0000
  H   H80       1.0  0.26563  0.51937  0.33710  1.0000
  P   P3        1.0  0.38938  0.44378  0.23032  1.0000
  H   H81       1.0  0.30909  0.46066  0.19971  1.0000
  C   C107      1.0  0.33473  0.34107  0.15213  1.0000
  C   C108      1.0  0.40349  0.52193  0.11159  1.0000
  H   H82       1.0  0.44562  0.48550  0.29344  1.0000
  C   C109      1.0  0.42780  0.42975  0.27592  1.0000
  H   H83       1.0  0.42094  0.56196  0.20155  1.0000
  H   H84       1.0  0.45650  0.53889  0.07189  1.0000
  H   H85       1.0  0.22746  0.35088  0.16199  1.0000
  C   C110      1.0  0.28359  0.49049  0.26541  1.0000
  H   H86       1.0  0.36472  0.63474  0.26896  1.0000
  H   H87       1.0  0.33474  0.38839  0.27006  1.0000
  H   H88       1.0  0.41944  0.37062  0.26595  1.0000
  Fe  Fe12      1.0  0.46792  0.62338  0.02664  1.0000
  H   H89       1.0  0.36966  0.35470  0.08248  1.0000
  H   H90       1.0  0.23028  0.35497  0.06206  1.0000
  H   H91       1.0  0.43609  0.37832  0.02543  1.0000
  C   C111      1.0  0.46704  0.49564  0.12953  1.0000
  C   C112      1.0  0.46946  0.55598  0.34235  1.0000
  S   S19       1.0  0.25596  0.64206  0.49916  1.0000
  H   H92       1.0  0.47448  0.35360  0.32405  1.0000
  C   C113      1.0  0.47510  0.56181  0.24521  1.0000
  C   C114      1.0  0.43568  0.40634  0.01075  1.0000
  H   H93       1.0  0.05833  0.62353  0.53745  1.0000
  C   C115      1.0  0.42250  0.52318  0.62555  1.0000
  C   C116      1.0  0.42326  0.41546  0.73194  1.0000
  H   H94       1.0  0.37521  0.41099  0.87416  1.0000
  Fe  Fe13      1.0  0.40332  0.64543  0.52834  1.0000
  H   H95       1.0  0.46556  0.39039  0.85979  1.0000
  C   C117      1.0  0.29266  0.52407  0.54995  1.0000
  C   C118      1.0  0.37786  0.34585  0.54560  1.0000
  C   C119      1.0  0.26544  0.55257  0.55315  1.0000
  C   C120      1.0  0.31493  0.64769  0.65054  1.0000
  H   H96       1.0  0.26258  0.50041  0.85744  1.0000
  C   C121      1.0  0.43514  0.47926  0.97390  1.0000
  H   H97       1.0  0.40439  0.46954  0.84156  1.0000
  C   C122      1.0  0.15053  0.62329  0.73519  1.0000
  C   C123      1.0  0.42219  0.44697  0.76488  1.0000
  S   S20       1.0  0.45211  0.57930  0.96783  1.0000
  H   H98       1.0  0.40948  0.35707  0.72861  1.0000
  S   S21       1.0  0.35564  0.60379  0.54042  1.0000
  H   H99       1.0  0.30056  0.63706  0.61499  1.0000
  C   C124      1.0  0.46512  0.65537  0.75234  1.0000
  C   C125      1.0  0.10649  0.64179  0.58688  1.0000
  H   H100      1.0  0.24865  0.56032  0.51783  1.0000
  C   C126      1.0  0.21966  0.63738  0.74203  1.0000
  C   C127      1.0  0.18060  0.64717  0.75058  1.0000
  C   C128      1.0  0.19847  0.57957  0.70291  1.0000
  H   H101      1.0  0.37467  0.46913  0.95429  1.0000
  C   C129      1.0  0.42327  0.35082  0.62005  1.0000
  P   P4        1.0  0.44757  0.41663  0.66715  1.0000
  C   C130      1.0  0.42632  0.61839  0.66866  1.0000
  C   C131      1.0  0.34880  0.54006  0.82102  1.0000
  C   C132      1.0  0.32245  0.51798  0.84964  1.0000
  C   C133      1.0  0.28290  0.51779  0.83540  1.0000
  C   C134      1.0  0.26957  0.53998  0.79291  1.0000
  C   C135      1.0  0.29579  0.56268  0.76444  1.0000
  H   H102      1.0  0.43515  0.47267  0.75177  1.0000
  P   P5        1.0  0.27929  0.59025  0.70781  1.0000
  C   C136      1.0  0.28371  0.56344  0.64664  1.0000
  C   C137      1.0  0.32643  0.64758  0.74695  1.0000
  S   S22       1.0  0.45042  0.59879  0.82586  1.0000
  C   C138      1.0  0.30871  0.63161  0.70143  1.0000
  H   H103      1.0  0.35549  0.39709  0.51477  1.0000
  H   H104      1.0  0.13614  0.57099  0.69944  1.0000
  C   C139      1.0  0.31523  0.51497  0.59495  1.0000
  C   C140      1.0  0.26101  0.57226  0.60117  1.0000
  C   C141      1.0  0.45857  0.53702  0.60855  1.0000
  C   C142      1.0  0.22890  0.60348  0.71803  1.0000
  C   C143      1.0  0.43040  0.60187  0.71960  1.0000
  C   C144      1.0  0.31085  0.53453  0.64318  1.0000
  H   H105      1.0  0.20488  0.55310  0.68490  1.0000
  H   H106      1.0  0.39136  0.47664  0.65764  1.0000
  H   H107      1.0  0.12171  0.61570  0.58501  1.0000
  H   H108      1.0  0.33676  0.49325  0.59172  1.0000
  C   C145      1.0  0.37412  0.38415  0.54458  1.0000
  C   C146      1.0  0.07091  0.64617  0.56003  1.0000
  C   C147      1.0  0.33561  0.56183  0.77817  1.0000
  H   H109      1.0  0.33267  0.50104  0.88286  1.0000
  C   C148      1.0  0.41943  0.48690  0.64403  1.0000
  H   H110      1.0  0.23889  0.53926  0.78248  1.0000
  H   H111      1.0  0.37950  0.54062  0.83222  1.0000
  C   C149      1.0  0.38847  0.41240  0.83452  1.0000
  C   C150      1.0  0.40112  0.45757  0.97101  1.0000
  H   H112      1.0  0.32143  0.63647  0.78696  1.0000
  H   H113      1.0  0.39260  0.43544  0.57791  1.0000
  H   H114      1.0  0.43468  0.50688  0.95831  1.0000
  H   H115      1.0  0.24071  0.59512  0.60208  1.0000
  C   C151      1.0  0.44232  0.65310  0.65880  1.0000
  H   H116      1.0  0.41921  0.57437  0.72618  1.0000
  H   H117      1.0  0.41073  0.60440  0.63692  1.0000
  H   H118      1.0  0.32916  0.52739  0.67717  1.0000
  H   H119      1.0  0.35652  0.57832  0.75613  1.0000
  H   H120      1.0  0.12029  0.63096  0.74177  1.0000
  C   C152      1.0  0.39027  0.38084  0.80259  1.0000
  H   H121      1.0  0.39688  0.54056  0.62394  1.0000
  C   C153      1.0  0.39516  0.40589  0.58105  1.0000
  C   C154      1.0  0.45227  0.46377  0.64413  1.0000
  C   C155      1.0  0.15947  0.58955  0.71126  1.0000
  C   C156      1.0  0.44897  0.62055  0.76200  1.0000
  C   C157      1.0  0.40766  0.38225  0.75167  1.0000
  C   C158      1.0  0.40478  0.44539  0.81593  1.0000
  C   C159      1.0  0.41976  0.38934  0.61950  1.0000
  C   C160      1.0  0.46941  0.46504  0.99656  1.0000
  H   H122      1.0  0.37892  0.35492  0.81766  1.0000
  H   H123      1.0  0.46079  0.56506  0.59391  1.0000
  S   S23       1.0  0.35783  0.39457  0.98455  1.0000
  C   C161      1.0  0.40130  0.42093  0.98894  1.0000
  H   H124      1.0  0.24250  0.65621  0.75440  1.0000
  H   H125      1.0  0.29700  0.50959  0.51222  1.0000
  H   H126      1.0  0.44242  0.33739  0.64855  1.0000
  H   H127      1.0  0.17261  0.64476  0.51042  1.0000
  H   H128      1.0  0.14972  0.66679  0.63723  1.0000
  C   C162      1.0  0.06771  0.80637  0.18817  1.0000
  C   C163      1.0  0.07939  0.82668  0.23362  1.0000
  H   H129      1.0  0.27478  0.80474  0.23406  1.0000
  S   S24       1.0  0.03262  0.80771  0.38726  1.0000
  H   H130      1.0  0.30833  0.74569  0.29943  1.0000
  H   H131      1.0  0.26817  0.86524  0.27789  1.0000
  C   C164      1.0  0.18458  0.76695  0.16874  1.0000
  C   C165      1.0  0.16422  0.72997  0.45331  1.0000
  H   H132      1.0  0.00001  0.97031  0.50171  1.0000
  H   H133      1.0  0.18015  0.76298  0.33235  1.0000
  H   H134      1.0  0.15943  0.91683  0.13753  1.0000
  Fe  Fe14      1.0  0.06321  0.76809  0.44371  1.0000
  C   C166      1.0  0.20430  0.73671  0.44461  1.0000
  H   H135      1.0  0.21759  0.87495  0.34825  1.0000
  S   S25       1.0  0.01419  0.72626  0.44007  1.0000
  C   C167      1.0  0.99870  0.96686  0.36528  1.0000
  S   S26       1.0  0.00901  0.89476  0.47281  1.0000
  C   C168      1.0  0.35208  0.73185  0.24098  1.0000
  C   C169      1.0  0.18515  0.70019  0.17084  1.0000
  H   H136      1.0  0.00110  0.71200  0.15742  1.0000
  C   C170      1.0  0.23278  0.71031  0.45854  1.0000
  H   H137      1.0  0.02016  0.90079  0.08656  1.0000
  C   C171      1.0  0.03193  0.77254  0.05815  1.0000
  H   H138      1.0  0.14703  0.79156  0.10907  1.0000
  H   H139      1.0  0.99968  0.93728  0.36170  1.0000
  H   H140      1.0  0.33467  0.70135  0.11373  1.0000
  C   C172      1.0  0.06875  0.93797  0.09117  1.0000
  H   H141      1.0  0.19436  0.79338  0.18368  1.0000
  P   P6        1.0  0.04809  0.82968  0.12949  1.0000
  C   C173      1.0  0.08460  0.74985  0.23560  1.0000
  H   H142      1.0  0.07635  0.85637  0.23439  1.0000
  H   H143      1.0  0.17369  0.82343  0.37488  1.0000
  H   H144      1.0  0.04997  0.96783  0.41546  1.0000
  H   H145      1.0  0.12760  0.85635  0.15069  1.0000
  H   H146      1.0  0.19571  0.67442  0.18747  1.0000
  Fe  Fe15      1.0  0.00644  0.83265  0.46152  1.0000
  H   H147      1.0  0.10304  0.82439  0.31428  1.0000
  H   H148      1.0  0.10663  0.75641  0.31652  1.0000
  C   C174      1.0  0.17969  0.69107  0.30504  1.0000
  C   C175      1.0  0.12893  0.91320  0.12700  1.0000
  H   H149      1.0  0.10520  0.83520  0.03996  1.0000
  C   C176      1.0  0.15771  0.76607  0.12624  1.0000
  C   C177      1.0  0.05033  0.90389  0.09885  1.0000
  C   C178      1.0  0.19818  0.73398  0.19180  1.0000
  C   C179      1.0  0.10790  0.94270  0.10540  1.0000
  C   C180      1.0  0.07098  0.87433  0.12167  1.0000
  C   C181      1.0  0.07025  0.76778  0.18969  1.0000
  C   C182      1.0  0.05640  0.80262  0.06945  1.0000
  S   S27       1.0  0.12959  0.76339  0.43133  1.0000
  C   C183      1.0  0.22845  0.77884  0.28053  1.0000
  C   C184      1.0  0.19961  0.78484  0.31976  1.0000
  C   C185      1.0  0.19575  0.81936  0.34401  1.0000
  C   C186      1.0  0.22048  0.84830  0.32906  1.0000
  C   C187      1.0  0.24898  0.84278  0.28954  1.0000
  C   C188      1.0  0.25285  0.80828  0.26512  1.0000
  H   H150      1.0  0.99600  0.82899  0.22526  1.0000
  C   C189      1.0  0.02763  0.98428  0.39598  1.0000
  H   H151      1.0  0.21352  0.76249  0.42680  1.0000
  H   H152      1.0  0.26337  0.71574  0.45071  1.0000
  C   C190      1.0  0.09656  0.77029  0.28032  1.0000
  C   C191      1.0  0.18160  0.67054  0.49227  1.0000
  C   C192      1.0  0.09432  0.80869  0.27911  1.0000
  C   C193      1.0  0.31357  0.73654  0.25848  1.0000
  H   H153      1.0  0.08556  0.72003  0.23692  1.0000
  C   C194      1.0  0.11069  0.87905  0.13469  1.0000
  H   H154      1.0  0.06056  0.75130  0.15602  1.0000
  H   H155      1.0  0.37628  0.73680  0.26837  1.0000
  C   C195      1.0  0.22156  0.67691  0.48213  1.0000
  H   H156      1.0  0.12240  0.69121  0.48475  1.0000
  H   H157      1.0  0.00812  0.76547  0.08507  1.0000
  H   H158      1.0  0.05278  0.96079  0.07364  1.0000
  C   C196      1.0  0.35954  0.71978  0.18856  1.0000
  C   C197      1.0  0.28990  0.71614  0.17128  1.0000
  H   H159      1.0  0.15699  0.70773  0.28698  1.0000
  C   C198      1.0  0.97854  0.83282  0.18931  1.0000
  Fe  Fe16      1.0  0.98208  0.76808  0.38938  1.0000
  C   C199      1.0  0.28214  0.72875  0.22375  1.0000
  P   P7        1.0  0.23250  0.73470  0.24726  1.0000
  C   C200      1.0  0.15304  0.69681  0.47776  1.0000
  H   H160      1.0  0.00046  0.72942  0.25471  1.0000
  C   C201      1.0  0.14424  0.73236  0.10636  1.0000
  C   C202      1.0  0.15806  0.69944  0.12855  1.0000
  C   C203      1.0  0.08636  0.81172  0.03297  1.0000
  C   C204      1.0  0.99587  0.83468  0.13797  1.0000
  S   S28       1.0  0.36761  0.68034  0.47165  1.0000
  C   C205      1.0  0.24797  0.67582  0.31781  1.0000
  C   C206      1.0  0.21927  0.69806  0.29362  1.0000
  H   H161      1.0  0.12192  0.96921  0.09914  1.0000
  H   H162      1.0  0.98435  0.83957  0.05227  1.0000
  S   S29       1.0  0.42473  0.67111  0.33451  1.0000
  H   H163      1.0  0.38944  0.71575  0.17524  1.0000
  H   H164      1.0  0.26639  0.70952  0.14380  1.0000
  C   C207      1.0  0.32853  0.71168  0.15387  1.0000
  H   H165      1.0  0.27872  0.68021  0.31018  1.0000
  H   H166      1.0  0.98074  0.96621  0.08023  1.0000
  H   H167      1.0  0.12299  0.73174  0.07390  1.0000
  C   C208      1.0  0.98518  0.99294  0.15705  1.0000
  H   H168      1.0  0.14769  0.67328  0.11305  1.0000
  C   C209      1.0  0.03739  0.75168  0.01153  1.0000
  C   C210      1.0  0.01085  0.98377  0.63176  1.0000
  C   C211      1.0  0.06726  0.70921  0.59149  1.0000
  H   H169      1.0  0.14518  0.83666  0.51836  1.0000
  C   C212      1.0  0.06828  0.71346  0.73442  1.0000
  H   H170      1.0  0.38068  0.71409  0.68484  1.0000
  C   C213      1.0  0.23783  0.72287  0.62875  1.0000
  H   H171      1.0  0.00935  0.89813  0.96276  1.0000
  H   H172      1.0  0.12126  0.79219  0.75253  1.0000
  C   C214      1.0  0.17419  0.73682  0.66763  1.0000
  C   C215      1.0  0.04290  0.99156  0.81294  1.0000
  C   C216      1.0  0.08469  0.81063  0.64519  1.0000
  H   H173      1.0  0.10100  0.97478  0.57450  1.0000
  H   H174      1.0  0.18428  0.72107  0.58433  1.0000
  H   H175      1.0  0.97917  0.85235  0.55955  1.0000
  C   C217      1.0  0.07937  0.84494  0.62040  1.0000
  H   H176      1.0  0.25535  0.71473  0.59426  1.0000
  S   S30       1.0  0.02221  0.97559  0.96860  1.0000
  C   C218      1.0  0.13471  0.79572  0.57975  1.0000
  C   C219      1.0  0.12911  0.82994  0.55479  1.0000
  H   H177      1.0  0.09636  0.88061  0.55477  1.0000
  C   C220      1.0  0.19240  0.74326  0.71756  1.0000
  S   S31       1.0  0.03989  0.79582  0.51798  1.0000
  C   C221      1.0  0.11303  0.78592  0.62580  1.0000
  S   S32       1.0  0.43824  0.67379  0.59445  1.0000
  H   H178      1.0  0.03239  0.74493  0.85359  1.0000
  H   H179      1.0  0.17571  0.75084  0.75267  1.0000
  H   H180      1.0  0.05096  0.73464  0.59436  1.0000
  C   C222      1.0  0.06751  0.76060  0.97574  1.0000
  H   H181      1.0  0.00420  0.90006  0.75250  1.0000
  C   C223      1.0  0.09196  0.79064  0.98639  1.0000
  P   P8        1.0  0.12184  0.74224  0.65946  1.0000
  H   H182      1.0  0.11494  0.79788  0.95821  1.0000
  C   C224      1.0  0.00702  0.95956  0.74254  1.0000
  C   C225      1.0  0.05107  0.74333  0.81831  1.0000
  H   H183      1.0  0.36739  0.68824  0.77586  1.0000
  C   C226      1.0  0.04786  0.96904  0.62051  1.0000
  H   H184      1.0  0.06644  0.95752  0.87630  1.0000
  H   H185      1.0  0.05727  0.94380  0.63993  1.0000
  H   H186      1.0  0.00009  0.91464  0.58609  1.0000
  C   C227      1.0  0.04595  0.71464  0.78161  1.0000
  C   C228      1.0  0.07873  0.77084  0.80812  1.0000
  C   C229      1.0  0.23294  0.73994  0.72276  1.0000
  C   C230      1.0  0.03622  0.92522  0.81659  1.0000
  H   H187      1.0  0.04137  0.89934  0.83726  1.0000
  H   H188      1.0  0.34683  0.68857  0.60497  1.0000
  H   H189      1.0  0.05698  0.86344  0.63502  1.0000
  C   C231      1.0  0.09595  0.74122  0.72336  1.0000
  C   C232      1.0  0.10326  0.70527  0.61792  1.0000
  C   C233      1.0  0.10111  0.76982  0.76090  1.0000
  C   C234      1.0  0.02206  0.99229  0.76447  1.0000
  C   C235      1.0  0.01473  0.92589  0.76862  1.0000
  H   H190      1.0  0.02318  0.68283  0.54289  1.0000
  H   H191      1.0  0.06592  0.80342  0.67865  1.0000
  C   C236      1.0  0.19738  0.72652  0.62329  1.0000
  C   C237      1.0  0.07275  0.98660  0.58367  1.0000
  H   H192      1.0  0.15531  0.77681  0.56196  1.0000
  C   C238      1.0  0.10165  0.85467  0.57530  1.0000
  H   H193      1.0  0.08169  0.79362  0.83595  1.0000
  H   H194      1.0  0.02334  0.69419  0.78874  1.0000
  H   H195      1.0  0.28700  0.72802  0.68235  1.0000
  C   C239      1.0  0.25562  0.72998  0.67834  1.0000
  H   H196      1.0  0.00316  0.78182  0.63887  1.0000
  H   H197      1.0  0.00114  0.80089  0.73521  1.0000
  C   C240      1.0  0.05030  0.95802  0.83868  1.0000
  H   H198      1.0  0.07153  0.74442  0.93955  1.0000
  H   H199      1.0  0.06259  0.69151  0.70606  1.0000
  C   C241      1.0  0.35961  0.69196  0.68984  1.0000
  C   C242      1.0  0.98118  0.91101  0.96855  1.0000
  H   H200      1.0  0.24691  0.74532  0.76119  1.0000
  C   C243      1.0  0.05125  0.67976  0.56264  1.0000
  C   C244      1.0  0.34070  0.67739  0.64472  1.0000
  C   C245      1.0  0.98354  0.76822  0.66672  1.0000
  C   C246      1.0  0.12249  0.67109  0.61605  1.0000
  C   C247      1.0  0.35216  0.67732  0.74100  1.0000
  C   C248      1.0  0.98014  0.89970  0.61188  1.0000
  H   H201      1.0  0.17361  0.67322  0.76936  1.0000
  C   C249      1.0  0.46201  0.67150  0.70066  1.0000
  C   C250      1.0  0.98217  0.77906  0.72118  1.0000
  P   P9        1.0  0.97947  0.96125  0.68044  1.0000
  H   H202      1.0  0.47454  0.69844  0.69327  1.0000
  H   H203      1.0  0.01767  0.72891  0.00304  1.0000
  C   C251      1.0  0.97866  0.94940  0.97232  1.0000
  Fe  Fe17      1.0  0.98913  0.75703  0.51135  1.0000
  C   C252      1.0  0.72644  0.24285  0.47220  1.0000
  Fe  Fe18      1.0  0.56768  0.27399  0.43895  1.0000
  H   H204      1.0  0.71609  0.31488  0.00684  1.0000
  Fe  Fe19      1.0  0.90161  0.13108  0.44358  1.0000
  S   S33       1.0  0.93093  0.15996  0.37239  1.0000
  S   S34       1.0  0.84176  0.10486  0.44427  1.0000
  P   P10       1.0  0.82725  0.11641  0.10970  1.0000
  S   S35       1.0  0.54107  0.31971  0.38874  1.0000
  H   H205      1.0  0.47890  0.31141  0.05516  1.0000
  H   H206      1.0  0.95467  0.17737  0.07957  1.0000
  C   C253      1.0  0.71475  0.10218  0.44597  1.0000
  H   H207      1.0  0.58163  0.06461  0.42803  1.0000
  C   C254      1.0  0.62111  0.10854  0.44908  1.0000
  C   C255      1.0  0.93969  0.13932  0.30884  1.0000
  C   C256      1.0  0.96498  0.15666  0.27180  1.0000
  H   H208      1.0  0.90905  0.00682  0.07558  1.0000
  C   C257      1.0  0.92887  0.09062  0.24343  1.0000
  C   C258      1.0  0.92151  0.10638  0.29423  1.0000
  H   H209      1.0  0.91452  0.06511  0.23250  1.0000
  H   H210      1.0  0.90163  0.09310  0.32213  1.0000
  H   H211      1.0  0.70822  0.11347  0.40652  1.0000
  C   C259      1.0  0.84135  0.18150  0.24336  1.0000
  C   C260      1.0  0.62089  0.31471  0.04697  1.0000
  C   C261      1.0  0.83643  0.02258  0.35331  1.0000
  C   C262      1.0  0.62820  0.15715  0.38326  1.0000
  S   S36       1.0  0.51186  0.24063  0.43954  1.0000
  C   C263      1.0  0.88023  0.01646  0.08670  1.0000
  C   C264      1.0  0.77360  0.31159  0.45926  1.0000
  C   C265      1.0  0.63897  0.14243  0.43420  1.0000
  H   H212      1.0  0.67550  0.14555  0.02477  1.0000
  H   H213      1.0  0.82650  0.03349  0.39153  1.0000
  S   S37       1.0  0.62532  0.24935  0.40863  1.0000
  C   C266      1.0  0.82430  0.00748  0.25990  1.0000
  C   C267      1.0  0.73612  0.18203  0.44422  1.0000
  C   C268      1.0  0.83673  0.15663  0.28597  1.0000
  C   C269      1.0  0.83784  0.16941  0.19004  1.0000
  H   H214      1.0  0.63826  0.18284  0.36776  1.0000
  Fe  Fe20      1.0  0.87020  0.06079  0.49600  1.0000
  C   C270      1.0  0.70436  0.14007  0.04094  1.0000
  H   H215      1.0  0.94608  0.04229  0.32990  1.0000
  C   C271      1.0  0.81307  0.00405  0.11123  1.0000
  H   H216      1.0  0.69978  0.18084  0.10356  1.0000
  C   C272      1.0  0.73790  0.07055  0.44897  1.0000
  C   C273      1.0  0.69881  0.20289  0.41034  1.0000
  C   C274      1.0  0.92740  0.16893  0.06107  1.0000
  C   C275      1.0  0.82552  0.10734  0.22198  1.0000
  C   C276      1.0  0.59487  0.09031  0.41517  1.0000
  H   H217      1.0  0.69899  0.20294  0.36673  1.0000
  C   C277      1.0  0.72790  0.11312  0.01743  1.0000
  Fe  Fe21      1.0  0.48457  0.28809  0.39469  1.0000
  H   H218      1.0  0.82023  0.07850  0.21459  1.0000
  C   C278      1.0  0.52612  0.25780  0.01202  1.0000
  C   C279      1.0  0.82835  0.11969  0.27530  1.0000
  C   C280      1.0  0.60175  0.13883  0.34958  1.0000
  C   C281      1.0  0.96847  0.02585  0.34842  1.0000
  H   H219      1.0  0.84061  0.16579  0.32729  1.0000
  H   H220      1.0  0.77742  0.05140  0.12761  1.0000
  C   C282      1.0  0.70125  0.12003  0.49311  1.0000
  C   C283      1.0  0.87326  0.05428  0.09045  1.0000
  H   H221      1.0  0.52921  0.26323  0.05474  1.0000
  C   C284      1.0  0.49528  0.33164  0.07773  1.0000
  H   H222      1.0  0.75888  0.16784  0.42232  1.0000
  C   C285      1.0  0.87376  0.00730  0.34951  1.0000
  H   H223      1.0  0.84838  0.21003  0.25181  1.0000
  H   H224      1.0  0.49604  0.25146  0.26405  1.0000
  H   H225      1.0  0.89689  0.07312  0.08145  1.0000
  C   C286      1.0  0.80619  0.04195  0.11595  1.0000
  H   H226      1.0  0.59357  0.15113  0.31132  1.0000
  C   C287      1.0  0.66308  0.22621  0.44499  1.0000
  H   H227      1.0  0.78250  0.03396  0.31191  1.0000
  H   H228      1.0  0.80491  0.00710  0.22547  1.0000
  H   H229      1.0  0.82556  0.10050  0.30856  1.0000
  C   C288      1.0  0.89864  0.15190  0.09248  1.0000
  C   C289      1.0  0.71806  0.15997  0.08529  1.0000
  C   C290      1.0  0.66149  0.31074  0.04989  1.0000
  C   C291      1.0  0.83045  0.13207  0.17888  1.0000
  H   H230      1.0  0.89213  0.00642  0.38507  1.0000
  C   C292      1.0  0.83621  0.06740  0.10498  1.0000
  C   C293      1.0  0.75532  0.15299  0.10619  1.0000
  H   H231      1.0  0.50511  0.20260  0.02581  1.0000
  H   H232      1.0  0.90453  0.14706  0.13482  1.0000
  H   H233      1.0  0.74869  0.05788  0.41243  1.0000
  H   H234      1.0  0.58782  0.18235  0.48297  1.0000
  H   H235      1.0  0.84158  0.18911  0.15753  1.0000
  C   C294      1.0  0.81161  0.02254  0.30862  1.0000
  H   H236      1.0  0.67499  0.30190  0.08729  1.0000
  C   C295      1.0  0.77915  0.12589  0.08287  1.0000
  S   S38       1.0  0.93021  0.08496  0.48884  1.0000
  H   H237      1.0  0.56438  0.09166  0.33932  1.0000
  C   C296      1.0  0.95476  0.10749  0.20684  1.0000
  H   H238      1.0  0.78933  0.22209  0.46878  1.0000
  C   C297      1.0  0.58518  0.10546  0.36537  1.0000
  C   C298      1.0  0.76980  0.24547  0.46766  1.0000
  H   H239      1.0  0.62709  0.09619  0.48804  1.0000
  H   H240      1.0  0.76718  0.03210  0.50141  1.0000
  H   H241      1.0  0.76524  0.16876  0.14053  1.0000
  C   C299      1.0  0.74813  0.05591  0.49902  1.0000
  H   H242      1.0  0.49530  0.23261  0.16752  1.0000
  C   C300      1.0  0.86336  0.14019  0.06907  1.0000
  C   C301      1.0  0.97268  0.14074  0.22103  1.0000
  C   C302      1.0  0.71120  0.28120  0.46921  1.0000
  S   S39       1.0  0.96289  0.08573  0.14404  1.0000
  P   P11       1.0  0.67223  0.16360  0.48602  1.0000
  C   C303      1.0  0.76512  0.10601  0.03827  1.0000
  H   H243      1.0  0.60327  0.30836  0.08215  1.0000
  H   H244      1.0  0.82319  0.27635  0.45907  1.0000
  C   C304      1.0  0.79159  0.27783  0.46168  1.0000
  H   H245      1.0  0.68060  0.28837  0.47167  1.0000
  C   C305      1.0  0.85776  0.14512  0.01335  1.0000
  C   C306      1.0  0.73358  0.31320  0.46299  1.0000
  H   H246      1.0  0.78304  0.08511  0.01940  1.0000
  C   C307      1.0  0.92151  0.17390  0.00578  1.0000
  C   C308      1.0  0.48800  0.27973  0.67504  1.0000
  C   C309      1.0  0.61148  0.16564  0.63349  1.0000
  C   C310      1.0  0.59492  0.17569  0.52443  1.0000
  Fe  Fe22      1.0  0.91525  0.11529  0.56515  1.0000
  C   C311      1.0  0.62653  0.33288  0.95309  1.0000
  S   S40       1.0  0.85613  0.08921  0.57381  1.0000
  C   C312      1.0  0.66712  0.32884  0.95611  1.0000
  S   S41       1.0  0.96385  0.10973  0.62780  1.0000
  S   S42       1.0  0.55541  0.30208  0.51818  1.0000
  H   H247      1.0  0.94418  0.18625  0.98103  1.0000
  H   H248      1.0  0.84223  0.04909  0.69001  1.0000
  C   C313      1.0  0.92734  0.00979  0.73142  1.0000
  C   C314      1.0  0.53414  0.28527  0.97354  1.0000
  S   S43       1.0  0.95903  0.13974  0.88088  1.0000
  H   H249      1.0  0.64490  0.24555  0.53565  1.0000
  Fe  Fe23      1.0  0.49785  0.27174  0.51591  1.0000
  H   H250      1.0  0.94740  0.01131  0.76494  1.0000
  H   H251      1.0  0.61820  0.16322  0.67604  1.0000
  H   H252      1.0  0.50456  0.30813  0.74791  1.0000
  C   C315      1.0  0.92854  0.14048  0.77828  1.0000
  C   C316      1.0  0.92856  0.13362  0.72232  1.0000
  H   H253      1.0  0.90509  0.15641  0.79580  1.0000
  H   H254      1.0  0.90540  0.14439  0.69713  1.0000
  C   C317      1.0  0.64123  0.16179  0.59511  1.0000
  C   C318      1.0  0.56538  0.17974  0.56289  1.0000
  H   H255      1.0  0.67048  0.15904  0.61012  1.0000
  C   C319      1.0  0.95951  0.11441  0.69879  1.0000
  H   H256      1.0  0.71732  0.09773  0.98295  1.0000
  C   C320      1.0  0.53136  0.27654  0.91847  1.0000
  H   H257      1.0  0.88918  0.05041  0.76624  1.0000
  H   H258      1.0  0.53864  0.29664  0.88772  1.0000
  C   C321      1.0  0.86746  0.03111  0.68975  1.0000
  C   C322      1.0  0.73466  0.07262  0.54603  1.0000
  H   H259      1.0  0.49693  0.18876  0.92843  1.0000
  C   C323      1.0  0.70479  0.21005  0.54723  1.0000
  S   S44       1.0  0.96773  0.06932  0.99608  1.0000
  C   C324      1.0  0.88679  0.16188  0.98192  1.0000
  C   C325      1.0  0.87421  0.00800  0.64574  1.0000
  Fe  Fe24      1.0  0.83322  0.13580  0.52207  1.0000
  C   C326      1.0  0.50831  0.21527  0.94095  1.0000
  C   C327      1.0  0.63333  0.16531  0.53942  1.0000
  H   H260      1.0  0.51240  0.29019  0.65177  1.0000
  C   C328      1.0  0.89391  0.03185  0.73268  1.0000
  C   C329      1.0  0.95895  0.12760  0.81148  1.0000
  H   H261      1.0  0.88293  0.16481  0.93867  1.0000
  H   H262      1.0  0.70781  0.21369  0.59028  1.0000
  H   H263      1.0  0.83153  0.13547  0.99367  1.0000
  H   H264      1.0  0.55065  0.17823  0.64706  1.0000
  H   H265      1.0  0.53629  0.18817  0.55053  1.0000
  C   C330      1.0  0.48342  0.28997  0.72947  1.0000
  S   S45       1.0  0.77881  0.16680  0.55096  1.0000
  H   H266      1.0  0.70379  0.11683  0.58049  1.0000
  C   C331      1.0  0.51795  0.24186  0.90233  1.0000
  C   C332      1.0  0.57354  0.17433  0.61735  1.0000
  C   C333      1.0  0.73922  0.18574  0.51332  1.0000
  S   S46       1.0  0.89195  0.16428  0.51930  1.0000
  H   H267      1.0  0.51400  0.23604  0.85978  1.0000
  C   C334      1.0  0.66657  0.22990  0.51373  1.0000
  H   H268      1.0  0.74354  0.06195  0.58496  1.0000
  H   H269      1.0  0.85437  0.00798  0.61163  1.0000
  H   H270      1.0  0.97173  0.02959  0.61534  1.0000
  C   C335      1.0  0.71126  0.10417  0.54319  1.0000
  P   P12       1.0  0.55084  0.33030  0.99444  1.0000
  C   C336      1.0  0.51291  0.22307  0.99572  1.0000
  H   H271      1.0  0.94292  0.01128  0.50873  1.0000
  C   C337      1.0  0.60325  0.32671  0.99890  1.0000
  C   C338      1.0  0.68463  0.31798  0.00456  1.0000
  H   H272      1.0  0.68500  0.33397  0.92076  1.0000
  C   C339      1.0  0.62103  0.58179  0.17733  1.0000
  C   C340      1.0  0.57859  0.45880  0.30309  1.0000
  H   H273      1.0  0.58199  0.43709  0.27356  1.0000
  H   H274      1.0  0.56209  0.53464  0.41047  1.0000
  C   C341      1.0  0.56679  0.49400  0.28680  1.0000
  C   C342      1.0  0.59054  0.60471  0.37869  1.0000
  H   H275      1.0  0.64786  0.56965  0.16253  1.0000
  H   H276      1.0  0.56075  0.49913  0.24451  1.0000
  C   C343      1.0  0.59809  0.63299  0.41558  1.0000
  C   C344      1.0  0.55240  0.61401  0.21564  1.0000
  H   H277      1.0  0.52622  0.62715  0.23047  1.0000
  C   C345      1.0  0.60440  0.61141  0.14951  1.0000
  H   H278      1.0  0.47914  0.66270  0.15197  1.0000
  H   H279      1.0  0.55043  0.40632  0.15963  1.0000
  C   C346      1.0  0.56773  0.51412  0.37995  1.0000
  C   C347      1.0  0.56813  0.58350  0.24288  1.0000
  C   C348      1.0  0.56219  0.52218  0.32500  1.0000
  P   P13       1.0  0.54488  0.56690  0.30383  1.0000
  C   C349      1.0  0.52542  0.62894  0.36440  1.0000
  C   C350      1.0  0.49974  0.37115  0.15606  1.0000
  H   H280      1.0  0.49220  0.56478  0.20872  1.0000
  H   H281      1.0  0.49797  0.49413  0.12034  1.0000
  H   H282      1.0  0.51406  0.40142  0.36914  1.0000
  C   C351      1.0  0.49281  0.56107  0.29625  1.0000
  H   H283      1.0  0.49837  0.46743  0.35568  1.0000
  H   H284      1.0  0.61801  0.62194  0.11296  1.0000
  H   H285      1.0  0.71920  0.33975  0.46110  1.0000
  H   H286      1.0  0.57797  0.38413  0.07376  1.0000
  C   C352      1.0  0.55379  0.60198  0.35381  1.0000
  S   S47       1.0  0.52419  0.59599  0.04945  1.0000
  H   H287      1.0  0.49752  0.62878  0.34371  1.0000
  C   C353      1.0  0.57027  0.62768  0.16893  1.0000
  H   H288      1.0  0.59321  0.42375  0.37065  1.0000
  H   H289      1.0  0.55762  0.65083  0.14741  1.0000
  C   C354      1.0  0.58500  0.45126  0.35771  1.0000
  C   C355      1.0  0.53294  0.65701  0.40144  1.0000
  C   C356      1.0  0.57941  0.47885  0.39608  1.0000
  H   H290      1.0  0.61343  0.58524  0.36910  1.0000
  H   H291      1.0  0.48253  0.55459  0.38210  1.0000
  H   H292      1.0  0.61724  0.54582  0.24577  1.0000
  H   H293      1.0  0.48764  0.38093  0.19373  1.0000
  H   H294      1.0  0.58316  0.47238  0.43852  1.0000
  C   C357      1.0  0.60324  0.56808  0.22418  1.0000
  C   C358      1.0  0.56922  0.65900  0.42719  1.0000
  C   C359      1.0  0.49094  0.43656  0.47690  1.0000
  H   H295      1.0  0.62648  0.63502  0.43472  1.0000
  C   C360      1.0  0.49029  0.40937  0.34279  1.0000
  C   C361      1.0  0.53127  0.34506  0.05869  1.0000
  C   C362      1.0  0.48165  0.44653  0.33485  1.0000
  C   C363      1.0  0.53523  0.38520  0.13703  1.0000
  Fe  Fe25      1.0  0.52433  0.34526  0.46801  1.0000
  C   C364      1.0  0.55088  0.37234  0.08846  1.0000
  H   H296      1.0  0.49567  0.41720  0.03260  1.0000
  S   S48       1.0  0.53212  0.40711  0.48222  1.0000
  H   H297      1.0  0.52375  0.48593  0.49425  1.0000
  C   C365      1.0  0.49534  0.47477  0.48445  1.0000
  H   H298      1.0  0.53063  0.59060  0.47752  1.0000
  H   H299      1.0  0.79075  0.33653  0.45460  1.0000
  C   C366      1.0  0.47971  0.34456  0.12627  1.0000
  H   H300      1.0  0.59158  0.55695  0.50085  1.0000
  C   C367      1.0  0.58026  0.51574  0.70908  1.0000
  S   S49       1.0  0.54161  0.58312  0.92032  1.0000
  C   C368      1.0  0.51292  0.42608  0.88380  1.0000
  C   C369      1.0  0.52230  0.61135  0.55787  1.0000
  C   C370      1.0  0.54863  0.37320  0.72957  1.0000
  C   C371      1.0  0.56102  0.48382  0.72669  1.0000
  H   H301      1.0  0.51942  0.62599  0.64148  1.0000
  H   H302      1.0  0.50376  0.39055  0.58806  1.0000
  H   H303      1.0  0.49569  0.62596  0.54776  1.0000
  C   C372      1.0  0.54669  0.42925  0.91509  1.0000
  C   C373      1.0  0.49206  0.39298  0.88328  1.0000
  H   H304      1.0  0.51561  0.57946  0.75524  1.0000
  H   H305      1.0  0.71044  0.55765  0.78478  1.0000
  C   C374      1.0  0.69742  0.57081  0.74983  1.0000
  C   C375      1.0  0.56968  0.36420  0.68311  1.0000
  S   S50       1.0  0.51255  0.49207  0.00255  1.0000
  H   H306      1.0  0.48255  0.52358  0.78774  1.0000
  C   C376      1.0  0.51615  0.38598  0.62775  1.0000
  H   H307      1.0  0.61679  0.55803  0.59413  1.0000
  C   C377      1.0  0.56460  0.55059  0.72043  1.0000
  C   C378      1.0  0.54209  0.59148  0.51827  1.0000
  P   P14       1.0  0.58732  0.59150  0.69344  1.0000
  C   C379      1.0  0.57102  0.59361  0.62427  1.0000
  C   C380      1.0  0.50983  0.52116  0.76575  1.0000
  C   C381      1.0  0.57098  0.66633  0.70818  1.0000
  H   H308      1.0  0.56962  0.36384  0.59605  1.0000
  H   H309      1.0  0.63874  0.55800  0.77416  1.0000
  Fe  Fe26      1.0  0.50934  0.55367  0.98676  1.0000
  C   C382      1.0  0.66376  0.60682  0.66142  1.0000
  C   C383      1.0  0.59074  0.57355  0.58428  1.0000
  C   C384      1.0  0.57636  0.57260  0.53143  1.0000
  H   H310      1.0  0.59835  0.35178  0.68641  1.0000
  H   H311      1.0  0.72288  0.62090  0.63900  1.0000
  Fe  Fe27      1.0  0.48383  0.61085  0.90358  1.0000
  C   C385      1.0  0.63973  0.58850  0.69884  1.0000
  C   C386      1.0  0.49156  0.51450  0.60964  1.0000
  C   C387      1.0  0.53772  0.36656  0.94771  1.0000
  C   C388      1.0  0.53622  0.61184  0.61090  1.0000
  C   C389      1.0  0.55346  0.37074  0.63224  1.0000
  C   C390      1.0  0.65680  0.57091  0.74351  1.0000
  C   C391      1.0  0.57414  0.62919  0.78944  1.0000
  H   H312      1.0  0.60712  0.51322  0.68629  1.0000
  C   C392      1.0  0.50430  0.36344  0.91521  1.0000
  S   S51       1.0  0.49465  0.65856  0.96059  1.0000
  H   H313      1.0  0.61331  0.34071  0.91504  1.0000
  H   H314      1.0  0.51087  0.46197  0.76843  1.0000
  H   H315      1.0  0.57881  0.60307  0.80961  1.0000
  H   H316      1.0  0.51944  0.52516  0.59608  1.0000
  C   C393      1.0  0.72122  0.58853  0.71190  1.0000
  Fe  Fe28      1.0  0.55134  0.62881  0.98089  1.0000
  H   H317      1.0  0.51427  0.46087  0.62594  1.0000
  H   H318      1.0  0.56203  0.45540  0.91696  1.0000
  C   C394      1.0  0.52887  0.55299  0.74780  1.0000
  H   H319      1.0  0.57311  0.45695  0.71783  1.0000
  C   C395      1.0  0.55887  0.39978  0.94737  1.0000
  C   C396      1.0  0.52588  0.48658  0.75515  1.0000
  C   C397      1.0  0.49497  0.39538  0.67412  1.0000
  C   C398      1.0  0.51137  0.38868  0.72517  1.0000
  H   H320      1.0  0.50204  0.44977  0.86199  1.0000
  C   C399      1.0  0.57531  0.63170  0.73288  1.0000
  H   H321      1.0  0.49537  0.39478  0.76166  1.0000
  H   H322      1.0  0.75268  0.58888  0.71731  1.0000
  C   C400      1.0  0.70440  0.60654  0.66774  1.0000
  H   H323      1.0  0.65112  0.62197  0.62802  1.0000
  C   C401      1.0  0.48842  0.47788  0.62672  1.0000
  H   H324      1.0  0.56083  0.36755  0.76909  1.0000
  H   H325      1.0  0.58387  0.40353  0.97355  1.0000
  H   H326      1.0  0.64204  0.65915  0.89430  1.0000
  S   S52       1.0  0.60843  0.65881  0.00457  1.0000
  H   H327      1.0  0.48688  0.33864  0.91534  1.0000
  H   H328      1.0  0.56659  0.65847  0.86434  1.0000
  C   C402      1.0  0.56740  0.66057  0.82067  1.0000
  C   C403      1.0  0.90526  0.84754  0.35678  1.0000
  H   H329      1.0  0.91677  0.91535  0.20933  1.0000
  C   C404      1.0  0.97184  0.83842  0.09235  1.0000
  S   S53       1.0  0.94310  0.71593  0.07366  1.0000
  C   C405      1.0  0.92876  0.90804  0.47422  1.0000
  C   C406      1.0  0.85013  0.99131  0.09674  1.0000
  H   H330      1.0  0.84999  0.86874  0.38351  1.0000
  H   H331      1.0  0.88217  0.74749  0.14122  1.0000
  C   C407      1.0  0.87757  0.87516  0.36416  1.0000
  H   H332      1.0  0.93717  0.91657  0.11363  1.0000
  H   H333      1.0  0.89891  0.81965  0.36988  1.0000
  C   C408      1.0  0.90728  0.75202  0.22103  1.0000
  C   C409      1.0  0.94899  0.89161  0.31465  1.0000
  H   H334      1.0  0.88267  0.83703  0.15285  1.0000
  C   C410      1.0  0.92159  0.91976  0.32275  1.0000
  C   C411      1.0  0.94190  0.72929  0.14237  1.0000
  C   C412      1.0  0.88575  0.91120  0.34768  1.0000
  C   C413      1.0  0.94774  0.93743  0.14123  1.0000
  C   C414      1.0  0.90807  0.74370  0.16562  1.0000
  C   C415      1.0  0.93123  0.83936  0.09789  1.0000
  C   C416      1.0  0.93635  0.93687  0.19545  1.0000
  C   C417      1.0  0.93785  0.83426  0.19452  1.0000
  C   C418      1.0  0.90091  0.96927  0.48926  1.0000
  C   C419      1.0  0.94111  0.85586  0.33265  1.0000
  H   H335      1.0  0.88064  0.76234  0.23888  1.0000
  C   C420      1.0  0.88657  0.99169  0.30096  1.0000
  H   H336      1.0  0.91282  0.84086  0.06254  1.0000
  S   S54       1.0  0.85961  0.99886  0.49093  1.0000
  H   H337      1.0  0.86402  0.93211  0.35513  1.0000
  C   C421      1.0  0.94069  0.74741  0.25336  1.0000
  H   H338      1.0  0.92432  0.83104  0.23368  1.0000
  C   C422      1.0  0.91422  0.83732  0.14888  1.0000
  C   C423      1.0  0.94939  0.96449  0.23087  1.0000
  H   H339      1.0  0.92479  0.87922  0.46487  1.0000
  H   H340      1.0  0.78971  0.98448  0.11875  1.0000
  S   S55       1.0  0.95390  0.79595  0.46070  1.0000
  S   S56       1.0  0.93732  0.75821  0.32286  1.0000
  P   P15       1.0  0.93172  0.96604  0.29942  1.0000
  H   H341      1.0  0.86701  0.92058  0.47215  1.0000
  C   C424      1.0  0.97108  0.95937  0.49462  1.0000
  H   H342      1.0  0.85558  0.96199  0.09294  1.0000
  C   C425      1.0  0.89606  0.93154  0.47841  1.0000
  H   H343      1.0  0.57503  0.68098  0.45562  1.0000
  C   C426      1.0  0.68163  0.69124  0.01074  1.0000
  C   C427      1.0  0.96870  0.98755  0.34128  1.0000
  H   H344      1.0  0.87061  0.98012  0.21804  1.0000
  C   C428      1.0  0.96653  0.92215  0.48102  1.0000
  H   H345      1.0  0.48058  0.67831  0.24958  1.0000
  H   H346      1.0  0.51062  0.67748  0.40949  1.0000
  H   H347      1.0  0.96242  0.83426  0.32680  1.0000
  S   S57       1.0  0.84430  0.77004  0.02006  1.0000
  H   H348      1.0  0.73879  0.71685  0.01798  1.0000
  C   C429      1.0  0.86169  0.99223  0.25588  1.0000
  C   C430      1.0  0.93860  0.98280  0.49839  1.0000
  C   C431      1.0  0.97223  0.96541  0.12220  1.0000
  H   H349      1.0  0.67513  0.69384  0.05326  1.0000
  C   C432      1.0  0.97342  0.99285  0.21101  1.0000
  C   C433      1.0  0.97484  0.73365  0.22998  1.0000
  C   C434      1.0  0.97516  0.72397  0.17489  1.0000
  Fe  Fe29      1.0  0.90251  0.74137  0.01094  1.0000
  H   H350      1.0  0.97643  0.89724  0.29446  1.0000
  H   H351      1.0  0.55697  0.71898  0.82010  1.0000
  C   C435      1.0  0.94194  0.96567  0.97943  1.0000
  Fe  Fe30      1.0  0.91060  0.76326  0.89027  1.0000
  S   S58       1.0  0.85299  0.79221  0.89188  1.0000
  S   S59       1.0  0.95605  0.77643  0.82559  1.0000
  C   C436      1.0  0.92929  0.91910  0.84429  1.0000
  C   C437      1.0  0.74286  0.80563  0.85870  1.0000
  C   C438      1.0  0.94742  0.88905  0.97170  1.0000
  C   C439      1.0  0.80339  0.93629  0.70715  1.0000
  C   C440      1.0  0.86365  0.92932  0.81106  1.0000
  C   C441      1.0  0.79237  0.86548  0.87872  1.0000
  C   C442      1.0  0.84638  0.77668  0.69798  1.0000
  C   C443      1.0  0.78581  0.90960  0.74057  1.0000
  C   C444      1.0  0.74038  0.96468  0.69141  1.0000
  C   C445      1.0  0.72694  0.70141  0.93591  1.0000
  H   H352      1.0  0.87991  0.95626  0.98895  1.0000
  C   C446      1.0  0.93336  0.72284  0.68470  1.0000
  C   C447      1.0  0.93191  0.73373  0.73917  1.0000
  C   C448      1.0  0.95614  0.76207  0.75750  1.0000
  S   S60       1.0  0.93061  0.78850  0.96780  1.0000
  H   H353      1.0  0.91439  0.70097  0.67070  1.0000
  H   H354      1.0  0.91215  0.72015  0.76697  1.0000
  S   S61       1.0  0.88707  0.71282  0.93277  1.0000
  C   C449      1.0  0.96549  0.91549  0.65928  1.0000
  C   C450      1.0  0.96831  0.86432  0.59652  1.0000
  C   C451      1.0  0.74522  0.91087  0.74909  1.0000
  C   C452      1.0  0.72268  0.93837  0.72471  1.0000
  H   H355      1.0  0.79422  0.98380  0.65632  1.0000
  H   H356      1.0  0.75742  0.81302  0.77526  1.0000
  C   C453      1.0  0.89094  0.86779  0.81116  1.0000
  Fe  Fe31      1.0  0.87234  0.81569  0.97099  1.0000
  C   C454      1.0  0.93895  0.89537  0.69089  1.0000
  S   S62       1.0  0.95864  0.72644  0.57978  1.0000
  C   C455      1.0  0.71788  0.70439  0.99081  1.0000
  H   H357      1.0  0.95588  0.92972  0.86222  1.0000
  H   H358      1.0  0.92704  0.90739  0.72709  1.0000
  H   H359      1.0  0.70556  0.68254  0.85893  1.0000
  C   C456      1.0  0.56397  0.69763  0.73952  1.0000
  H   H360      1.0  0.77834  0.85688  0.96253  1.0000
  H   H361      1.0  0.72284  0.98584  0.67227  1.0000
  H   H362      1.0  0.83413  0.79468  0.77823  1.0000
  S   S63       1.0  0.77209  0.71789  0.90784  1.0000
  C   C457      1.0  0.92817  0.85960  0.67628  1.0000
  S   S64       1.0  0.86782  0.87764  0.98544  1.0000
  C   C458      1.0  0.89834  0.94295  0.83332  1.0000
  H   H363      1.0  0.73506  0.80309  0.94480  1.0000
  H   H364      1.0  0.90100  0.97189  0.84334  1.0000
  H   H365      1.0  0.83461  0.93579  0.69966  1.0000
  H   H366      1.0  0.84349  0.83011  0.58526  1.0000
  H   H367      1.0  0.72464  0.78164  0.85144  1.0000
  C   C459      1.0  0.90754  0.98595  0.64434  1.0000
  C   C460      1.0  0.66286  0.67172  0.92143  1.0000
  C   C461      1.0  0.92543  0.88146  0.83387  1.0000
  H   H368      1.0  0.69140  0.93915  0.73147  1.0000
  H   H369      1.0  0.83962  0.94813  0.80474  1.0000
  H   H370      1.0  0.90908  0.84349  0.70196  1.0000
  H   H371      1.0  0.85902  0.76629  0.61428  1.0000
  C   C462      1.0  0.74869  0.81776  0.91153  1.0000
  C   C463      1.0  0.91070  0.90500  0.97964  1.0000
  Fe  Fe32      1.0  0.82957  0.74372  0.93967  1.0000
  C   C464      1.0  0.85997  0.89169  0.79861  1.0000
  H   H372      1.0  0.93300  0.81704  0.61627  1.0000
  H   H373      1.0  0.91284  0.96898  0.60917  1.0000
  C   C465      1.0  0.78760  0.85271  0.82564  1.0000
  H   H374      1.0  0.81208  0.88803  0.88772  1.0000
  H   H375      1.0  0.88863  0.83849  0.80393  1.0000
  H   H376      1.0  0.94890  0.86265  0.84407  1.0000
  C   C466      1.0  0.76193  0.82319  0.81580  1.0000
  C   C467      1.0  0.90815  0.94351  0.98346  1.0000
  C   C468      1.0  0.84946  0.78649  0.64365  1.0000
  H   H377      1.0  0.85299  0.74880  0.71066  1.0000
  H   H378      1.0  0.73075  0.89066  0.77437  1.0000
  C   C469      1.0  0.78067  0.96359  0.68257  1.0000
  C   C470      1.0  0.84075  0.82243  0.62741  1.0000
  C   C471      1.0  0.77307  0.84793  0.92146  1.0000
  H   H379      1.0  0.82339  0.87629  0.65174  1.0000
  C   C472      1.0  0.83539  0.80287  0.73628  1.0000
  C   C473      1.0  0.82651  0.83912  0.72051  1.0000
  C   C474      1.0  0.82931  0.84865  0.66555  1.0000
  P   P16       1.0  0.81495  0.87352  0.77096  1.0000
  C   C475      1.0  0.94219  0.84439  0.62848  1.0000
  H   H380      1.0  0.56016  0.72421  0.72026  1.0000
  C   C476      1.0  0.56217  0.69474  0.79573  1.0000
  H   H381      1.0  0.95002  0.85980  0.96756  1.0000
  C   C477      1.0  0.95881  0.74031  0.64815  1.0000
  H   H382      1.0  0.47965  0.66990  0.78468  1.0000
  C   C478      1.0  0.93469  0.98708  0.68675  1.0000
  H   H383      1.0  0.57337  0.66939  0.66488  1.0000
  C   C479      1.0  0.69904  0.68505  0.90146  1.0000
  C   C480      1.0  0.65379  0.67474  0.97638  1.0000
  H   H384      1.0  0.93949  0.99523  0.98183  1.0000
