data_image0
_chemical_formula_structural       FeS2FeS2FeSFeS3FeS2CSFeSFeS2FeSFeS2Fe2HS2FeS2FeS2CFeSCSFeS2C6H5C3H2C3HCHCHC6H6CHCHC6H4CPC2H3C2H3C6H4C3HC5HC2HSFeHCHCPC2HC2HCHC2H2PC6PC18H7CH10FeH3C3SC3HC2H5CH5C2HCHPHC2SH2C3HC6HC4H2CH2CHC7HSC2HCHCPC2H4C2HC2HC2HCH4CH2PHCH2C2HC3HCH3C3H2C4HC7H2CHSHCH3C4H3C2H2C2H3C2HPH3CHCH2C2HCSH4C2HCHC2HC3H3C2H4CH2C2FeC2H3C3HCHC4H2CHCHCH3CHC2H2CH2CHFeS2FeS2FeSFeS3FeCSFeSC3S2FeSH2SFeSFeS2C3HFeSFeS2FeSFeS3FeS2H2SHC6H4C3H3C2HFeH3C7H4CHC7H4C4H2C7H4C3HC9H9SC3PC8HC7HCHC2H7CHCH5CHC3PC11H9C6H5C3SH2CPC2HC2H3C2H4C2HCH4SCHC3H3CH2CH2CH3C2HPC2HC4H2CH2C7H2C3HCHCHCHC3H2C2H3C2H2CHC3H2C3H3CH3C3HCHC4HC7HCH2C2HC2HCHC2H2CSCHFeHCFeHCHCHCH3SC3H2C3FeCHPH3CPH3CHCSCHFeS2FeS2FeSFeS3H3CH3CHC2FeSC3H2C11H4C2HC3HCH2C6H4C2H2SC5H6CHC2H2C4HSC3PHCH3C4HC3HC2HCHPC3HSCH2C5HCH4PHC7H3C4HC2H2C3H5CH6CH2C6PC18HC2H17C3HC3SCHCH2C2H3CHC3H5C8H2CHCSCHCH3CH2CH2CHC2H2SHC2FeSHSHCH3C3FeS2FeS2FeSFeS3H2CHCHC2H2C3H3C6H2C8H6C7H4C4HC8HCHC2HCSH2C2H2C3H2C6HC2H3C2HPC4HC13H3CH2CH2CH10C2HC2H2CH2CHCHCSC2HCHC2H2C2HC2SH2CH2C2HC2PC2H4CSCHCH2CHC2H6SH2C2H2C3HCHC2H2CH2C3PC8HC4HPC3H10PH4CHCH3C5HCHCH2C3HC2H2C2HCHCHSC2H2CHCH4CFeS2FeS2FeSFeS3CSFeSHFeSFeS2CSFeSFe2SFeS2FeS2FeS2CFeSCS2HSCH3CHC6H4C2H3C2HC2HC6H5C2HC3H2C6H4C7H3CSHCH3CHC2H2CFeC2H2CH3CHCHC2HCH3C2HCH4C2HC3H5PH5C4HCH2C4H3C2PC18H14C6PC4HC13H8CH11C6PC15H2CH6CH9C2HC5HCHCHC2SCH2C2H3CHCHCH2C2HC3H3FeHC3H2FeHSCHSH2CSH2CHC4HFeH2C12PC11HSH2CHCHCHCSCH2CHC3H6CHCHC2HC2HCHCHCHCHPSHCHC2FeS2FeS2FeSFeS3FeSFeS2FeSFeS2FeSFeS2HFeHS2HSFeS2FeSFeS3CH2CHC2HCH3C2H2CSC6H4C2SHCHC2H2C6H4C6H4C2H2CHC5HC6HCH2C6PC18H20C3HCHC2HCH4C2H2CHC2HSC4HPH2CH8PC2FeHCPHC5H2C6FeH2CHC2HCHCHSHC5HSC2HCH2CHC2SCHC3SC2FeCH2C2HCH2C5H2C6PC18H20PHCHCH3C8PC3HCHCH2CHSC4HCH5CH2SHCH2C2HFeC2H4C2H2CHC6HCHC2FeHC2H2CHCHC2H4CPH2C2HC6H3CH2C2H2FeS2FeS2FeSFeS4C6H4C3H2C6H4CHCH3C2H2C4H9C9HC2HCH3CPSC3H2CHPHC3HC8HC4SHC9HCH2C3HC2HCH6C2H2C2HCHC2HCHCHC2HC2H2C2H2C5HC7H2C5HCHCH4C2HC7HCH2PCHCFeH4CHC2PCH3CH3CHC4PH5C4H2C6H3C2HSHSH4CH4PH2CSC3H2CHCHCFeS2FeS2FeSFeS3HCHCHC7H4C7H3CPHC7H3CH4C2H2PC5HCHCH2CH2C3H2C2HPH5CH2C3HCSCH3CHC3H2C7HCH2CH4C2SH2C2H4C3SCH3C4H4PC2HCHC8HC2H2C2H3CH3CHCHCHC2PH2C9HC2H2C3HC3H2C2H3CHC2H5C8H2C2HFeC3HC5HC3HCHCH5C2H5C2HC4H2C3H2CPH3SCH2CSHFeS2FeS2FeS2FeSFeS3HC6H4C2H2C7H4C7H4C3HC2H3CHC3HCH2CHC6PH3C4HC2H3CHFeHSHCHC2HCH2C2H3PHCH5C2H3C2H3CH3C10PC3HC6HC4HC2H2CH3SH4CHCH2CHCHC3H4C4H2SH5CHC3H2C3H2CFeC4HCSH3C3H3CH2C3HCH2C2H2C2HCHC2HC2H3CPC2HC5HSCS2HCS2FeS2FeS2FeSFeS3FeC3H2C6H4C6H4C6H7C2H3C2HSC7HC2H6CHCH3C2H2C2HCPC4H2CPCH2CSC2HC6H2C5H2CHC4HC4H2C2HCH2CH2C2HCHCH2SC2HCHCHC2HC2HC2HCHC3H2C4H3C3H2CH2PC4H2CH6C4HCH4C6HCHCHCHC3H3CHC2HCHCH2CHCH2SCHC2PC2HCFeC2H4C2HC2SC5H2C6HCH2FePC3HFeH2C2HCHC2HCH2SHCHCH2C4HCFeS2FeS2FeS2FeSFeS3CSFeSHFeSFeS2CSFeSHFeSFePSHC2FeS2FeS2Fe2S3C6H5CH2CHC3HC6H4CHC3SC3HC3HC7H4C6H6C2H3CH3C2HCFeC3H2SHC2H2C6PC20H19C2FeHCHC3HC6PC3HPCHC5HCH7SCHCH9CHC3HC4HCHC3H2CH2CH2C3HCPC6PC7HC3H2CH13C2HC7H2CHCHCHC8H3C3HCHCHCSCHCHC2HC2H2C3HCH2CH5C2HC6PC5HC12H19CHPSHC2H2C3HCH3C3H3C3HCHCHCH3CHC2HC7SHFeS2FeS2FeSFeS3FeSCHSFeSFeS2CSCSHFeSFeSCSHFeS2FeS2Fe2S3C3H2CH3C7H4C2H2CH2CH2C6H4C6H4C4H2C2H4C6H3C2FeHC2H2FeCHCH2CH2C4H5C3H2C3H3CH2CH2CHCHCHC4H2CFeHCHSH3C2HC2HCHC2H2C2HCH2CH2C2H2C3HCHCHCHCHC2SHC2H2CHPC3HPHC12HCHCH2CH12CHC4PC19HCH4C2H3C2H9CSC3HFeH2FeC3HC3HC2HCHCSHC5HC4HC4H2CSH2C2H2PC2HCHFeCH2C3H2C2H4SC2H2CH2CHCHPCFeS2FeS2FeSFeS3HFeCS2H2CPC2HC3HC8H4CHCH2C6H2CHC6H5C2H3CH2CHCH2C3HCHCHCHCH3CH3CS2H3C4HC3H2CHC2HCHPCHC6SH3C4H3C5HCH4CH3CHC4H7CPHC2H3C4HC5HCH4CHFeC2H3C3HC2PCHCH2C2PC2HC13HCH2CHC2HCH2CH2C2H3C2HCSCSFe2S2FeS2FeS2FeSFeS5HCHC2H2C2H2C2SHCHC8H2CHC6H4C3HC2H2C6H5C6SC7HC2HC2H4C2PH2CHCH4CFeH2CHCHCPH3CH2CH2C4HC3PC8HC3HC6SCH6CH4C2H3CHC3H3CHCHC2HCH2CHCPC18H12CH3C2H7C3H2C2HPCHC4H2CH4CH2CH2C4H4CH2CH2CHC2H3C2FeS2FeS2FeSFeS3FeS2FeHFeHCS2H3CHCFeSFeS2FeSFeS2FeS2FeS2FeSFeS2HC4HC7H5C3HCHC2HSCHC2HC6H4C6HCH2CFeCPHC2H4C7H6C2H3C2HC3HC3HSHCHCHCHCHC2H2C2HPFeHCH2C2H4CH2CH2CHCPCHC2H2C2HC6H2CH2CHC2H2SCH3C6HCH4CH2CSH4C4H4C6PC18HCH18C6PC18H20C3HC2PC8HC6HCH3CHCSC2HCH2C2FeCHC2HC2HC5HCH4CH3C10HCHC3HC2HCH5CHPHC3H2C2HSH2CHC4HSCHC2HC3HCHCHCHCH2FeS2FeS2FeSFeS3FeS2HSFeSFeS2HC3FeSCHSFeSFeS2FeS2FeS2CFeS3FeC8H5C2HCH2C3HCH2C2HC2H2C6H4C3HC6H4CSHC2SHC6H4C2H2C6PC18H22C7H3CHC2H2C2H3SH6CH4CHC4HCH4C3HCHCH2C5HCHCH3C2SHC2HFeSH6C3H2CHC3HC2H5CH4CHC3H6C3FeCH2CH2CHC6PC18H5C2HCHSC5H2CPH2C2HCH2C4HP2CHCH2C2H3PCHCHCSCH2C2H2FeH3C2HC8H2CHCHC3HCPC5H2C6H2CH4C7H2C2H2PHC2HCHC
_chemical_formula_sum              "Fe192 S384 C2880 H2304 P96"
_cell_length_a       65.2682
_cell_length_b       65.293
_cell_length_c       51.6145
_cell_angle_alpha    88.9153
_cell_angle_beta     88.7199
_cell_angle_gamma    89.3007

_space_group_name_H-M_alt    "P 1"
_space_group_IT_number       1

loop_
  _space_group_symop_operation_xyz
  'x, y, z'

loop_
  _atom_site_type_symbol
  _atom_site_label
  _atom_site_symmetry_multiplicity
  _atom_site_fract_x
  _atom_site_fract_y
  _atom_site_fract_z
  _atom_site_occupancy
  Fe  Fe1       1.0  0.13026  0.16591  0.13628  1.0000
  S   S1        1.0  0.11784  0.13506  0.12535  1.0000
  S   S2        1.0  0.16353  0.16519  0.15149  1.0000
  Fe  Fe2       1.0  0.08977  0.18749  0.12011  1.0000
  S   S3        1.0  0.07482  0.15815  0.10910  1.0000
  S   S4        1.0  0.07580  0.21871  0.10894  1.0000
  Fe  Fe3       1.0  0.08835  0.14433  0.14547  1.0000
  S   S5        1.0  0.07182  0.12439  0.17684  1.0000
  Fe  Fe4       1.0  0.10519  0.15084  0.08959  1.0000
  S   S6        1.0  0.10648  0.13495  0.05034  1.0000
  S   S7        1.0  0.10128  0.17465  0.15821  1.0000
  S   S8        1.0  0.11970  0.18072  0.09879  1.0000
  Fe  Fe5       1.0  0.47174  0.15605  0.12311  1.0000
  S   S9        1.0  0.44156  0.17039  0.11111  1.0000
  S   S10       1.0  0.47162  0.12129  0.12996  1.0000
  C   C1        1.0  0.42708  0.13180  0.25437  1.0000
  S   S11       1.0  0.46484  0.21473  0.11066  1.0000
  Fe  Fe6       1.0  0.44846  0.19446  0.14009  1.0000
  S   S12       1.0  0.42672  0.20495  0.17283  1.0000
  Fe  Fe7       1.0  0.46030  0.18929  0.08226  1.0000
  S   S13       1.0  0.45270  0.20099  0.04133  1.0000
  S   S14       1.0  0.47787  0.17931  0.15329  1.0000
  Fe  Fe8       1.0  0.32731  0.02880  0.38537  1.0000
  S   S15       1.0  0.33722  0.01265  0.42251  1.0000
  Fe  Fe9       1.0  0.31531  0.06803  0.35576  1.0000
  S   S16       1.0  0.30989  0.05105  0.31929  1.0000
  S   S17       1.0  0.31081  0.10241  0.35997  1.0000
  Fe  Fe10      1.0  0.29424  0.02744  0.34493  1.0000
  Fe  Fe11      1.0  0.33937  0.03439  0.32824  1.0000
  H   H1        1.0  0.41369  0.08105  0.11450  1.0000
  S   S18       1.0  0.29753  0.04572  0.38099  1.0000
  S   S19       1.0  0.34577  0.05274  0.36343  1.0000
  Fe  Fe12      1.0  0.30813  0.21998  0.20577  1.0000
  S   S20       1.0  0.31844  0.21610  0.24675  1.0000
  S   S21       1.0  0.32953  0.21814  0.17027  1.0000
  Fe  Fe13      1.0  0.26191  0.21975  0.22134  1.0000
  S   S22       1.0  0.26946  0.21599  0.26367  1.0000
  S   S23       1.0  0.22806  0.22210  0.20901  1.0000
  C   C2        1.0  0.07148  0.01949  0.20038  1.0000
  Fe  Fe14      1.0  0.29328  0.19292  0.25081  1.0000
  S   S24       1.0  0.29821  0.15910  0.25995  1.0000
  C   C3        1.0  0.00637  0.14404  0.13819  1.0000
  S   S25       1.0  0.28431  0.19549  0.20903  1.0000
  Fe  Fe15      1.0  0.00959  0.01872  0.21614  1.0000
  S   S26       1.0  0.01006  0.02519  0.25888  1.0000
  S   S27       1.0  0.02134  0.04020  0.18315  1.0000
  C   C4        1.0  0.30627  0.11817  0.33233  1.0000
  C   C5        1.0  0.30603  0.10996  0.30753  1.0000
  C   C6        1.0  0.30329  0.12287  0.28579  1.0000
  C   C7        1.0  0.30093  0.14409  0.28847  1.0000
  C   C8        1.0  0.30096  0.15242  0.31323  1.0000
  C   C9        1.0  0.30356  0.13944  0.33512  1.0000
  H   H2        1.0  0.30819  0.09372  0.30503  1.0000
  H   H3        1.0  0.30301  0.11643  0.26668  1.0000
  H   H4        1.0  0.29906  0.16877  0.31548  1.0000
  H   H5        1.0  0.30375  0.14593  0.35424  1.0000
  H   H6        1.0  0.43112  0.12995  0.16345  1.0000
  C   C10       1.0  0.44493  0.07291  0.22552  1.0000
  C   C11       1.0  0.10572  0.24065  0.01670  1.0000
  C   C12       1.0  0.39812  0.02950  0.32017  1.0000
  H   H7        1.0  0.28660  0.00561  0.48239  1.0000
  H   H8        1.0  0.00084  0.19331  0.17870  1.0000
  C   C13       1.0  0.31539  0.03843  0.45550  1.0000
  C   C14       1.0  0.32868  0.02157  0.45319  1.0000
  C   C15       1.0  0.37154  0.09537  0.21305  1.0000
  H   H9        1.0  0.30968  0.04603  0.43828  1.0000
  C   C16       1.0  0.48322  0.10554  0.15427  1.0000
  H   H10       1.0  0.33099  0.10257  0.42582  1.0000
  C   C17       1.0  0.32729  0.00229  0.25636  1.0000
  H   H11       1.0  0.46275  0.15849  0.02699  1.0000
  C   C18       1.0  0.39962  0.20783  0.17164  1.0000
  C   C19       1.0  0.38865  0.21299  0.19440  1.0000
  C   C20       1.0  0.36719  0.21582  0.19436  1.0000
  C   C21       1.0  0.35645  0.21377  0.17144  1.0000
  C   C22       1.0  0.36742  0.20860  0.14865  1.0000
  C   C23       1.0  0.38887  0.20551  0.14876  1.0000
  H   H12       1.0  0.39685  0.21494  0.21213  1.0000
  H   H13       1.0  0.35895  0.21985  0.21194  1.0000
  H   H14       1.0  0.35929  0.20705  0.13078  1.0000
  H   H15       1.0  0.39710  0.20162  0.13106  1.0000
  H   H16       1.0  0.21057  0.10635  0.15587  1.0000
  H   H17       1.0  0.00513  0.20762  0.00268  1.0000
  C   C24       1.0  0.15552  0.16868  0.03709  1.0000
  H   H18       1.0  0.40427  0.05986  0.15293  1.0000
  C   C25       1.0  0.38529  0.01187  0.18605  1.0000
  H   H19       1.0  0.27974  0.99523  0.39961  1.0000
  C   C26       1.0  0.05838  0.10059  0.17813  1.0000
  C   C27       1.0  0.05613  0.08837  0.15639  1.0000
  C   C28       1.0  0.04500  0.06991  0.15842  1.0000
  C   C29       1.0  0.03618  0.06315  0.18221  1.0000
  C   C30       1.0  0.03857  0.07528  0.20398  1.0000
  C   C31       1.0  0.04945  0.09390  0.20188  1.0000
  H   H20       1.0  0.06285  0.09319  0.13796  1.0000
  H   H21       1.0  0.04321  0.06078  0.14136  1.0000
  H   H22       1.0  0.03167  0.07053  0.22234  1.0000
  H   H23       1.0  0.05085  0.10327  0.21878  1.0000
  C   C32       1.0  0.10656  0.14608  0.01849  1.0000
  P   P1        1.0  0.10094  0.03871  0.22990  1.0000
  C   C33       1.0  0.02450  0.13290  0.13324  1.0000
  C   C34       1.0  0.18823  0.23145  0.05041  1.0000
  H   H24       1.0  0.10455  0.17737  0.03049  1.0000
  H   H25       1.0  0.34556  0.16321  0.25178  1.0000
  H   H26       1.0  0.35342  0.09539  0.32596  1.0000
  C   C35       1.0  0.44378  0.15595  0.21401  1.0000
  C   C36       1.0  0.04080  0.22302  0.14035  1.0000
  H   H27       1.0  0.34596  0.99867  0.47423  1.0000
  H   H28       1.0  0.44939  0.07347  0.20518  1.0000
  H   H29       1.0  0.04471  0.20826  0.14867  1.0000
  C   C37       1.0  0.18105  0.18103  0.16833  1.0000
  C   C38       1.0  0.20161  0.17449  0.17085  1.0000
  C   C39       1.0  0.21607  0.18647  0.18371  1.0000
  C   C40       1.0  0.21027  0.20542  0.19407  1.0000
  C   C41       1.0  0.18968  0.21188  0.19171  1.0000
  C   C42       1.0  0.17518  0.19978  0.17916  1.0000
  H   H30       1.0  0.20650  0.16011  0.16256  1.0000
  H   H31       1.0  0.23181  0.18126  0.18506  1.0000
  H   H32       1.0  0.18490  0.22645  0.19962  1.0000
  H   H33       1.0  0.15946  0.20500  0.17787  1.0000
  C   C43       1.0  0.09747  0.22608  0.03403  1.0000
  C   C44       1.0  0.11652  0.02080  0.24834  1.0000
  C   C45       1.0  0.34551  0.16249  0.18603  1.0000
  H   H34       1.0  0.43040  0.06843  0.29861  1.0000
  C   C46       1.0  0.40837  0.03766  0.39995  1.0000
  C   C47       1.0  0.34636  0.08086  0.49330  1.0000
  C   C48       1.0  0.03454  0.16932  0.17773  1.0000
  C   C49       1.0  0.05150  0.17554  0.19151  1.0000
  C   C50       1.0  0.03115  0.12925  0.10782  1.0000
  H   H35       1.0  0.41391  0.03033  0.38247  1.0000
  C   C51       1.0  0.36055  0.10628  0.31252  1.0000
  C   C52       1.0  0.33839  0.16488  0.21149  1.0000
  H   H36       1.0  0.03248  0.17511  0.15816  1.0000
  S   S28       1.0  0.36151  0.02976  0.29412  1.0000
  Fe  Fe16      1.0  0.48107  0.01172  0.26984  1.0000
  H   H37       1.0  0.40898  0.16561  0.30145  1.0000
  C   C53       1.0  0.03594  0.19528  0.06437  1.0000
  H   H38       1.0  0.37444  0.04879  0.24382  1.0000
  C   C54       1.0  0.16211  0.18805  0.04417  1.0000
  P   P2        1.0  0.40496  0.06800  0.20897  1.0000
  C   C55       1.0  0.16795  0.15424  0.07737  1.0000
  C   C56       1.0  0.35434  0.08682  0.44773  1.0000
  H   H39       1.0  0.06225  0.18622  0.18270  1.0000
  C   C57       1.0  0.20225  0.22839  0.11960  1.0000
  C   C58       1.0  0.48683  0.07150  0.17492  1.0000
  H   H40       1.0  0.37984  0.10556  0.19998  1.0000
  C   C59       1.0  0.38180  0.21370  0.27245  1.0000
  H   H41       1.0  0.43992  0.23622  0.21185  1.0000
  C   C60       1.0  0.38045  0.04590  0.42972  1.0000
  C   C61       1.0  0.08015  0.04693  0.25114  1.0000
  H   H42       1.0  0.40340  0.06764  0.26622  1.0000
  H   H43       1.0  0.23943  0.19016  0.29895  1.0000
  P   P3        1.0  0.99811  0.14853  0.17131  1.0000
  C   C62       1.0  0.29337  0.13099  0.19941  1.0000
  C   C63       1.0  0.30229  0.11188  0.19445  1.0000
  C   C64       1.0  0.29282  0.09406  0.20387  1.0000
  C   C65       1.0  0.27447  0.09538  0.21832  1.0000
  C   C66       1.0  0.26566  0.11460  0.22389  1.0000
  C   C67       1.0  0.27508  0.13236  0.21392  1.0000
  P   P4        1.0  0.24146  0.11639  0.24148  1.0000
  C   C68       1.0  0.23879  0.09441  0.26318  1.0000
  C   C69       1.0  0.24101  0.13973  0.25988  1.0000
  C   C70       1.0  0.23441  0.15824  0.24824  1.0000
  C   C71       1.0  0.23359  0.17627  0.26239  1.0000
  C   C72       1.0  0.23974  0.17609  0.28815  1.0000
  C   C73       1.0  0.24678  0.15790  0.29972  1.0000
  C   C74       1.0  0.24740  0.13978  0.28570  1.0000
  C   C75       1.0  0.22019  0.08384  0.26535  1.0000
  C   C76       1.0  0.21845  0.06657  0.28172  1.0000
  C   C77       1.0  0.23519  0.05978  0.29611  1.0000
  C   C78       1.0  0.25368  0.07029  0.29421  1.0000
  C   C79       1.0  0.25553  0.08748  0.27777  1.0000
  C   C80       1.0  0.22085  0.11740  0.21860  1.0000
  C   C81       1.0  0.20186  0.12633  0.22560  1.0000
  C   C82       1.0  0.18635  0.12839  0.20742  1.0000
  C   C83       1.0  0.18949  0.12113  0.18234  1.0000
  C   C84       1.0  0.20813  0.11177  0.17542  1.0000
  C   C85       1.0  0.22378  0.10991  0.19344  1.0000
  H   H44       1.0  0.30062  0.14487  0.19222  1.0000
  H   H45       1.0  0.31649  0.11090  0.18324  1.0000
  H   H46       1.0  0.29968  0.07922  0.19991  1.0000
  H   H47       1.0  0.26716  0.08140  0.22504  1.0000
  H   H48       1.0  0.26856  0.14737  0.21762  1.0000
  H   H49       1.0  0.23000  0.15887  0.22814  1.0000
  H   H50       1.0  0.22851  0.19047  0.25319  1.0000
  C   C86       1.0  0.13457  0.22728  0.13137  1.0000
  H   H51       1.0  0.25215  0.15789  0.31943  1.0000
  H   H52       1.0  0.25322  0.12605  0.29507  1.0000
  H   H53       1.0  0.20703  0.08878  0.25439  1.0000
  H   H54       1.0  0.20413  0.05836  0.28326  1.0000
  H   H55       1.0  0.23391  0.04635  0.30873  1.0000
  H   H56       1.0  0.26659  0.06503  0.30553  1.0000
  H   H57       1.0  0.27001  0.09537  0.27647  1.0000
  H   H58       1.0  0.19921  0.13223  0.24488  1.0000
  H   H59       1.0  0.17207  0.13615  0.21248  1.0000
  H   H60       1.0  0.07515  0.01663  0.26795  1.0000
  Fe  Fe17      1.0  0.29397  0.23993  0.25646  1.0000
  H   H61       1.0  0.23821  0.10293  0.18751  1.0000
  H   H62       1.0  0.23987  0.04198  0.37633  1.0000
  H   H63       1.0  0.15248  0.13697  0.04861  1.0000
  C   C87       1.0  0.41483  0.05702  0.43849  1.0000
  C   C88       1.0  0.37849  0.13463  0.27739  1.0000
  C   C89       1.0  0.40395  0.04100  0.20181  1.0000
  S   S29       1.0  0.26238  0.01647  0.33525  1.0000
  C   C90       1.0  0.24509  0.04031  0.39606  1.0000
  C   C91       1.0  0.37275  0.09940  0.29182  1.0000
  C   C92       1.0  0.32203  0.09888  0.46607  1.0000
  H   H64       1.0  0.36459  0.08568  0.43104  1.0000
  C   C93       1.0  0.44689  0.12769  0.24465  1.0000
  C   C94       1.0  0.45508  0.13949  0.22415  1.0000
  H   H65       1.0  0.34049  0.05992  0.26018  1.0000
  H   H66       1.0  0.45596  0.11536  0.25304  1.0000
  H   H67       1.0  0.47029  0.13607  0.21630  1.0000
  H   H68       1.0  0.39391  0.14604  0.19741  1.0000
  H   H69       1.0  0.13509  0.01407  0.30931  1.0000
  C   C95       1.0  0.02417  0.18583  0.02223  1.0000
  H   H70       1.0  0.04892  0.00530  0.17695  1.0000
  H   H71       1.0  0.47625  0.07328  0.23790  1.0000
  H   H72       1.0  0.11891  0.99770  0.21864  1.0000
  H   H73       1.0  0.45021  0.16546  0.19847  1.0000
  H   H74       1.0  0.14458  0.10917  0.19400  1.0000
  C   C96       1.0  0.45498  0.07130  0.27036  1.0000
  C   C97       1.0  0.05817  0.07378  0.26895  1.0000
  H   H75       1.0  0.03661  0.06425  0.29893  1.0000
  C   C98       1.0  0.05523  0.03902  0.28547  1.0000
  H   H76       1.0  0.08075  0.07896  0.23903  1.0000
  P   P5        1.0  0.38464  0.06630  0.47609  1.0000
  H   H77       1.0  0.37316  0.04258  0.18706  1.0000
  C   C99       1.0  0.02036  0.15571  0.18913  1.0000
  C   C100      1.0  0.07382  0.06756  0.25178  1.0000
  S   S30       1.0  0.45819  0.01941  0.30225  1.0000
  H   H78       1.0  0.37159  0.00562  0.17795  1.0000
  H   H79       1.0  0.15954  0.08660  0.22818  1.0000
  C   C101      1.0  0.10551  0.16728  0.01414  1.0000
  C   C102      1.0  0.38764  0.03669  0.40702  1.0000
  C   C103      1.0  0.37180  0.15476  0.22754  1.0000
  H   H80       1.0  0.42696  0.11610  0.11971  1.0000
  C   C104      1.0  0.41210  0.08298  0.18052  1.0000
  C   C105      1.0  0.41965  0.10287  0.18326  1.0000
  C   C106      1.0  0.42475  0.11481  0.16137  1.0000
  C   C107      1.0  0.42242  0.10698  0.13663  1.0000
  C   C108      1.0  0.41504  0.08717  0.13374  1.0000
  C   C109      1.0  0.40984  0.07518  0.15560  1.0000
  H   H81       1.0  0.43591  0.23766  0.25970  1.0000
  C   C110      1.0  0.35717  0.12724  0.31565  1.0000
  C   C111      1.0  0.41518  0.14760  0.24323  1.0000
  C   C112      1.0  0.01353  0.21858  0.04036  1.0000
  C   C113      1.0  0.46024  0.07277  0.24402  1.0000
  H   H82       1.0  0.46689  0.07041  0.28467  1.0000
  H   H83       1.0  0.10465  0.22280  0.05244  1.0000
  C   C114      1.0  0.09170  0.02640  0.20147  1.0000
  H   H84       1.0  0.43488  0.03380  0.21412  1.0000
  H   H85       1.0  0.26444  0.06829  0.44453  1.0000
  C   C115      1.0  0.25902  0.05507  0.43443  1.0000
  H   H86       1.0  0.41028  0.19867  0.32397  1.0000
  C   C116      1.0  0.04887  0.05951  0.28578  1.0000
  C   C117      1.0  0.35134  0.16079  0.23220  1.0000
  C   C118      1.0  0.05354  0.23160  0.12105  1.0000
  C   C119      1.0  0.38832  0.02648  0.29678  1.0000
  C   C120      1.0  0.38624  0.03280  0.19123  1.0000
  C   C121      1.0  0.42152  0.01869  0.27608  1.0000
  C   C122      1.0  0.39395  0.05618  0.44562  1.0000
  H   H87       1.0  0.11632  0.03953  0.28254  1.0000
  S   S31       1.0  0.48971  0.17303  0.09178  1.0000
  C   C123      1.0  0.42087  0.02801  0.20636  1.0000
  C   C124      1.0  0.23457  0.21317  0.13250  1.0000
  H   H88       1.0  0.42137  0.12273  0.27062  1.0000
  C   C125      1.0  0.34907  0.06977  0.24682  1.0000
  H   H89       1.0  0.24722  0.21242  0.14579  1.0000
  C   C126      1.0  0.40133  0.17897  0.29324  1.0000
  P   P6        1.0  0.38921  0.15308  0.25436  1.0000
  C   C127      1.0  0.04102  0.15378  0.22773  1.0000
  C   C128      1.0  0.37854  0.15138  0.20187  1.0000
  H   H90       1.0  0.42170  0.10914  0.20228  1.0000
  H   H91       1.0  0.31655  0.01337  0.24843  1.0000
  H   H92       1.0  0.42714  0.02966  0.33946  1.0000
  H   H93       1.0  0.37109  0.15381  0.16144  1.0000
  C   C129      1.0  0.36549  0.15544  0.18123  1.0000
  C   C130      1.0  0.38155  0.11349  0.27416  1.0000
  H   H94       1.0  0.24579  0.18818  0.10939  1.0000
  C   C131      1.0  0.25151  0.05743  0.40939  1.0000
  C   C132      1.0  0.12270  0.00184  0.23811  1.0000
  H   H95       1.0  0.39056  0.10788  0.25793  1.0000
  C   C133      1.0  0.02001  0.13714  0.08704  1.0000
  C   C134      1.0  0.46063  0.16753  0.00945  1.0000
  H   H96       1.0  0.19856  0.20611  0.02671  1.0000
  C   C135      1.0  0.25998  0.03563  0.44625  1.0000
  H   H97       1.0  0.32296  0.17051  0.21521  1.0000
  H   H98       1.0  0.33567  0.16657  0.17003  1.0000
  H   H99       1.0  0.04515  0.12051  0.10429  1.0000
  H   H100      1.0  0.36438  0.04473  0.43514  1.0000
  C   C136      1.0  0.01325  0.20438  0.02023  1.0000
  H   H101      1.0  0.00467  0.10417  0.16226  1.0000
  H   H102      1.0  0.05314  0.08964  0.26902  1.0000
  P   P7        1.0  0.17981  0.21561  0.07752  1.0000
  H   H103      1.0  0.38923  0.03378  0.33720  1.0000
  C   C137      1.0  0.03545  0.18125  0.04434  1.0000
  H   H104      1.0  0.06080  0.02151  0.21651  1.0000
  H   H105      1.0  0.36235  0.15745  0.30047  1.0000
  C   C138      1.0  0.39052  0.17747  0.27016  1.0000
  C   C139      1.0  0.36586  0.14135  0.29805  1.0000
  H   H106      1.0  0.10888  0.11677  0.00003  1.0000
  C   C140      1.0  0.40009  0.02091  0.27479  1.0000
  C   C141      1.0  0.40211  0.19766  0.30601  1.0000
  C   C142      1.0  0.07065  0.03268  0.26808  1.0000
  H   H107      1.0  0.04426  0.16708  0.04571  1.0000
  C   C143      1.0  0.05484  0.16766  0.21642  1.0000
  H   H108      1.0  0.12056  0.02931  0.18023  1.0000
  H   H109      1.0  0.37503  0.08308  0.28937  1.0000
  H   H110      1.0  0.02535  0.13443  0.06735  1.0000
  C   C144      1.0  0.35224  0.10164  0.22250  1.0000
  C   C145      1.0  0.37993  0.07633  0.22081  1.0000
  C   C146      1.0  0.14493  0.08286  0.22003  1.0000
  H   H111      1.0  0.14099  0.05588  0.24394  1.0000
  H   H112      1.0  0.06834  0.17203  0.22671  1.0000
  C   C147      1.0  0.41984  0.00709  0.20127  1.0000
  C   C148      1.0  0.43439  0.07019  0.27820  1.0000
  C   C149      1.0  0.42410  0.16023  0.22382  1.0000
  C   C150      1.0  0.15831  0.15181  0.05374  1.0000
  H   H113      1.0  0.34604  0.11653  0.21700  1.0000
  C   C151      1.0  0.17501  0.17349  0.08421  1.0000
  C   C152      1.0  0.11540  0.06062  0.21837  1.0000
  C   C153      1.0  0.13659  0.09556  0.20073  1.0000
  C   C154      1.0  0.13435  0.06545  0.22892  1.0000
  C   C155      1.0  0.33538  0.09669  0.44474  1.0000
  C   C156      1.0  0.42196  0.04788  0.41563  1.0000
  C   C157      1.0  0.43132  0.02181  0.29944  1.0000
  H   H114      1.0  0.01344  0.13698  0.22336  1.0000
  H   H115      1.0  0.46508  0.07934  0.14526  1.0000
  C   C158      1.0  0.07784  0.00796  0.15651  1.0000
  H   H116      1.0  0.32624  0.09381  0.24699  1.0000
  S   S32       1.0  0.32314  0.00910  0.35044  1.0000
  H   H117      1.0  0.43049  0.01442  0.25912  1.0000
  C   C159      1.0  0.10722  0.07341  0.19887  1.0000
  H   H118      1.0  0.16949  0.14134  0.09072  1.0000
  H   H119      1.0  0.41568  0.17322  0.21578  1.0000
  H   H120      1.0  0.34746  0.13252  0.33153  1.0000
  C   C160      1.0  0.15227  0.21978  0.11890  1.0000
  C   C161      1.0  0.41905  0.06988  0.25971  1.0000
  C   C162      1.0  0.38091  0.19503  0.25977  1.0000
  C   C163      1.0  0.20102  0.21440  0.09937  1.0000
  H   H121      1.0  0.36782  0.99831  0.37064  1.0000
  H   H122      1.0  0.37272  0.19443  0.24189  1.0000
  H   H123      1.0  0.02693  0.22495  0.07739  1.0000
  C   C164      1.0  0.34105  0.08886  0.23941  1.0000
  C   C165      1.0  0.36842  0.06354  0.23760  1.0000
  H   H124      1.0  0.09249  0.07015  0.19065  1.0000
  H   H125      1.0  0.01362  0.22715  0.16439  1.0000
  C   C166      1.0  0.42420  0.07120  0.23320  1.0000
  C   C167      1.0  0.25352  0.01833  0.43301  1.0000
  H   H126      1.0  0.18202  0.17516  0.10284  1.0000
  H   H127      1.0  0.15894  0.20107  0.03153  1.0000
  H   H128      1.0  0.16197  0.20885  0.12897  1.0000
  C   C168      1.0  0.17232  0.19050  0.06756  1.0000
  C   C169      1.0  0.02378  0.14787  0.21423  1.0000
  H   H129      1.0  0.29944  0.05876  0.48172  1.0000
  P   P8        1.0  0.00002  0.24307  0.03808  1.0000
  H   H130      1.0  0.43808  0.04851  0.41017  1.0000
  H   H131      1.0  0.17763  0.12323  0.16809  1.0000
  H   H132      1.0  0.04512  0.19204  0.08128  1.0000
  C   C170      1.0  0.35988  0.07855  0.47200  1.0000
  H   H133      1.0  0.37707  0.02859  0.39513  1.0000
  C   C171      1.0  0.07996  0.21544  0.02757  1.0000
  H   H134      1.0  0.13075  0.22223  0.15098  1.0000
  H   H135      1.0  0.30728  0.10639  0.46371  1.0000
  C   C172      1.0  0.47714  0.08498  0.15718  1.0000
  C   C173      1.0  0.41954  0.02715  0.32144  1.0000
  H   H136      1.0  0.26596  0.03432  0.46554  1.0000
  C   C174      1.0  0.23366  0.19945  0.11211  1.0000
  S   S33       1.0  0.47835  0.01404  0.22654  1.0000
  H   H137      1.0  0.04796  0.02794  0.29848  1.0000
  H   H138      1.0  0.25120  0.07242  0.40001  1.0000
  H   H139      1.0  0.07390  0.20394  0.04094  1.0000
  H   H140      1.0  0.14779  0.16675  0.01894  1.0000
  C   C175      1.0  0.19706  0.22259  0.02817  1.0000
  C   C176      1.0  0.24611  0.02085  0.40776  1.0000
  H   H141      1.0  0.21958  0.23810  0.15223  1.0000
  C   C177      1.0  0.12127  0.02519  0.27406  1.0000
  H   H142      1.0  0.37431  0.22711  0.26417  1.0000
  C   C178      1.0  0.06466  0.01024  0.17796  1.0000
  C   C179      1.0  0.02531  0.21393  0.06224  1.0000
  H   H143      1.0  0.21662  0.18952  0.07963  1.0000
  C   C180      1.0  0.21704  0.20016  0.09544  1.0000
  C   C181      1.0  0.11777  0.09081  0.19017  1.0000
  C   C182      1.0  0.02317  0.23375  0.14914  1.0000
  H   H144      1.0  0.39267  0.22944  0.30565  1.0000
  H   H145      1.0  0.22223  0.99945  0.33183  1.0000
  H   H146      1.0  0.03353  0.12704  0.14912  1.0000
  C   C183      1.0  0.30970  0.04570  0.48018  1.0000
  C   C184      1.0  0.13187  0.01082  0.28931  1.0000
  H   H147      1.0  0.42568  0.06453  0.45055  1.0000
  H   H148      1.0  0.05709  0.21077  0.99922  1.0000
  H   H149      1.0  0.11116  0.10076  0.17540  1.0000
  H   H150      1.0  0.35021  0.00742  0.22641  1.0000
  C   C185      1.0  0.33583  0.01183  0.47582  1.0000
  H   H151      1.0  0.39265  0.01825  0.25669  1.0000
  H   H152      1.0  0.04385  0.14737  0.24684  1.0000
  C   C186      1.0  0.45592  0.18844  0.01116  1.0000
  C   C187      1.0  0.39225  0.21501  0.29567  1.0000
  Fe  Fe18      1.0  0.49356  0.19769  0.12125  1.0000
  C   C188      1.0  0.32760  0.09112  0.49036  1.0000
  C   C189      1.0  0.09800  0.01480  0.15745  1.0000
  H   H153      1.0  0.38263  0.02120  0.47220  1.0000
  H   H154      1.0  0.08886  0.00622  0.48106  1.0000
  H   H155      1.0  0.38548  0.11136  0.47129  1.0000
  C   C190      1.0  0.40219  0.08528  0.48717  1.0000
  C   C191      1.0  0.39869  0.10622  0.48205  1.0000
  C   C192      1.0  0.21893  0.22769  0.13614  1.0000
  H   H156      1.0  0.10818  0.01318  0.14074  1.0000
  C   C193      1.0  0.15714  0.22593  0.09334  1.0000
  H   H157      1.0  0.24145  0.00776  0.39679  1.0000
  C   C194      1.0  0.20418  0.23500  0.00757  1.0000
  C   C195      1.0  0.10806  0.13319  0.99693  1.0000
  C   C196      1.0  0.34624  0.99887  0.24391  1.0000
  C   C197      1.0  0.38285  0.02518  0.49242  1.0000
  H   H158      1.0  0.19032  0.23977  0.12282  1.0000
  H   H159      1.0  0.48224  0.05565  0.17651  1.0000
  C   C198      1.0  0.10492  0.02398  0.17983  1.0000
  H   H160      1.0  0.02423  0.17515  0.00640  1.0000
  C   C199      1.0  0.07055  0.21935  0.00386  1.0000
  H   H161      1.0  0.40934  0.13695  0.48717  1.0000
  C   C200      1.0  0.00213  0.14861  0.09171  1.0000
  H   H162      1.0  0.21076  0.00259  0.45335  1.0000
  H   H163      1.0  0.99667  0.23312  0.09426  1.0000
  H   H164      1.0  0.47496  0.23829  0.06343  1.0000
  C   C201      1.0  0.41223  0.12081  0.49099  1.0000
  H   H165      1.0  0.48025  0.24000  0.00260  1.0000
  C   C202      1.0  0.14354  0.23893  0.07996  1.0000
  C   C203      1.0  0.12147  0.24076  0.11826  1.0000
  H   H166      1.0  0.07232  0.00110  0.13908  1.0000
  H   H167      1.0  0.14636  0.24299  0.05981  1.0000
  C   C204      1.0  0.40205  0.99901  0.19120  1.0000
  H   H168      1.0  0.33427  0.24034  0.31198  1.0000
  H   H169      1.0  0.43294  0.99717  0.20512  1.0000
  C   C205      1.0  0.99525  0.15200  0.11718  1.0000
  H   H170      1.0  0.30787  0.99475  0.28941  1.0000
  Fe  Fe19      1.0  0.10030  0.13420  0.84783  1.0000
  S   S34       1.0  0.11249  0.15658  0.81765  1.0000
  S   S35       1.0  0.09140  0.10126  0.83730  1.0000
  Fe  Fe20      1.0  0.11058  0.16281  0.89307  1.0000
  S   S36       1.0  0.12355  0.18679  0.86529  1.0000
  S   S37       1.0  0.10920  0.17389  0.93528  1.0000
  Fe  Fe21      1.0  0.09586  0.18063  0.84161  1.0000
  S   S38       1.0  0.07785  0.20667  0.82212  1.0000
  Fe  Fe22      1.0  0.13934  0.16124  0.84361  1.0000
  S   S39       1.0  0.17374  0.15873  0.83132  1.0000
  S   S40       1.0  0.08196  0.15798  0.87010  1.0000
  S   S41       1.0  0.12811  0.13744  0.87299  1.0000
  Fe  Fe23      1.0  0.45241  0.19513  0.84342  1.0000
  C   C206      1.0  0.11722  0.22684  0.91109  1.0000
  S   S42       1.0  0.42827  0.21274  0.81993  1.0000
  Fe  Fe24      1.0  0.46620  0.17167  0.89222  1.0000
  S   S43       1.0  0.45890  0.15696  0.93179  1.0000
  C   C207      1.0  0.49118  0.07386  0.82667  1.0000
  C   C208      1.0  0.15083  0.10976  0.67842  1.0000
  C   C209      1.0  0.25251  0.08042  0.67833  1.0000
  S   S44       1.0  0.46506  0.20517  0.88161  1.0000
  S   S45       1.0  0.45083  0.16201  0.85554  1.0000
  Fe  Fe25      1.0  0.35592  0.01597  0.60593  1.0000
  S   S46       1.0  0.34512  0.04838  0.59797  1.0000
  H   H171      1.0  0.46476  0.14185  0.98396  1.0000
  H   H172      1.0  0.47980  0.17963  0.75620  1.0000
  S   S47       1.0  0.29792  0.03052  0.60376  1.0000
  Fe  Fe26      1.0  0.32201  0.03402  0.57194  1.0000
  S   S48       1.0  0.31137  0.04743  0.53327  1.0000
  Fe  Fe27      1.0  0.32199  0.04242  0.63021  1.0000
  S   S49       1.0  0.31680  0.06174  0.66638  1.0000
  S   S50       1.0  0.33416  0.01070  0.63940  1.0000
  C   C210      1.0  0.40757  0.22060  0.93640  1.0000
  C   C211      1.0  0.11824  0.00343  0.63207  1.0000
  C   C212      1.0  0.04876  0.21951  0.94911  1.0000
  H   H173      1.0  0.43980  0.12594  0.51204  1.0000
  Fe  Fe28      1.0  0.30720  0.22704  0.71326  1.0000
  S   S51       1.0  0.29818  0.22357  0.75579  1.0000
  Fe  Fe29      1.0  0.30172  0.18048  0.70468  1.0000
  S   S52       1.0  0.29243  0.17397  0.74623  1.0000
  S   S53       1.0  0.30330  0.15866  0.67054  1.0000
  Fe  Fe30      1.0  0.27289  0.20254  0.74342  1.0000
  S   S54       1.0  0.23933  0.20676  0.75796  1.0000
  Fe  Fe31      1.0  0.31830  0.19516  0.75595  1.0000
  S   S55       1.0  0.33876  0.18466  0.78939  1.0000
  S   S56       1.0  0.28067  0.20796  0.70089  1.0000
  S   S57       1.0  0.32881  0.19963  0.71456  1.0000
  Fe  Fe32      1.0  0.01448  0.02862  0.75535  1.0000
  S   S58       1.0  0.01907  0.05966  0.77497  1.0000
  S   S59       1.0  0.01919  0.02606  0.71218  1.0000
  H   H174      1.0  0.48835  0.22888  0.92118  1.0000
  H   H175      1.0  0.36488  0.16801  0.74063  1.0000
  S   S60       1.0  0.48377  0.19217  0.82458  1.0000
  H   H176      1.0  0.27461  0.14001  0.80330  1.0000
  C   C213      1.0  0.31366  0.08878  0.66710  1.0000
  C   C214      1.0  0.31257  0.09854  0.69120  1.0000
  C   C215      1.0  0.30967  0.11995  0.69261  1.0000
  C   C216      1.0  0.30782  0.13180  0.66992  1.0000
  C   C217      1.0  0.30892  0.12202  0.64586  1.0000
  C   C218      1.0  0.31186  0.10064  0.64442  1.0000
  H   H177      1.0  0.31380  0.08945  0.70883  1.0000
  H   H178      1.0  0.30850  0.12734  0.71114  1.0000
  H   H179      1.0  0.30740  0.13106  0.62820  1.0000
  H   H180      1.0  0.31261  0.09335  0.62577  1.0000
  C   C219      1.0  0.40599  0.00968  0.63170  1.0000
  C   C220      1.0  0.45094  0.17272  0.77516  1.0000
  C   C221      1.0  0.38264  0.00934  0.51103  1.0000
  H   H181      1.0  0.16607  0.10372  0.67430  1.0000
  H   H182      1.0  0.15010  0.00159  0.64231  1.0000
  H   H183      1.0  0.44974  0.18737  0.78453  1.0000
  C   C222      1.0  0.48933  0.09540  0.82860  1.0000
  C   C223      1.0  0.04278  0.18574  0.93194  1.0000
  H   H184      1.0  0.11473  0.15577  0.73010  1.0000
  Fe  Fe33      1.0  0.48267  0.15909  0.83844  1.0000
  H   H185      1.0  0.31473  0.19501  0.84824  1.0000
  H   H186      1.0  0.11454  0.01562  0.64540  1.0000
  H   H187      1.0  0.44891  0.21590  0.98924  1.0000
  C   C224      1.0  0.40431  0.20318  0.81002  1.0000
  C   C225      1.0  0.39427  0.21295  0.78924  1.0000
  C   C226      1.0  0.37458  0.20687  0.78197  1.0000
  C   C227      1.0  0.36447  0.19126  0.79580  1.0000
  C   C228      1.0  0.37472  0.18110  0.81612  1.0000
  C   C229      1.0  0.39456  0.18694  0.82316  1.0000
  C   C230      1.0  0.25778  0.11698  0.67343  1.0000
  H   H188      1.0  0.36707  0.21444  0.76594  1.0000
  H   H189      1.0  0.36715  0.16879  0.82669  1.0000
  H   H190      1.0  0.40208  0.17918  0.83908  1.0000
  H   H191      1.0  0.35815  0.10529  0.71917  1.0000
  C   C231      1.0  0.45908  0.16967  0.96198  1.0000
  H   H192      1.0  0.20043  0.06990  0.60899  1.0000
  C   C232      1.0  0.02762  0.22177  0.95420  1.0000
  C   C233      1.0  0.07127  0.09033  0.81932  1.0000
  C   C234      1.0  0.05247  0.10037  0.81559  1.0000
  C   C235      1.0  0.03683  0.09082  0.80182  1.0000
  C   C236      1.0  0.03962  0.07104  0.79175  1.0000
  C   C237      1.0  0.05840  0.06099  0.79552  1.0000
  C   C238      1.0  0.07408  0.07057  0.80914  1.0000
  H   H193      1.0  0.04992  0.11544  0.82348  1.0000
  H   H194      1.0  0.02238  0.09877  0.79912  1.0000
  H   H195      1.0  0.06083  0.04584  0.78791  1.0000
  H   H196      1.0  0.08848  0.06257  0.81188  1.0000
  C   C239      1.0  0.39515  0.12659  0.75572  1.0000
  C   C240      1.0  0.05318  0.21805  0.86424  1.0000
  C   C241      1.0  0.05918  0.22206  0.83847  1.0000
  C   C242      1.0  0.02177  0.02037  0.82747  1.0000
  H   H197      1.0  0.41235  0.16862  0.93799  1.0000
  H   H198      1.0  0.06016  0.20541  0.87480  1.0000
  C   C243      1.0  0.08538  0.24018  0.92994  1.0000
  C   C244      1.0  0.19140  0.17204  0.81000  1.0000
  C   C245      1.0  0.21113  0.16355  0.80551  1.0000
  C   C246      1.0  0.22581  0.17359  0.78928  1.0000
  C   C247      1.0  0.22111  0.19254  0.77750  1.0000
  C   C248      1.0  0.20135  0.20095  0.78188  1.0000
  C   C249      1.0  0.18659  0.19079  0.79784  1.0000
  H   H199      1.0  0.21514  0.14911  0.81479  1.0000
  H   H200      1.0  0.24088  0.16688  0.78630  1.0000
  H   H201      1.0  0.19744  0.21556  0.77294  1.0000
  H   H202      1.0  0.17158  0.19761  0.80101  1.0000
  C   C250      1.0  0.10868  0.14133  0.97136  1.0000
  C   C251      1.0  0.10789  0.16254  0.96700  1.0000
  C   C252      1.0  0.10227  0.03617  0.85828  1.0000
  H   H203      1.0  0.10997  0.13121  0.95504  1.0000
  C   C253      1.0  0.33093  0.12530  0.78586  1.0000
  C   C254      1.0  0.31520  0.12036  0.76927  1.0000
  C   C255      1.0  0.29495  0.12571  0.77563  1.0000
  C   C256      1.0  0.29040  0.13586  0.79872  1.0000
  C   C257      1.0  0.30612  0.14064  0.81569  1.0000
  C   C258      1.0  0.32645  0.13533  0.80904  1.0000
  C   C259      1.0  0.28357  0.11411  0.86106  1.0000
  C   C260      1.0  0.27625  0.09957  0.87913  1.0000
  C   C261      1.0  0.27595  0.10383  0.90557  1.0000
  H   H204      1.0  0.34664  0.12165  0.78053  1.0000
  H   H205      1.0  0.31878  0.11262  0.75133  1.0000
  H   H206      1.0  0.28280  0.12231  0.76245  1.0000
  H   H207      1.0  0.33894  0.13934  0.82126  1.0000
  H   H208      1.0  0.28352  0.11047  0.84071  1.0000
  H   H209      1.0  0.27068  0.08501  0.87260  1.0000
  H   H210      1.0  0.27016  0.09258  0.91953  1.0000
  H   H211      1.0  0.44637  0.08897  0.52085  1.0000
  H   H212      1.0  0.40476  0.04223  0.74570  1.0000
  S   S61       1.0  0.49099  0.13528  0.80765  1.0000
  C   C262      1.0  0.14198  0.10717  0.70319  1.0000
  C   C263      1.0  0.12249  0.11550  0.70890  1.0000
  C   C264      1.0  0.11153  0.12546  0.68916  1.0000
  P   P9        1.0  0.11075  0.11160  0.74052  1.0000
  C   C265      1.0  0.09637  0.08819  0.73882  1.0000
  C   C266      1.0  0.12999  0.11038  0.76502  1.0000
  C   C267      1.0  0.14681  0.12360  0.76338  1.0000
  C   C268      1.0  0.16069  0.12417  0.78357  1.0000
  C   C269      1.0  0.15764  0.11193  0.80578  1.0000
  C   C270      1.0  0.14081  0.09894  0.80768  1.0000
  C   C271      1.0  0.12702  0.09816  0.78739  1.0000
  C   C272      1.0  0.07552  0.08872  0.73259  1.0000
  H   H213      1.0  0.38255  0.00156  0.55177  1.0000
  C   C273      1.0  0.07476  0.05160  0.73329  1.0000
  C   C274      1.0  0.09559  0.05094  0.73904  1.0000
  C   C275      1.0  0.10639  0.06915  0.74170  1.0000
  C   C276      1.0  0.09534  0.13348  0.74993  1.0000
  C   C277      1.0  0.07885  0.13098  0.76754  1.0000
  C   C278      1.0  0.06812  0.14804  0.77699  1.0000
  C   C279      1.0  0.07403  0.16776  0.76929  1.0000
  H   H214      1.0  0.09564  0.18577  0.74694  1.0000
  C   C280      1.0  0.10136  0.15337  0.74251  1.0000
  H   H215      1.0  0.11194  0.13591  0.64931  1.0000
  C   C281      1.0  0.12037  0.12796  0.66438  1.0000
  C   C282      1.0  0.14007  0.12024  0.65905  1.0000
  H   H216      1.0  0.15041  0.09879  0.71789  1.0000
  H   H217      1.0  0.09616  0.13132  0.69296  1.0000
  H   H218      1.0  0.14886  0.13400  0.74698  1.0000
  H   H219      1.0  0.17333  0.13481  0.78260  1.0000
  H   H220      1.0  0.16788  0.11318  0.82192  1.0000
  H   H221      1.0  0.13785  0.09019  0.82540  1.0000
  H   H222      1.0  0.11353  0.08879  0.78978  1.0000
  C   C283      1.0  0.38203  0.23807  0.85854  1.0000
  H   H223      1.0  0.48964  0.06435  0.84397  1.0000
  C   C284      1.0  0.49170  0.10796  0.80647  1.0000
  H   H224      1.0  0.10331  0.03627  0.74143  1.0000
  H   H225      1.0  0.12255  0.06838  0.74593  1.0000
  H   H226      1.0  0.07471  0.11588  0.77460  1.0000
  H   H227      1.0  0.05569  0.14599  0.79102  1.0000
  H   H228      1.0  0.06617  0.18100  0.77737  1.0000
  C   C285      1.0  0.10626  0.17543  0.98858  1.0000
  H   H229      1.0  0.25827  0.04646  0.53439  1.0000
  C   C286      1.0  0.43906  0.07093  0.73185  1.0000
  C   C287      1.0  0.42966  0.08943  0.73893  1.0000
  C   C288      1.0  0.42805  0.09486  0.76516  1.0000
  P   P10       1.0  0.41784  0.11984  0.77389  1.0000
  C   C289      1.0  0.41131  0.12026  0.80811  1.0000
  C   C290      1.0  0.39075  0.12026  0.81679  1.0000
  C   C291      1.0  0.38591  0.12035  0.84333  1.0000
  C   C292      1.0  0.40155  0.12017  0.86140  1.0000
  C   C293      1.0  0.42202  0.12009  0.85293  1.0000
  C   C294      1.0  0.42692  0.12051  0.82640  1.0000
  C   C295      1.0  0.43741  0.13885  0.76780  1.0000
  C   C296      1.0  0.43593  0.15795  0.77982  1.0000
  C   C297      1.0  0.46782  0.16843  0.75901  1.0000
  C   C298      1.0  0.46959  0.14940  0.74723  1.0000
  C   C299      1.0  0.45447  0.13466  0.75154  1.0000
  H   H230      1.0  0.44046  0.06683  0.71160  1.0000
  H   H231      1.0  0.42416  0.09973  0.72387  1.0000
  H   H232      1.0  0.37004  0.12040  0.84985  1.0000
  H   H233      1.0  0.39788  0.12005  0.88198  1.0000
  H   H234      1.0  0.43419  0.11987  0.86692  1.0000
  H   H235      1.0  0.44293  0.12076  0.82015  1.0000
  H   H236      1.0  0.38842  0.09553  0.74466  1.0000
  H   H237      1.0  0.43600  0.08528  0.80429  1.0000
  H   H238      1.0  0.45658  0.11994  0.74263  1.0000
  C   C300      1.0  0.26434  0.06204  0.56969  1.0000
  C   C301      1.0  0.25333  0.04889  0.55431  1.0000
  C   C302      1.0  0.23647  0.03841  0.56492  1.0000
  C   C303      1.0  0.23071  0.04100  0.59094  1.0000
  C   C304      1.0  0.24145  0.05453  0.60636  1.0000
  C   C305      1.0  0.25861  0.06469  0.59569  1.0000
  H   H239      1.0  0.27786  0.06958  0.56170  1.0000
  H   H240      1.0  0.26873  0.21115  0.79952  1.0000
  H   H241      1.0  0.38317  0.03758  0.56560  1.0000
  H   H242      1.0  0.21814  0.03214  0.59915  1.0000
  H   H243      1.0  0.26806  0.07411  0.60756  1.0000
  C   C306      1.0  0.38295  0.03420  0.54512  1.0000
  C   C307      1.0  0.38271  0.01384  0.53735  1.0000
  C   C308      1.0  0.39338  0.03447  0.73464  1.0000
  S   S62       1.0  0.45050  0.02373  0.69683  1.0000
  H   H244      1.0  0.04848  0.07094  0.72613  1.0000
  H   H245      1.0  0.22818  0.02793  0.55313  1.0000
  C   C309      1.0  0.08855  0.99900  0.50015  1.0000
  P   P11       1.0  0.23522  0.05623  0.64050  1.0000
  C   C310      1.0  0.16546  0.05869  0.65681  1.0000
  C   C311      1.0  0.42939  0.11461  0.50498  1.0000
  H   H246      1.0  0.25952  0.16091  0.87192  1.0000
  C   C312      1.0  0.43629  0.08149  0.78404  1.0000
  C   C313      1.0  0.00089  0.02397  0.82363  1.0000
  H   H247      1.0  0.10393  0.02381  0.51821  1.0000
  H   H248      1.0  0.29434  0.01666  0.67318  1.0000
  H   H249      1.0  0.02144  0.23555  0.96285  1.0000
  C   C314      1.0  0.42470  0.99882  0.63330  1.0000
  C   C315      1.0  0.05623  0.20125  0.93826  1.0000
  H   H250      1.0  0.06299  0.06689  0.87879  1.0000
  H   H251      1.0  0.04306  0.03694  0.86644  1.0000
  H   H252      1.0  0.42335  0.16140  0.79311  1.0000
  H   H253      1.0  0.23568  0.09832  0.61996  1.0000
  C   C316      1.0  0.24431  0.07990  0.65342  1.0000
  C   C317      1.0  0.33046  0.01937  0.50051  1.0000
  H   H254      1.0  0.07949  0.01422  0.79946  1.0000
  C   C318      1.0  0.27484  0.00170  0.52128  1.0000
  H   H255      1.0  0.26619  0.09916  0.70708  1.0000
  H   H256      1.0  0.22046  0.01460  0.65297  1.0000
  H   H257      1.0  0.35002  0.07454  0.51218  1.0000
  H   H258      1.0  0.14908  0.05935  0.66075  1.0000
  S   S63       1.0  0.38892  0.00416  0.60657  1.0000
  C   C319      1.0  0.35983  0.13730  0.72793  1.0000
  H   H259      1.0  0.03342  0.22700  0.89618  1.0000
  C   C320      1.0  0.02846  0.00214  0.83956  1.0000
  C   C321      1.0  0.02173  0.18830  0.93640  1.0000
  C   C322      1.0  0.06474  0.07048  0.73013  1.0000
  H   H260      1.0  0.28259  0.12602  0.93448  1.0000
  H   H261      1.0  0.38150  0.22317  0.86789  1.0000
  H   H262      1.0  0.28874  0.00707  0.52997  1.0000
  C   C323      1.0  0.24926  0.11667  0.64887  1.0000
  H   H263      1.0  0.41673  0.17477  0.89075  1.0000
  H   H264      1.0  0.33652  0.01209  0.51773  1.0000
  C   C324      1.0  0.09212  0.05325  0.86852  1.0000
  H   H265      1.0  0.99782  0.20842  0.95072  1.0000
  H   H266      1.0  0.45302  0.19976  0.94616  1.0000
  C   C325      1.0  0.28005  0.17142  0.84085  1.0000
  H   H267      1.0  0.40170  0.22535  0.77874  1.0000
  H   H268      1.0  0.37844  0.12019  0.80316  1.0000
  H   H269      1.0  0.16313  0.07102  0.61796  1.0000
  C   C326      1.0  0.29065  0.13307  0.86936  1.0000
  C   C327      1.0  0.28296  0.12266  0.91398  1.0000
  H   H270      1.0  0.34466  0.20996  0.86810  1.0000
  P   P12       1.0  0.29980  0.15228  0.84638  1.0000
  C   C328      1.0  0.34248  0.19358  0.86941  1.0000
  C   C329      1.0  0.32536  0.18498  0.85820  1.0000
  H   H271      1.0  0.24828  0.13074  0.63745  1.0000
  C   C330      1.0  0.29026  0.13725  0.89597  1.0000
  C   C331      1.0  0.45518  0.19070  0.96367  1.0000
  C   C332      1.0  0.32228  0.16374  0.85976  1.0000
  C   C333      1.0  0.35679  0.18108  0.88204  1.0000
  H   H272      1.0  0.37012  0.18776  0.89053  1.0000
  H   H273      1.0  0.29541  0.15189  0.90276  1.0000
  C   C334      1.0  0.38389  0.11149  0.74338  1.0000
  H   H274      1.0  0.04881  0.17186  0.92321  1.0000
  H   H275      1.0  0.38717  0.03335  0.64870  1.0000
  C   C335      1.0  0.33675  0.15127  0.87252  1.0000
  C   C336      1.0  0.36992  0.24171  0.83687  1.0000
  C   C337      1.0  0.35396  0.15991  0.88353  1.0000
  C   C338      1.0  0.19986  0.05068  0.67091  1.0000
  C   C339      1.0  0.36472  0.01438  0.70504  1.0000
  C   C340      1.0  0.01415  0.20630  0.94754  1.0000
  C   C341      1.0  0.23636  0.01553  0.65829  1.0000
  H   H276      1.0  0.25382  0.06662  0.69014  1.0000
  H   H277      1.0  0.48301  0.14581  0.73539  1.0000
  C   C342      1.0  0.07078  0.05343  0.87125  1.0000
  C   C343      1.0  0.40148  0.02485  0.64974  1.0000
  C   C344      1.0  0.31763  0.03658  0.50278  1.0000
  H   H278      1.0  0.45249  0.05305  0.79142  1.0000
  C   C345      1.0  0.20788  0.05677  0.64653  1.0000
  H   H279      1.0  0.39575  0.15892  0.76481  1.0000
  C   C346      1.0  0.06956  0.01953  0.85269  1.0000
  H   H280      1.0  0.23722  0.21189  0.82690  1.0000
  C   C347      1.0  0.43425  0.01833  0.67079  1.0000
  H   H281      1.0  0.42271  0.06308  0.50501  1.0000
  C   C348      1.0  0.44718  0.05782  0.75080  1.0000
  C   C349      1.0  0.26206  0.17194  0.85636  1.0000
  C   C350      1.0  0.38304  0.05010  0.52659  1.0000
  H   H282      1.0  0.10073  0.06656  0.87397  1.0000
  H   H283      1.0  0.33472  0.13484  0.87390  1.0000
  C   C351      1.0  0.11319  0.23712  0.88775  1.0000
  C   C352      1.0  0.36652  0.11690  0.72920  1.0000
  H   H284      1.0  0.23258  0.18656  0.86282  1.0000
  H   H285      1.0  0.36511  0.15023  0.89324  1.0000
  H   H286      1.0  0.26343  0.13124  0.68088  1.0000
  C   C353      1.0  0.38799  0.14699  0.75479  1.0000
  C   C354      1.0  0.44572  0.06306  0.77685  1.0000
  H   H287      1.0  0.45491  0.04372  0.74530  1.0000
  H   H288      1.0  0.29574  0.18512  0.80753  1.0000
  C   C355      1.0  0.28228  0.18558  0.82020  1.0000
  H   H289      1.0  0.99586  0.03807  0.81420  1.0000
  C   C356      1.0  0.07610  0.99838  0.79572  1.0000
  C   C357      1.0  0.37039  0.15227  0.74105  1.0000
  C   C358      1.0  0.41960  0.07916  0.50102  1.0000
  H   H290      1.0  0.20997  0.04534  0.68604  1.0000
  H   H291      1.0  0.07245  0.19900  0.93431  1.0000
  C   C359      1.0  0.45300  0.19986  0.98812  1.0000
  C   C360      1.0  0.24673  0.18658  0.85142  1.0000
  C   C361      1.0  0.26709  0.20040  0.81565  1.0000
  H   H292      1.0  0.36066  0.22953  0.82945  1.0000
  H   H293      1.0  0.14696  0.12234  0.63991  1.0000
  H   H294      1.0  0.34635  0.14153  0.71699  1.0000
  C   C362      1.0  0.25933  0.09889  0.68818  1.0000
  H   H295      1.0  0.13061  0.21693  0.91261  1.0000
  H   H296      1.0  0.06749  0.10315  0.72965  1.0000
  H   H297      1.0  0.09063  0.99938  0.75770  1.0000
  C   C363      1.0  0.27807  0.01637  0.66947  1.0000
  C   C364      1.0  0.07860  0.23411  0.98643  1.0000
  C   C365      1.0  0.26816  0.03408  0.66033  1.0000
  H   H298      1.0  0.35357  0.00699  0.69329  1.0000
  C   C366      1.0  0.40960  0.22424  0.90952  1.0000
  H   H299      1.0  0.41592  0.21002  0.87264  1.0000
  C   C367      1.0  0.17338  0.06525  0.63270  1.0000
  C   C368      1.0  0.19453  0.06443  0.62761  1.0000
  C   C369      1.0  0.03805  0.23039  0.87636  1.0000
  C   C370      1.0  0.41106  0.18407  0.93000  1.0000
  H   H300      1.0  0.11881  0.03612  0.85619  1.0000
  C   C371      1.0  0.24932  0.20089  0.83121  1.0000
  C   C372      1.0  0.09065  0.17043  0.75208  1.0000
  C   C373      1.0  0.41368  0.18756  0.90337  1.0000
  C   C374      1.0  0.24629  0.99782  0.66753  1.0000
  C   C375      1.0  0.24720  0.03389  0.65497  1.0000
  C   C376      1.0  0.41315  0.20756  0.89320  1.0000
  C   C377      1.0  0.24233  0.09825  0.63899  1.0000
  H   H301      1.0  0.27701  0.04779  0.65674  1.0000
  C   C378      1.0  0.26717  0.99820  0.67294  1.0000
  H   H302      1.0  0.09916  0.00607  0.84295  1.0000
  H   H303      1.0  0.03267  0.03171  0.82064  1.0000
  C   C379      1.0  0.41565  0.02929  0.66895  1.0000
  C   C380      1.0  0.09106  0.01930  0.85057  1.0000
  H   H304      1.0  0.10632  0.21920  0.94936  1.0000
  C   C381      1.0  0.27351  0.00097  0.49432  1.0000
  C   C382      1.0  0.46182  0.15815  0.98501  1.0000
  H   H305      1.0  0.38321  0.06578  0.53305  1.0000
  C   C383      1.0  0.17871  0.05151  0.67594  1.0000
  H   H306      1.0  0.01133  0.17639  0.93100  1.0000
  C   C384      1.0  0.10337  0.22827  0.93204  1.0000
  C   C385      1.0  0.36494  0.03579  0.70534  1.0000
  H   H307      1.0  0.40619  0.23312  0.94978  1.0000
  H   H308      1.0  0.37966  0.06241  0.71984  1.0000
  C   C386      1.0  0.39321  0.01305  0.73438  1.0000
  S   S64       1.0  0.02931  0.99812  0.76401  1.0000
  C   C387      1.0  0.49352  0.22725  0.94091  1.0000
  H   H309      1.0  0.06631  0.03749  0.73144  1.0000
  Fe  Fe34      1.0  0.47948  0.00944  0.71390  1.0000
  H   H310      1.0  0.48650  0.10229  0.84725  1.0000
  C   C388      1.0  0.43309  0.09379  0.50994  1.0000
  Fe  Fe35      1.0  0.31200  0.99943  0.61028  1.0000
  H   H311      1.0  0.10574  0.19184  0.98551  1.0000
  C   C389      1.0  0.37927  0.04583  0.72010  1.0000
  H   H312      1.0  0.35414  0.04457  0.69375  1.0000
  C   C390      1.0  0.40801  0.20058  0.94650  1.0000
  H   H313      1.0  0.40690  0.19784  0.96729  1.0000
  C   C391      1.0  0.05952  0.03655  0.86366  1.0000
  H   H314      1.0  0.17262  0.04661  0.69473  1.0000
  H   H315      1.0  0.41211  0.04121  0.68262  1.0000
  H   H316      1.0  0.40440  0.00454  0.74558  1.0000
  S   S65       1.0  0.33474  0.00224  0.57716  1.0000
  C   C392      1.0  0.38311  0.04573  0.50003  1.0000
  C   C393      1.0  0.43873  0.00300  0.65288  1.0000
  C   C394      1.0  0.48922  0.23367  0.98671  1.0000
  H   H317      1.0  0.26101  0.99607  0.60757  1.0000
  H   H318      1.0  0.12355  0.23538  0.87121  1.0000
  C   C395      1.0  0.04994  0.23862  0.82510  1.0000
  C   C396      1.0  0.09707  0.00888  0.52108  1.0000
  C   C397      1.0  0.48279  0.23661  0.96127  1.0000
  Fe  Fe36      1.0  0.03288  0.99473  0.72070  1.0000
  C   C398      1.0  0.13823  0.99555  0.63035  1.0000
  H   H319      1.0  0.48825  0.99626  0.81774  1.0000
  P   P13       1.0  0.06631  0.23978  0.95598  1.0000
  H   H320      1.0  0.21069  0.22806  0.99029  1.0000
  H   H321      1.0  0.33824  0.23979  0.77318  1.0000
  H   H322      1.0  0.36450  0.23409  0.65823  1.0000
  C   C399      1.0  0.37892  0.00282  0.71946  1.0000
  P   P14       1.0  0.05545  0.99716  0.84389  1.0000
  H   H323      1.0  0.31712  0.09239  0.50687  1.0000
  H   H324      1.0  0.10338  0.00748  0.56167  1.0000
  H   H325      1.0  0.08745  0.00149  0.61888  1.0000
  C   C400      1.0  0.10283  0.99518  0.61716  1.0000
  H   H326      1.0  0.05450  0.24186  0.80518  1.0000
  C   C401      1.0  0.09675  0.99955  0.54571  1.0000
  S   S66       1.0  0.47608  0.99620  0.75446  1.0000
  C   C402      1.0  0.25837  0.99539  0.53707  1.0000
  H   H327      1.0  0.25958  0.99582  0.55795  1.0000
  Fe  Fe37      1.0  0.37056  0.40953  0.34211  1.0000
  S   S67       1.0  0.34473  0.41023  0.31425  1.0000
  S   S68       1.0  0.40236  0.41272  0.32215  1.0000
  Fe  Fe38      1.0  0.34086  0.39909  0.38813  1.0000
  S   S69       1.0  0.31360  0.39884  0.36171  1.0000
  S   S70       1.0  0.32893  0.39509  0.43039  1.0000
  Fe  Fe39      1.0  0.33368  0.38103  0.33357  1.0000
  S   S71       1.0  0.32426  0.35747  0.30306  1.0000
  Fe  Fe40      1.0  0.32680  0.42758  0.34445  1.0000
  S   S72       1.0  0.31006  0.45744  0.33419  1.0000
  S   S73       1.0  0.36024  0.37940  0.36079  1.0000
  S   S74       1.0  0.35332  0.42883  0.37147  1.0000
  H   H328      1.0  0.31262  0.28983  0.18467  1.0000
  H   H329      1.0  0.36836  0.47976  0.31909  1.0000
  H   H330      1.0  0.00473  0.27747  0.00004  1.0000
  C   C403      1.0  0.30705  0.47566  0.40192  1.0000
  H   H331      1.0  0.06236  0.44609  0.23197  1.0000
  H   H332      1.0  0.00168  0.33535  0.99470  1.0000
  H   H333      1.0  0.38083  0.27272  0.35147  1.0000
  C   C404      1.0  0.11561  0.44906  0.26437  1.0000
  H   H334      1.0  0.04471  0.24601  0.03169  1.0000
  C   C405      1.0  0.02501  0.29668  0.06160  1.0000
  C   C406      1.0  0.32490  0.28935  0.19847  1.0000
  Fe  Fe41      1.0  0.01539  0.47372  0.21950  1.0000
  S   S75       1.0  0.02606  0.44767  0.19328  1.0000
  C   C407      1.0  0.04594  0.29360  0.05675  1.0000
  C   C408      1.0  0.33511  0.27088  0.20369  1.0000
  C   C409      1.0  0.16459  0.48756  0.22038  1.0000
  H   H335      1.0  0.22271  0.43317  0.44078  1.0000
  H   H336      1.0  0.33883  0.44084  0.26988  1.0000
  C   C410      1.0  0.46325  0.32707  0.20596  1.0000
  C   C411      1.0  0.12584  0.24646  0.09251  1.0000
  C   C412      1.0  0.48668  0.26560  0.04462  1.0000
  C   C413      1.0  0.22290  0.49192  0.47348  1.0000
  C   C414      1.0  0.99981  0.45352  0.12660  1.0000
  C   C415      1.0  0.41745  0.43467  0.31369  1.0000
  C   C416      1.0  0.43402  0.43256  0.29588  1.0000
  C   C417      1.0  0.44679  0.44930  0.28920  1.0000
  C   C418      1.0  0.44354  0.46831  0.30081  1.0000
  C   C419      1.0  0.42687  0.47046  0.31843  1.0000
  C   C420      1.0  0.41382  0.45385  0.32466  1.0000
  H   H337      1.0  0.43702  0.41786  0.28719  1.0000
  H   H338      1.0  0.45933  0.44743  0.27539  1.0000
  H   H339      1.0  0.41765  0.25747  0.18388  1.0000
  H   H340      1.0  0.40131  0.45570  0.33851  1.0000
  C   C421      1.0  0.28393  0.46303  0.34179  1.0000
  C   C422      1.0  0.27630  0.48295  0.33698  1.0000
  H   H341      1.0  0.07910  0.49092  0.34242  1.0000
  C   C423      1.0  0.24202  0.47292  0.35127  1.0000
  C   C424      1.0  0.24968  0.45302  0.35638  1.0000
  C   C425      1.0  0.27057  0.44814  0.35191  1.0000
  H   H342      1.0  0.34252  0.47787  0.27561  1.0000
  C   C426      1.0  0.48228  0.31555  0.24333  1.0000
  H   H343      1.0  0.23943  0.44135  0.36390  1.0000
  H   H344      1.0  0.27630  0.43287  0.35604  1.0000
  C   C427      1.0  0.31731  0.33117  0.29987  1.0000
  C   C428      1.0  0.31145  0.32427  0.27543  1.0000
  C   C429      1.0  0.30621  0.30358  0.27161  1.0000
  C   C430      1.0  0.30672  0.28937  0.29222  1.0000
  C   C431      1.0  0.31238  0.29632  0.31674  1.0000
  C   C432      1.0  0.31769  0.31700  0.32056  1.0000
  H   H345      1.0  0.31095  0.33504  0.25927  1.0000
  H   H346      1.0  0.30151  0.29865  0.25279  1.0000
  H   H347      1.0  0.31272  0.28557  0.33294  1.0000
  H   H348      1.0  0.32215  0.32192  0.33949  1.0000
  C   C433      1.0  0.36086  0.39549  0.46578  1.0000
  C   C434      1.0  0.33970  0.39581  0.46192  1.0000
  H   H349      1.0  0.45540  0.30064  0.22963  1.0000
  H   H350      1.0  0.37130  0.39519  0.44921  1.0000
  S   S76       1.0  0.99648  0.32528  0.12020  1.0000
  C   C435      1.0  0.15741  0.49058  0.27381  1.0000
  C   C436      1.0  0.18786  0.25287  0.05244  1.0000
  C   C437      1.0  0.01794  0.25310  0.13859  1.0000
  C   C438      1.0  0.01056  0.42624  0.18635  1.0000
  C   C439      1.0  0.00701  0.39292  0.16560  1.0000
  H   H351      1.0  0.30709  0.48641  0.38564  1.0000
  H   H352      1.0  0.15155  0.45756  0.22421  1.0000
  H   H353      1.0  0.39115  0.28016  0.20319  1.0000
  H   H354      1.0  0.33908  0.44318  0.43427  1.0000
  H   H355      1.0  0.32955  0.47806  0.47729  1.0000
  H   H356      1.0  0.12224  0.42056  0.24465  1.0000
  C   C440      1.0  0.36905  0.27449  0.28732  1.0000
  H   H357      1.0  0.23247  0.38783  0.38281  1.0000
  C   C441      1.0  0.25979  0.40156  0.39700  1.0000
  C   C442      1.0  0.35709  0.25521  0.33431  1.0000
  H   H358      1.0  0.24044  0.46761  0.40862  1.0000
  H   H359      1.0  0.01357  0.38074  0.15403  1.0000
  C   C443      1.0  0.07725  0.44693  0.24088  1.0000
  C   C444      1.0  0.35372  0.44776  0.26693  1.0000
  C   C445      1.0  0.23323  0.42449  0.42859  1.0000
  C   C446      1.0  0.16037  0.39177  0.28209  1.0000
  H   H360      1.0  0.32245  0.32141  0.20722  1.0000
  S   S77       1.0  0.00699  0.46632  0.26091  1.0000
  C   C447      1.0  0.04841  0.25101  0.11064  1.0000
  C   C448      1.0  0.01742  0.46390  0.13348  1.0000
  C   C449      1.0  0.42855  0.24638  0.22060  1.0000
  P   P15       1.0  0.26425  0.44757  0.44950  1.0000
  H   H361      1.0  0.45064  0.32523  0.19294  1.0000
  C   C450      1.0  0.48856  0.39973  0.27399  1.0000
  H   H362      1.0  0.16718  0.48647  0.19964  1.0000
  H   H363      1.0  0.47160  0.27217  0.04150  1.0000
  H   H364      1.0  0.02697  0.27661  0.11118  1.0000
  C   C451      1.0  0.26929  0.43724  0.48155  1.0000
  C   C452      1.0  0.23880  0.30425  0.27578  1.0000
  C   C453      1.0  0.01797  0.26285  0.04548  1.0000
  C   C454      1.0  0.41098  0.25968  0.25869  1.0000
  H   H365      1.0  0.02968  0.49205  0.14727  1.0000
  C   C455      1.0  0.15578  0.47121  0.23435  1.0000
  C   C456      1.0  0.09187  0.43141  0.23701  1.0000
  C   C457      1.0  0.01102  0.28140  0.05600  1.0000
  H   H366      1.0  0.48635  0.36877  0.26158  1.0000
  C   C458      1.0  0.26556  0.41654  0.48776  1.0000
  C   C459      1.0  0.12072  0.45659  0.32705  1.0000
  H   H367      1.0  0.30682  0.43433  0.45682  1.0000
  C   C460      1.0  0.35587  0.46883  0.27000  1.0000
  H   H368      1.0  0.33767  0.44236  0.49163  1.0000
  P   P16       1.0  0.14052  0.45140  0.27866  1.0000
  C   C461      1.0  0.15231  0.47253  0.26122  1.0000
  C   C462      1.0  0.03900  0.26002  0.04015  1.0000
  C   C463      1.0  0.36857  0.39494  0.49118  1.0000
  H   H369      1.0  0.28417  0.41802  0.41388  1.0000
  S   S78       1.0  0.29942  0.26315  0.28892  1.0000
  C   C464      1.0  0.01874  0.41033  0.17106  1.0000
  H   H370      1.0  0.20898  0.40788  0.41113  1.0000
  H   H371      1.0  0.18211  0.25999  0.06999  1.0000
  C   C465      1.0  0.37317  0.26914  0.33373  1.0000
  C   C466      1.0  0.10106  0.46488  0.26743  1.0000
  C   C467      1.0  0.18895  0.41197  0.26600  1.0000
  C   C468      1.0  0.28823  0.45609  0.43499  1.0000
  C   C469      1.0  0.49302  0.38353  0.25728  1.0000
  H   H372      1.0  0.40764  0.47188  0.25988  1.0000
  C   C470      1.0  0.39241  0.46548  0.26127  1.0000
  H   H373      1.0  0.26307  0.29073  0.29816  1.0000
  H   H374      1.0  0.10592  0.46081  0.36432  1.0000
  H   H375      1.0  0.33088  0.25715  0.19375  1.0000
  H   H376      1.0  0.40935  0.25992  0.27956  1.0000
  P   P17       1.0  0.37732  0.28666  0.25713  1.0000
  H   H377      1.0  0.05667  0.30541  0.06146  1.0000
  C   C471      1.0  0.38589  0.31214  0.26413  1.0000
  C   C472      1.0  0.37415  0.32451  0.28096  1.0000
  C   C473      1.0  0.38064  0.34418  0.28678  1.0000
  C   C474      1.0  0.39895  0.35166  0.27597  1.0000
  C   C475      1.0  0.41071  0.33949  0.25912  1.0000
  C   C476      1.0  0.40420  0.31979  0.25314  1.0000
  C   C477      1.0  0.33048  0.30711  0.21111  1.0000
  H   H378      1.0  0.08828  0.41860  0.22491  1.0000
  H   H379      1.0  0.03432  0.41137  0.16360  1.0000
  H   H380      1.0  0.07057  0.47574  0.25890  1.0000
  C   C478      1.0  0.35287  0.26051  0.28814  1.0000
  C   C479      1.0  0.35643  0.28781  0.23466  1.0000
  C   C480      1.0  0.46592  0.31323  0.22664  1.0000
  C   C481      1.0  0.37089  0.43552  0.26121  1.0000
  H   H381      1.0  0.20487  0.41300  0.25972  1.0000
  C   C482      1.0  0.26770  0.41607  0.41352  1.0000
  C   C483      1.0  0.34618  0.30638  0.22914  1.0000
  H   H382      1.0  0.37494  0.48428  0.36514  1.0000
  H   H383      1.0  0.47469  0.35363  0.18562  1.0000
  C   C484      1.0  0.23850  0.47699  0.47346  1.0000
  C   C485      1.0  0.41596  0.25843  0.20479  1.0000
  C   C486      1.0  0.11104  0.43250  0.24853  1.0000
  H   H384      1.0  0.35986  0.31900  0.28949  1.0000
  H   H385      1.0  0.37139  0.35369  0.29966  1.0000
  H   H386      1.0  0.40393  0.36694  0.28067  1.0000
  H   H387      1.0  0.42487  0.34537  0.25069  1.0000
  H   H388      1.0  0.41345  0.31064  0.23999  1.0000
  C   C487      1.0  0.17672  0.42970  0.26708  1.0000
  H   H389      1.0  0.35219  0.24799  0.35245  1.0000
  H   H390      1.0  0.48539  0.41213  0.14385  1.0000
  H   H391      1.0  0.39172  0.28942  0.31029  1.0000
  H   H392      1.0  0.40358  0.43480  0.25472  1.0000
  H   H393      1.0  0.34437  0.25719  0.27102  1.0000
  H   H394      1.0  0.10454  0.47816  0.27873  1.0000
  C   C488      1.0  0.24536  0.46822  0.45006  1.0000
  H   H395      1.0  0.19025  0.37931  0.27251  1.0000
  H   H396      1.0  0.35004  0.32031  0.23880  1.0000
  C   C489      1.0  0.22718  0.32195  0.27073  1.0000
  C   C490      1.0  0.12043  0.45987  0.35377  1.0000
  C   C491      1.0  0.25386  0.30440  0.29456  1.0000
  C   C492      1.0  0.25735  0.32219  0.30837  1.0000
  C   C493      1.0  0.24539  0.33990  0.30390  1.0000
  C   C494      1.0  0.23053  0.33977  0.28462  1.0000
  P   P18       1.0  0.25047  0.36321  0.32082  1.0000
  C   C495      1.0  0.26134  0.35598  0.35168  1.0000
  C   C496      1.0  0.26846  0.37858  0.30192  1.0000
  C   C497      1.0  0.27712  0.39596  0.31271  1.0000
  C   C498      1.0  0.29082  0.40807  0.29817  1.0000
  C   C499      1.0  0.29651  0.40257  0.27299  1.0000
  C   C500      1.0  0.28832  0.38507  0.26223  1.0000
  C   C501      1.0  0.27431  0.37312  0.27657  1.0000
  C   C502      1.0  0.28262  0.35634  0.35488  1.0000
  C   C503      1.0  0.29113  0.35084  0.37866  1.0000
  C   C504      1.0  0.27847  0.34466  0.39943  1.0000
  C   C505      1.0  0.25729  0.34361  0.39625  1.0000
  C   C506      1.0  0.24877  0.34906  0.37240  1.0000
  C   C507      1.0  0.22671  0.37728  0.32696  1.0000
  C   C508      1.0  0.22610  0.39885  0.32655  1.0000
  C   C509      1.0  0.20789  0.40945  0.33249  1.0000
  C   C510      1.0  0.19004  0.39868  0.33866  1.0000
  C   C511      1.0  0.19038  0.37726  0.33884  1.0000
  C   C512      1.0  0.20859  0.36660  0.33302  1.0000
  H   H397      1.0  0.21573  0.32185  0.25586  1.0000
  C   C513      1.0  0.15607  0.42851  0.27522  1.0000
  C   C514      1.0  0.39784  0.27138  0.24291  1.0000
  H   H398      1.0  0.26958  0.32207  0.32223  1.0000
  H   H399      1.0  0.22174  0.35348  0.28011  1.0000
  H   H400      1.0  0.27340  0.40012  0.33248  1.0000
  H   H401      1.0  0.29734  0.42152  0.30662  1.0000
  H   H402      1.0  0.30761  0.41164  0.26207  1.0000
  H   H403      1.0  0.29321  0.38048  0.24300  1.0000
  H   H404      1.0  0.26856  0.35942  0.26796  1.0000
  H   H405      1.0  0.29274  0.36086  0.33903  1.0000
  H   H406      1.0  0.30759  0.35149  0.38098  1.0000
  H   H407      1.0  0.28513  0.34058  0.41790  1.0000
  H   H408      1.0  0.24752  0.33851  0.41227  1.0000
  H   H409      1.0  0.23240  0.34786  0.37030  1.0000
  H   H410      1.0  0.23950  0.40779  0.32186  1.0000
  H   H411      1.0  0.20768  0.42610  0.33242  1.0000
  H   H412      1.0  0.17594  0.40697  0.34317  1.0000
  H   H413      1.0  0.17650  0.36891  0.34360  1.0000
  H   H414      1.0  0.20857  0.35000  0.33348  1.0000
  C   C515      1.0  0.13943  0.45593  0.31309  1.0000
  C   C516      1.0  0.23604  0.47450  0.42687  1.0000
  C   C517      1.0  0.40082  0.27107  0.21586  1.0000
  H   H415      1.0  0.27014  0.39264  0.38491  1.0000
  C   C518      1.0  0.25441  0.42801  0.42900  1.0000
  C   C519      1.0  0.20305  0.25632  0.00933  1.0000
  C   C520      1.0  0.32528  0.46597  0.40920  1.0000
  S   S79       1.0  0.99553  0.26593  0.15038  1.0000
  C   C521      1.0  0.15782  0.45796  0.32641  1.0000
  H   H416      1.0  0.01958  0.31093  0.06989  1.0000
  C   C522      1.0  0.28859  0.47077  0.41471  1.0000
  H   H417      1.0  0.13857  0.46501  0.38742  1.0000
  H   H418      1.0  0.06918  0.27272  0.04249  1.0000
  C   C523      1.0  0.14816  0.40950  0.28339  1.0000
  C   C524      1.0  0.23863  0.39875  0.39594  1.0000
  H   H419      1.0  0.18353  0.44429  0.26190  1.0000
  H   H420      1.0  0.03197  0.45576  0.13429  1.0000
  H   H421      1.0  0.21322  0.49390  0.40906  1.0000
  C   C525      1.0  0.37919  0.27869  0.31034  1.0000
  H   H422      1.0  0.05828  0.25788  0.09591  1.0000
  C   C526      1.0  0.15748  0.46101  0.35314  1.0000
  C   C527      1.0  0.08189  0.46368  0.25601  1.0000
  C   C528      1.0  0.18074  0.39300  0.27330  1.0000
  H   H423      1.0  0.27469  0.47804  0.40801  1.0000
  H   H424      1.0  0.13252  0.40841  0.29078  1.0000
  H   H425      1.0  0.10628  0.45468  0.31755  1.0000
  H   H426      1.0  0.23637  0.29044  0.26493  1.0000
  H   H427      1.0  0.17176  0.46294  0.36316  1.0000
  C   C529      1.0  0.30668  0.44640  0.44213  1.0000
  C   C530      1.0  0.39019  0.44439  0.25834  1.0000
  C   C531      1.0  0.13879  0.46216  0.36679  1.0000
  C   C532      1.0  0.47702  0.34313  0.20180  1.0000
  C   C533      1.0  0.05294  0.27526  0.04600  1.0000
  C   C534      1.0  0.03066  0.26166  0.11922  1.0000
  C   C535      1.0  0.22537  0.41008  0.41188  1.0000
  C   C536      1.0  0.32510  0.45135  0.42930  1.0000
  H   H428      1.0  0.15408  0.37711  0.28809  1.0000
  H   H429      1.0  0.36936  0.41907  0.25977  1.0000
  C   C537      1.0  0.25551  0.48793  0.34187  1.0000
  H   H430      1.0  0.15433  0.49239  0.29434  1.0000
  C   C538      1.0  0.35079  0.27008  0.22168  1.0000
  S   S80       1.0  0.21544  0.47813  0.35619  1.0000
  C   C539      1.0  0.37522  0.47789  0.26690  1.0000
  H   H431      1.0  0.00117  0.43749  0.12185  1.0000
  C   C540      1.0  0.22043  0.48933  0.42701  1.0000
  H   H432      1.0  0.31005  0.39640  0.48122  1.0000
  H   H433      1.0  0.19453  0.28178  0.03341  1.0000
  H   H434      1.0  0.10751  0.24622  0.12779  1.0000
  C   C541      1.0  0.32644  0.39612  0.48388  1.0000
  H   H435      1.0  0.25943  0.40642  0.47359  1.0000
  H   H436      1.0  0.49340  0.43165  0.28184  1.0000
  C   C542      1.0  0.34704  0.25083  0.31151  1.0000
  H   H437      1.0  0.33943  0.46933  0.39868  1.0000
  H   H438      1.0  0.11517  0.25630  0.08221  1.0000
  C   C543      1.0  0.37613  0.49344  0.32488  1.0000
  H   H439      1.0  0.42418  0.48502  0.32761  1.0000
  C   C544      1.0  0.01612  0.48435  0.14093  1.0000
  C   C545      1.0  0.19504  0.26525  0.03184  1.0000
  H   H440      1.0  0.35856  0.25561  0.22536  1.0000
  H   H441      1.0  0.17247  0.45749  0.31611  1.0000
  S   S81       1.0  0.46005  0.48965  0.29478  1.0000
  H   H442      1.0  0.24465  0.47213  0.49183  1.0000
  C   C546      1.0  0.48856  0.24657  0.05720  1.0000
  C   C547      1.0  0.42617  0.24712  0.24754  1.0000
  Fe  Fe42      1.0  0.02599  0.49387  0.27022  1.0000
  S   S82       1.0  0.04754  0.49275  0.30460  1.0000
  H   H443      1.0  0.11943  0.24877  0.02159  1.0000
  S   S83       1.0  0.28501  0.24523  0.21478  1.0000
  H   H444      1.0  0.48438  0.30482  0.25934  1.0000
  C   C548      1.0  0.49370  0.34536  0.21822  1.0000
  H   H445      1.0  0.48759  0.39945  0.18887  1.0000
  H   H446      1.0  0.47857  0.39738  0.29083  1.0000
  H   H447      1.0  0.38497  0.39428  0.49383  1.0000
  C   C549      1.0  0.23792  0.33497  0.56855  1.0000
  C   C550      1.0  0.41999  0.26395  0.72668  1.0000
  C   C551      1.0  0.38281  0.27523  0.68981  1.0000
  Fe  Fe43      1.0  0.36011  0.41605  0.63871  1.0000
  S   S84       1.0  0.32770  0.40931  0.65279  1.0000
  S   S85       1.0  0.38231  0.42838  0.66909  1.0000
  Fe  Fe44      1.0  0.35147  0.39739  0.58523  1.0000
  S   S86       1.0  0.31932  0.38865  0.59685  1.0000
  S   S87       1.0  0.36613  0.39327  0.54470  1.0000
  Fe  Fe45      1.0  0.31721  0.42024  0.61355  1.0000
  S   S88       1.0  0.29072  0.43988  0.59790  1.0000
  Fe  Fe46      1.0  0.33226  0.37799  0.63525  1.0000
  S   S89       1.0  0.32061  0.35128  0.66179  1.0000
  S   S90       1.0  0.34920  0.42933  0.60074  1.0000
  S   S91       1.0  0.36491  0.38436  0.62248  1.0000
  H   H448      1.0  0.37267  0.24875  0.92903  1.0000
  H   H449      1.0  0.37331  0.30662  0.96704  1.0000
  C   C552      1.0  0.24782  0.30795  0.52863  1.0000
  H   H450      1.0  0.43382  0.48324  0.87058  1.0000
  C   C553      1.0  0.47889  0.41527  0.65154  1.0000
  H   H451      1.0  0.26750  0.39259  0.51701  1.0000
  C   C554      1.0  0.45141  0.38847  0.69092  1.0000
  C   C555      1.0  0.45960  0.48061  0.82620  1.0000
  H   H452      1.0  0.32725  0.45894  0.57070  1.0000
  H   H453      1.0  0.20752  0.33553  0.55309  1.0000
  C   C556      1.0  0.06243  0.44827  0.68035  1.0000
  C   C557      1.0  0.35535  0.39501  0.51313  1.0000
  C   C558      1.0  0.41938  0.26565  0.78082  1.0000
  H   H454      1.0  0.40811  0.38733  0.65515  1.0000
  H   H455      1.0  0.06759  0.25925  0.90353  1.0000
  H   H456      1.0  0.32373  0.39592  0.52586  1.0000
  C   C559      1.0  0.27015  0.45319  0.61354  1.0000
  C   C560      1.0  0.26730  0.45288  0.64048  1.0000
  C   C561      1.0  0.25067  0.46369  0.65190  1.0000
  C   C562      1.0  0.23704  0.47534  0.63665  1.0000
  C   C563      1.0  0.24001  0.47575  0.60974  1.0000
  C   C564      1.0  0.25646  0.46472  0.59828  1.0000
  H   H457      1.0  0.27775  0.44415  0.65249  1.0000
  H   H458      1.0  0.24837  0.46306  0.67272  1.0000
  C   C565      1.0  0.28189  0.44186  0.52502  1.0000
  C   C566      1.0  0.38260  0.47462  0.87414  1.0000
  C   C567      1.0  0.32046  0.32418  0.66840  1.0000
  C   C568      1.0  0.33287  0.31027  0.65467  1.0000
  C   C569      1.0  0.33255  0.28913  0.66122  1.0000
  C   C570      1.0  0.31975  0.28137  0.68140  1.0000
  C   C571      1.0  0.30713  0.29524  0.69486  1.0000
  C   C572      1.0  0.30760  0.31643  0.68851  1.0000
  H   H459      1.0  0.34296  0.31580  0.63927  1.0000
  H   H460      1.0  0.34216  0.27865  0.65032  1.0000
  H   H461      1.0  0.29698  0.28962  0.71016  1.0000
  H   H462      1.0  0.29782  0.32691  0.69923  1.0000
  H   H463      1.0  0.28152  0.46553  0.49561  1.0000
  H   H464      1.0  0.27707  0.26512  0.65998  1.0000
  C   C573      1.0  0.42414  0.36061  0.67001  1.0000
  C   C574      1.0  0.43440  0.47506  0.68175  1.0000
  C   C575      1.0  0.42543  0.47358  0.65722  1.0000
  C   C576      1.0  0.40966  0.45940  0.65276  1.0000
  C   C577      1.0  0.40226  0.44671  0.67297  1.0000
  C   C578      1.0  0.41106  0.44839  0.69750  1.0000
  C   C579      1.0  0.42717  0.46217  0.70181  1.0000
  H   H465      1.0  0.47751  0.38697  0.75338  1.0000
  H   H466      1.0  0.40321  0.45835  0.63372  1.0000
  H   H467      1.0  0.40519  0.43900  0.71335  1.0000
  H   H468      1.0  0.43372  0.46315  0.72078  1.0000
  C   C580      1.0  0.04612  0.40974  0.76361  1.0000
  C   C581      1.0  0.02856  0.28856  0.93882  1.0000
  C   C582      1.0  0.33979  0.25499  0.76460  1.0000
  C   C583      1.0  0.05284  0.44426  0.74802  1.0000
  H   H469      1.0  0.06689  0.27428  0.99258  1.0000
  C   C584      1.0  0.00778  0.40344  0.71853  1.0000
  C   C585      1.0  0.47017  0.26527  0.90164  1.0000
  C   C586      1.0  0.02597  0.44217  0.67805  1.0000
  C   C587      1.0  0.09551  0.38907  0.66790  1.0000
  C   C588      1.0  0.03194  0.30209  0.95886  1.0000
  C   C589      1.0  0.32496  0.47425  0.63744  1.0000
  C   C590      1.0  0.40412  0.27576  0.76667  1.0000
  C   C591      1.0  0.06032  0.46531  0.66378  1.0000
  H   H470      1.0  0.00561  0.41829  0.72726  1.0000
  C   C592      1.0  0.49164  0.39427  0.71599  1.0000
  H   H471      1.0  0.06692  0.40427  0.65994  1.0000
  C   C593      1.0  0.48769  0.44870  0.63388  1.0000
  C   C594      1.0  0.37113  0.27703  0.94957  1.0000
  H   H472      1.0  0.40366  0.28517  0.86215  1.0000
  C   C595      1.0  0.46427  0.25796  0.85667  1.0000
  S   S92       1.0  0.00558  0.46618  0.73174  1.0000
  H   H473      1.0  0.48276  0.45674  0.82352  1.0000
  H   H474      1.0  0.21636  0.31175  0.51748  1.0000
  C   C596      1.0  0.43908  0.44033  0.77281  1.0000
  C   C597      1.0  0.07712  0.39890  0.67496  1.0000
  H   H475      1.0  0.04406  0.37317  0.68925  1.0000
  H   H476      1.0  0.36451  0.24890  0.70135  1.0000
  C   C598      1.0  0.46846  0.43374  0.74458  1.0000
  C   C599      1.0  0.04563  0.29670  0.97833  1.0000
  C   C600      1.0  0.05274  0.26413  0.95754  1.0000
  H   H477      1.0  0.47669  0.39909  0.64847  1.0000
  H   H478      1.0  0.35702  0.27313  0.95988  1.0000
  C   C601      1.0  0.43469  0.39552  0.67641  1.0000
  C   C602      1.0  0.48498  0.45702  0.65844  1.0000
  C   C603      1.0  0.33417  0.39587  0.50927  1.0000
  C   C604      1.0  0.39323  0.28482  0.66887  1.0000
  C   C605      1.0  0.04931  0.42362  0.74282  1.0000
  C   C606      1.0  0.32919  0.47405  0.49776  1.0000
  H   H479      1.0  0.48056  0.26953  0.91665  1.0000
  C   C607      1.0  0.39433  0.27290  0.85521  1.0000
  C   C608      1.0  0.22797  0.31609  0.53096  1.0000
  H   H480      1.0  0.46708  0.36149  0.70607  1.0000
  H   H481      1.0  0.41894  0.26579  0.80182  1.0000
  H   H482      1.0  0.44432  0.26169  0.92779  1.0000
  C   C609      1.0  0.45954  0.44376  0.76577  1.0000
  C   C610      1.0  0.25805  0.32733  0.56585  1.0000
  H   H483      1.0  0.09183  0.25628  0.86698  1.0000
  P   P19       1.0  0.27708  0.33325  0.58926  1.0000
  C   C611      1.0  0.27119  0.35720  0.60483  1.0000
  C   C612      1.0  0.27732  0.31180  0.61189  1.0000
  C   C613      1.0  0.26217  0.31027  0.63156  1.0000
  C   C614      1.0  0.26209  0.29351  0.64887  1.0000
  H   H484      1.0  0.25072  0.29261  0.66445  1.0000
  C   C615      1.0  0.04104  0.47102  0.65472  1.0000
  C   C616      1.0  0.29179  0.29584  0.60905  1.0000
  C   C617      1.0  0.26493  0.37430  0.58995  1.0000
  C   C618      1.0  0.26143  0.39321  0.60169  1.0000
  C   C619      1.0  0.26453  0.39523  0.62820  1.0000
  C   C620      1.0  0.27121  0.37841  0.64299  1.0000
  C   C621      1.0  0.27453  0.35947  0.63137  1.0000
  C   C622      1.0  0.30186  0.33732  0.57399  1.0000
  C   C623      1.0  0.31953  0.33592  0.58892  1.0000
  C   C624      1.0  0.33878  0.34002  0.57770  1.0000
  C   C625      1.0  0.34047  0.34581  0.55155  1.0000
  C   C626      1.0  0.32290  0.34764  0.53665  1.0000
  C   C627      1.0  0.30362  0.34363  0.54786  1.0000
  H   H485      1.0  0.01238  0.43368  0.68334  1.0000
  H   H486      1.0  0.00745  0.38604  0.77963  1.0000
  H   H487      1.0  0.48658  0.42138  0.61131  1.0000
  C   C628      1.0  0.05618  0.27792  0.97753  1.0000
  H   H488      1.0  0.27797  0.30660  0.54450  1.0000
  H   H489      1.0  0.25053  0.32210  0.63370  1.0000
  C   C629      1.0  0.32808  0.46349  0.55049  1.0000
  H   H490      1.0  0.42712  0.40614  0.72707  1.0000
  H   H491      1.0  0.43217  0.44826  0.78908  1.0000
  C   C630      1.0  0.45690  0.42032  0.73002  1.0000
  H   H492      1.0  0.26313  0.37315  0.56924  1.0000
  H   H493      1.0  0.25686  0.40652  0.59024  1.0000
  H   H494      1.0  0.26221  0.40997  0.63715  1.0000
  H   H495      1.0  0.27434  0.38013  0.66337  1.0000
  H   H496      1.0  0.28030  0.34683  0.64305  1.0000
  H   H497      1.0  0.31834  0.33222  0.60942  1.0000
  H   H498      1.0  0.35232  0.33930  0.58946  1.0000
  H   H499      1.0  0.35534  0.34946  0.54298  1.0000
  H   H500      1.0  0.43373  0.24951  0.84739  1.0000
  H   H501      1.0  0.29017  0.34587  0.53624  1.0000
  C   C631      1.0  0.40412  0.27471  0.73951  1.0000
  C   C632      1.0  0.39323  0.27620  0.64425  1.0000
  H   H502      1.0  0.04324  0.40585  0.80512  1.0000
  C   C633      1.0  0.03867  0.26960  0.93837  1.0000
  C   C634      1.0  0.08152  0.25053  0.90637  1.0000
  H   H503      1.0  0.01468  0.34998  0.68782  1.0000
  H   H504      1.0  0.05482  0.46720  0.77720  1.0000
  C   C635      1.0  0.10391  0.38497  0.71315  1.0000
  H   H505      1.0  0.01791  0.29262  0.92366  1.0000
  H   H506      1.0  0.30331  0.29632  0.59366  1.0000
  C   C636      1.0  0.37280  0.25668  0.68580  1.0000
  H   H507      1.0  0.44720  0.24521  0.73099  1.0000
  C   C637      1.0  0.22300  0.32952  0.55098  1.0000
  H   H508      1.0  0.44296  0.33713  0.68765  1.0000
  C   C638      1.0  0.41787  0.48418  0.86529  1.0000
  S   S93       1.0  0.01006  0.26202  0.87965  1.0000
  C   C639      1.0  0.27794  0.44971  0.50020  1.0000
  C   C640      1.0  0.27683  0.27794  0.64628  1.0000
  H   H509      1.0  0.40136  0.29896  0.67148  1.0000
  C   C641      1.0  0.41148  0.49437  0.75423  1.0000
  H   H510      1.0  0.23365  0.34495  0.58435  1.0000
  C   C642      1.0  0.40338  0.47311  0.88001  1.0000
  C   C643      1.0  0.01274  0.36497  0.69625  1.0000
  H   H511      1.0  0.07361  0.47445  0.65856  1.0000
  H   H512      1.0  0.22944  0.48433  0.59776  1.0000
  C   C644      1.0  0.40736  0.28725  0.92265  1.0000
  C   C645      1.0  0.39832  0.30107  0.93999  1.0000
  H   H513      1.0  0.37137  0.46614  0.88567  1.0000
  C   C646      1.0  0.32387  0.48378  0.54274  1.0000
  C   C647      1.0  0.47751  0.26362  0.87612  1.0000
  S   S94       1.0  0.99758  0.35866  0.82195  1.0000
  H   H514      1.0  0.38168  0.29157  0.82450  1.0000
  H   H515      1.0  0.41354  0.34991  0.66197  1.0000
  C   C648      1.0  0.38192  0.27659  0.83387  1.0000
  H   H516      1.0  0.02808  0.26385  0.82687  1.0000
  H   H517      1.0  0.40524  0.31585  0.94281  1.0000
  C   C649      1.0  0.04527  0.43653  0.68765  1.0000
  C   C650      1.0  0.42108  0.38165  0.66612  1.0000
  H   H518      1.0  0.25855  0.46514  0.57743  1.0000
  C   C651      1.0  0.35773  0.26021  0.75087  1.0000
  C   C652      1.0  0.39861  0.26797  0.91916  1.0000
  P   P20       1.0  0.40971  0.25013  0.89631  1.0000
  C   C653      1.0  0.48462  0.42781  0.63041  1.0000
  C   C654      1.0  0.02703  0.39759  0.70826  1.0000
  H   H519      1.0  0.46862  0.45418  0.77670  1.0000
  H   H520      1.0  0.44632  0.24630  0.77902  1.0000
  H   H521      1.0  0.42102  0.29180  0.91185  1.0000
  H   H522      1.0  0.33668  0.43313  0.53843  1.0000
  C   C655      1.0  0.08555  0.39484  0.72028  1.0000
  S   S95       1.0  0.32001  0.25432  0.68850  1.0000
  C   C656      1.0  0.02940  0.37821  0.69711  1.0000
  H   H523      1.0  0.48714  0.47329  0.66103  1.0000
  C   C657      1.0  0.27820  0.42128  0.53104  1.0000
  H   H524      1.0  0.00881  0.46412  0.65527  1.0000
  H   H525      1.0  0.07741  0.44458  0.68791  1.0000
  C   C658      1.0  0.33319  0.44871  0.53212  1.0000
  H   H526      1.0  0.28177  0.41522  0.55016  1.0000
  C   C659      1.0  0.47602  0.42355  0.67634  1.0000
  C   C660      1.0  0.45430  0.36732  0.69501  1.0000
  H   H527      1.0  0.03938  0.48458  0.64248  1.0000
  H   H528      1.0  0.31534  0.46541  0.65078  1.0000
  H   H529      1.0  0.44712  0.47020  0.82339  1.0000
  H   H530      1.0  0.40105  0.28380  0.62809  1.0000
  H   H531      1.0  0.36993  0.24891  0.74904  1.0000
  H   H532      1.0  0.12321  0.37458  0.68151  1.0000
  S   S96       1.0  0.21637  0.48873  0.65205  1.0000
  H   H533      1.0  0.36029  0.26380  0.80806  1.0000
  H   H534      1.0  0.11434  0.37965  0.72795  1.0000
  C   C661      1.0  0.43486  0.25463  0.76796  1.0000
  C   C662      1.0  0.10891  0.38211  0.68699  1.0000
  H   H535      1.0  0.08216  0.39702  0.74065  1.0000
  H   H536      1.0  0.30307  0.26699  0.62456  1.0000
  C   C663      1.0  0.26276  0.31338  0.54617  1.0000
  C   C664      1.0  0.37284  0.24810  0.66119  1.0000
  C   C665      1.0  0.07201  0.40191  0.70121  1.0000
  H   H537      1.0  0.36013  0.48879  0.84940  1.0000
  C   C666      1.0  0.44069  0.35345  0.68454  1.0000
  H   H538      1.0  0.09944  0.38696  0.64761  1.0000
  C   C667      1.0  0.47900  0.44458  0.67958  1.0000
  C   C668      1.0  0.34592  0.47583  0.64179  1.0000
  H   H539      1.0  0.42040  0.26285  0.70578  1.0000
  H   H540      1.0  0.39200  0.28393  0.77689  1.0000
  C   C669      1.0  0.05261  0.45108  0.77352  1.0000
  H   H541      1.0  0.05537  0.45526  0.73245  1.0000
  H   H542      1.0  0.00271  0.42363  0.77274  1.0000
  C   C670      1.0  0.31649  0.48329  0.61529  1.0000
  C   C671      1.0  0.29156  0.27904  0.62627  1.0000
  C   C672      1.0  0.38301  0.25786  0.64040  1.0000
  P   P21       1.0  0.38321  0.28619  0.72172  1.0000
  C   C673      1.0  0.35975  0.27972  0.73920  1.0000
  C   C674      1.0  0.38561  0.31372  0.71857  1.0000
  C   C675      1.0  0.37312  0.32466  0.70121  1.0000
  C   C676      1.0  0.37404  0.34600  0.69923  1.0000
  C   C677      1.0  0.38766  0.35663  0.71439  1.0000
  C   C678      1.0  0.40048  0.34587  0.73138  1.0000
  C   C679      1.0  0.39946  0.32447  0.73353  1.0000
  C   C680      1.0  0.32435  0.48895  0.51616  1.0000
  H   H543      1.0  0.04854  0.44261  0.81385  1.0000
  C   C681      1.0  0.32379  0.26927  0.76705  1.0000
  C   C682      1.0  0.32568  0.28873  0.75564  1.0000
  C   C683      1.0  0.34354  0.29395  0.74171  1.0000
  C   C684      1.0  0.04918  0.43724  0.79410  1.0000
  H   H544      1.0  0.47646  0.45165  0.69814  1.0000
  P   P22       1.0  0.04831  0.41495  0.70985  1.0000
  C   C685      1.0  0.04622  0.41653  0.78916  1.0000
  C   C686      1.0  0.43644  0.41657  0.73759  1.0000
  C   C687      1.0  0.99903  0.39488  0.79391  1.0000
  H   H545      1.0  0.40825  0.46354  0.89617  1.0000
  H   H546      1.0  0.36398  0.35430  0.68611  1.0000
  H   H547      1.0  0.38833  0.37321  0.71277  1.0000
  H   H548      1.0  0.41115  0.35415  0.74293  1.0000
  H   H549      1.0  0.40939  0.31646  0.74692  1.0000
  H   H550      1.0  0.04329  0.39373  0.76012  1.0000
  H   H551      1.0  0.36231  0.31667  0.68958  1.0000
  H   H552      1.0  0.30975  0.26514  0.77737  1.0000
  H   H553      1.0  0.31307  0.29963  0.75698  1.0000
  H   H554      1.0  0.34430  0.30898  0.73266  1.0000
  P   P23       1.0  0.46900  0.40682  0.70337  1.0000
  H   H555      1.0  0.35263  0.46828  0.65856  1.0000
  H   H556      1.0  0.02389  0.31671  0.95931  1.0000
  H   H557      1.0  0.03547  0.25917  0.92299  1.0000
  H   H558      1.0  0.43213  0.41181  0.67308  1.0000
  C   C688      1.0  0.38029  0.29591  0.95357  1.0000
  H   H559      1.0  0.28797  0.45162  0.53967  1.0000
  C   C689      1.0  0.27012  0.40860  0.51239  1.0000
  H   H560      1.0  0.40319  0.48189  0.74594  1.0000
  H   H561      1.0  0.40827  0.48275  0.79317  1.0000
  H   H562      1.0  0.32428  0.35267  0.51656  1.0000
  C   C690      1.0  0.42757  0.42665  0.75882  1.0000
  C   C691      1.0  0.47971  0.47294  0.82620  1.0000
  C   C692      1.0  0.49131  0.38611  0.74138  1.0000
  C   C693      1.0  0.43526  0.25392  0.74090  1.0000
  C   C694      1.0  0.39453  0.25361  0.86770  1.0000
  H   H563      1.0  0.41166  0.42400  0.76418  1.0000
  C   C695      1.0  0.44967  0.26094  0.90783  1.0000
  H   H564      1.0  0.43081  0.48344  0.64149  1.0000
  C   C696      1.0  0.03493  0.25109  0.83733  1.0000
  H   H565      1.0  0.48445  0.43640  0.73966  1.0000
  H   H566      1.0  0.38277  0.25127  0.62130  1.0000
  C   C697      1.0  0.38012  0.26320  0.93222  1.0000
  C   C698      1.0  0.33374  0.45395  0.50576  1.0000
  C   C699      1.0  0.43616  0.25572  0.88830  1.0000
  H   H567      1.0  0.25159  0.29723  0.51342  1.0000
  C   C700      1.0  0.02891  0.24702  0.86307  1.0000
  C   C701      1.0  0.44364  0.25413  0.86268  1.0000
  H   H568      1.0  0.30040  0.48124  0.61188  1.0000
  H   H569      1.0  0.49353  0.26645  0.87146  1.0000
  C   C702      1.0  0.09535  0.24894  0.88540  1.0000
  C   C703      1.0  0.99636  0.41617  0.78989  1.0000
  H   H570      1.0  0.10290  0.25595  0.97966  1.0000
  C   C704      1.0  0.02387  0.45947  0.66187  1.0000
  H   H571      1.0  0.47009  0.25620  0.83700  1.0000
  C   C705      1.0  0.37627  0.48734  0.85368  1.0000
  H   H572      1.0  0.99845  0.34792  0.76578  1.0000
  S   S97       1.0  0.45367  0.49396  0.68654  1.0000
  C   C706      1.0  0.32888  0.49397  0.59717  1.0000
  C   C707      1.0  0.35838  0.48664  0.62407  1.0000
  H   H573      1.0  0.04809  0.30715  0.99401  1.0000
  H   H574      1.0  0.37469  0.48756  0.62732  1.0000
  C   C708      1.0  0.36981  0.26096  0.82463  1.0000
  H   H575      1.0  0.49199  0.45852  0.61755  1.0000
  C   C709      1.0  0.09635  0.24464  0.99297  1.0000
  H   H576      1.0  0.46903  0.24545  0.95754  1.0000
  H   H577      1.0  0.20861  0.26591  0.99337  1.0000
  H   H578      1.0  0.10194  0.68591  0.00737  1.0000
  H   H579      1.0  0.39840  0.56465  0.25777  1.0000
  C   C710      1.0  0.00714  0.73893  0.00913  1.0000
  Fe  Fe47      1.0  0.41264  0.65161  0.14876  1.0000
  S   S98       1.0  0.41370  0.68344  0.16499  1.0000
  S   S99       1.0  0.41732  0.62481  0.17790  1.0000
  Fe  Fe48      1.0  0.39882  0.66850  0.09523  1.0000
  S   S100      1.0  0.39887  0.70114  0.10845  1.0000
  S   S101      1.0  0.38584  0.66109  0.05554  1.0000
  Fe  Fe49      1.0  0.42872  0.69265  0.12697  1.0000
  S   S102      1.0  0.45862  0.71000  0.12031  1.0000
  Fe  Fe50      1.0  0.38341  0.68932  0.14541  1.0000
  S   S103      1.0  0.35743  0.70765  0.16589  1.0000
  S   S104      1.0  0.42964  0.66036  0.11173  1.0000
  S   S105      1.0  0.38154  0.65721  0.13119  1.0000
  C   C711      1.0  0.11488  0.61489  0.35434  1.0000
  S   S106      1.0  0.04187  0.70970  0.10956  1.0000
  Fe  Fe51      1.0  0.03579  0.65039  0.12037  1.0000
  S   S107      1.0  0.06609  0.66534  0.11103  1.0000
  H   H580      1.0  0.17228  0.60788  0.42222  1.0000
  Fe  Fe52      1.0  0.05629  0.68904  0.13971  1.0000
  S   S108      1.0  0.07563  0.69782  0.17403  1.0000
  Fe  Fe53      1.0  0.04932  0.68449  0.08131  1.0000
  S   S109      1.0  0.06204  0.69531  0.04173  1.0000
  S   S110      1.0  0.02659  0.67335  0.15052  1.0000
  C   C712      1.0  0.08026  0.55072  0.38323  1.0000
  S   S111      1.0  0.20945  0.53656  0.38106  1.0000
  Fe  Fe54      1.0  0.16068  0.53212  0.33829  1.0000
  S   S112      1.0  0.16664  0.55978  0.36243  1.0000
  Fe  Fe55      1.0  0.01296  0.69229  0.11792  1.0000
  Fe  Fe56      1.0  0.19909  0.55688  0.34742  1.0000
  S   S113      1.0  0.21781  0.58306  0.32912  1.0000
  Fe  Fe57      1.0  0.17630  0.53742  0.39411  1.0000
  S   S114      1.0  0.16279  0.53651  0.43553  1.0000
  S   S115      1.0  0.19289  0.53016  0.32196  1.0000
  Fe  Fe58      1.0  0.23647  0.70406  0.22284  1.0000
  S   S116      1.0  0.22925  0.70967  0.26532  1.0000
  S   S117      1.0  0.26529  0.68766  0.20542  1.0000
  Fe  Fe59      1.0  0.19165  0.71507  0.20823  1.0000
  S   S118      1.0  0.18181  0.72149  0.24928  1.0000
  S   S119      1.0  0.17121  0.71735  0.17290  1.0000
  C   C713      1.0  0.41360  0.52526  0.21056  1.0000
  Fe  Fe60      1.0  0.19984  0.69264  0.25932  1.0000
  S   S120      1.0  0.18336  0.66876  0.28521  1.0000
  C   C714      1.0  0.13756  0.58058  0.45818  1.0000
  S   S121      1.0  0.20776  0.68550  0.21801  1.0000
  S   S122      1.0  0.00529  0.55422  0.21470  1.0000
  H   H581      1.0  0.06829  0.56140  0.37774  1.0000
  S   S123      1.0  0.01974  0.66791  0.08823  1.0000
  C   C715      1.0  0.01678  0.60558  0.17074  1.0000
  H   H582      1.0  0.39935  0.60103  0.27090  1.0000
  H   H583      1.0  0.03310  0.54806  0.16951  1.0000
  H   H584      1.0  0.05681  0.62175  0.44974  1.0000
  C   C716      1.0  0.48169  0.67258  0.18854  1.0000
  H   H585      1.0  0.00472  0.74339  0.12896  1.0000
  C   C717      1.0  0.20747  0.60619  0.31567  1.0000
  C   C718      1.0  0.18750  0.61293  0.32164  1.0000
  C   C719      1.0  0.18044  0.63209  0.31212  1.0000
  C   C720      1.0  0.19302  0.64457  0.29613  1.0000
  C   C721      1.0  0.21278  0.63761  0.28960  1.0000
  C   C722      1.0  0.22003  0.61864  0.29957  1.0000
  H   H586      1.0  0.17769  0.60362  0.33412  1.0000
  H   H587      1.0  0.16520  0.63740  0.31740  1.0000
  H   H588      1.0  0.22248  0.64688  0.27696  1.0000
  H   H589      1.0  0.23550  0.61363  0.29491  1.0000
  C   C723      1.0  0.19322  0.54833  0.46933  1.0000
  C   C724      1.0  0.17359  0.54038  0.46648  1.0000
  H   H590      1.0  0.36660  0.65976  0.00618  1.0000
  H   H591      1.0  0.20239  0.55229  0.45230  1.0000
  H   H592      1.0  0.14538  0.60542  0.38991  1.0000
  C   C725      1.0  0.02957  0.59869  0.15054  1.0000
  C   C726      1.0  0.04975  0.61425  0.38554  1.0000
  H   H593      1.0  0.37379  0.62588  0.25460  1.0000
  C   C727      1.0  0.01539  0.57087  0.18990  1.0000
  C   C728      1.0  0.12149  0.58000  0.34103  1.0000
  H   H594      1.0  0.07416  0.52471  0.18205  1.0000
  C   C729      1.0  0.10220  0.70330  0.17321  1.0000
  C   C730      1.0  0.11281  0.70350  0.19664  1.0000
  C   C731      1.0  0.13399  0.70753  0.19682  1.0000
  C   C732      1.0  0.14461  0.71202  0.17364  1.0000
  C   C733      1.0  0.13388  0.71232  0.15032  1.0000
  C   C734      1.0  0.11284  0.70776  0.15002  1.0000
  H   H595      1.0  0.10470  0.70011  0.21467  1.0000
  H   H596      1.0  0.14219  0.70694  0.21479  1.0000
  H   H597      1.0  0.14195  0.71601  0.13240  1.0000
  H   H598      1.0  0.10481  0.70788  0.13193  1.0000
  H   H599      1.0  0.20389  0.61411  0.05722  1.0000
  C   C735      1.0  0.05641  0.68391  0.01172  1.0000
  C   C736      1.0  0.05187  0.66311  0.01025  1.0000
  H   H600      1.0  0.17657  0.51812  0.22234  1.0000
  C   C737      1.0  0.39697  0.51872  0.22606  1.0000
  C   C738      1.0  0.39615  0.66322  0.02332  1.0000
  C   C739      1.0  0.41710  0.66566  0.01802  1.0000
  H   H601      1.0  0.44605  0.53113  0.20894  1.0000
  H   H602      1.0  0.42759  0.66653  0.03388  1.0000
  C   C740      1.0  0.33174  0.70178  0.17636  1.0000
  C   C741      1.0  0.32035  0.71639  0.19064  1.0000
  C   C742      1.0  0.29996  0.71260  0.19926  1.0000
  C   C743      1.0  0.29055  0.69410  0.19364  1.0000
  C   C744      1.0  0.30186  0.67961  0.17906  1.0000
  C   C745      1.0  0.32231  0.68330  0.17066  1.0000
  H   H603      1.0  0.32737  0.73078  0.19512  1.0000
  H   H604      1.0  0.29160  0.72396  0.21038  1.0000
  H   H605      1.0  0.29468  0.66544  0.17405  1.0000
  H   H606      1.0  0.33072  0.67194  0.15959  1.0000
  C   C746      1.0  0.46662  0.57391  0.19045  1.0000
  C   C747      1.0  0.46758  0.58685  0.16827  1.0000
  C   C748      1.0  0.45277  0.60250  0.16407  1.0000
  C   C749      1.0  0.43663  0.60541  0.18201  1.0000
  C   C750      1.0  0.43568  0.59251  0.20420  1.0000
  C   C751      1.0  0.45053  0.57693  0.20843  1.0000
  C   C752      1.0  0.01077  0.73038  0.03365  1.0000
  H   H607      1.0  0.45375  0.61218  0.14686  1.0000
  H   H608      1.0  0.42334  0.59460  0.21827  1.0000
  H   H609      1.0  0.44947  0.56722  0.22555  1.0000
  C   C753      1.0  0.09961  0.55760  0.39039  1.0000
  S   S124      1.0  0.03633  0.49994  0.22903  1.0000
  H   H610      1.0  0.47982  0.58463  0.15409  1.0000
  C   C754      1.0  0.08007  0.51515  0.28370  1.0000
  H   H611      1.0  0.13593  0.57292  0.47692  1.0000
  H   H612      1.0  0.37140  0.64966  0.19569  1.0000
  H   H613      1.0  0.36449  0.70554  0.03374  1.0000
  C   C755      1.0  0.08073  0.53985  0.18016  1.0000
  H   H614      1.0  0.10550  0.53254  0.26831  1.0000
  C   C756      1.0  0.36400  0.73246  0.05791  1.0000
  C   C757      1.0  0.11201  0.52073  0.30653  1.0000
  H   H615      1.0  0.19046  0.60425  0.10098  1.0000
  H   H616      1.0  0.45739  0.65184  0.17989  1.0000
  C   C758      1.0  0.15810  0.60020  0.42730  1.0000
  Fe  Fe61      1.0  0.48652  0.49658  0.26563  1.0000
  C   C759      1.0  0.36156  0.61218  0.17194  1.0000
  C   C760      1.0  0.03553  0.57786  0.15043  1.0000
  H   H617      1.0  0.10215  0.57212  0.13498  1.0000
  H   H618      1.0  0.13045  0.73789  0.06412  1.0000
  C   C761      1.0  0.34522  0.70665  0.09534  1.0000
  H   H619      1.0  0.47179  0.63665  0.26222  1.0000
  H   H620      1.0  0.35525  0.53937  0.29588  1.0000
  H   H621      1.0  0.26671  0.64095  0.22532  1.0000
  C   C762      1.0  0.35066  0.69914  0.07093  1.0000
  H   H622      1.0  0.20150  0.50924  0.45026  1.0000
  C   C763      1.0  0.12780  0.73849  0.25914  1.0000
  H   H623      1.0  0.30275  0.64674  0.21278  1.0000
  C   C764      1.0  0.12456  0.58817  0.41519  1.0000
  C   C765      1.0  0.34754  0.53490  0.27859  1.0000
  H   H624      1.0  0.47188  0.62308  0.20543  1.0000
  C   C766      1.0  0.13415  0.69297  0.00664  1.0000
  H   H625      1.0  0.16345  0.72203  0.07748  1.0000
  H   H626      1.0  0.24574  0.73482  0.34236  1.0000
  H   H627      1.0  0.32550  0.65069  0.25741  1.0000
  C   C767      1.0  0.29869  0.63260  0.22273  1.0000
  C   C768      1.0  0.47168  0.65379  0.18990  1.0000
  H   H628      1.0  0.31215  0.62980  0.17372  1.0000
  C   C769      1.0  0.45416  0.61177  0.27829  1.0000
  H   H629      1.0  0.02398  0.72043  0.03665  1.0000
  H   H630      1.0  0.41155  0.52915  0.19027  1.0000
  H   H631      1.0  0.31939  0.58843  0.24740  1.0000
  H   H632      1.0  0.28338  0.58343  0.26133  1.0000
  C   C770      1.0  0.12222  0.57893  0.43988  1.0000
  C   C771      1.0  0.35834  0.73991  0.08247  1.0000
  H   H633      1.0  0.33842  0.69659  0.11004  1.0000
  C   C772      1.0  0.04578  0.62086  0.41076  1.0000
  C   C773      1.0  0.19694  0.73478  0.32093  1.0000
  C   C774      1.0  0.08202  0.59888  0.39915  1.0000
  H   H634      1.0  0.17000  0.52080  0.26969  1.0000
  H   H635      1.0  0.07598  0.54623  0.22032  1.0000
  H   H636      1.0  0.25565  0.72779  0.42732  1.0000
  H   H637      1.0  0.04726  0.57671  0.23082  1.0000
  H   H638      1.0  0.02669  0.55985  0.26544  1.0000
  P   P24       1.0  0.10518  0.58464  0.39113  1.0000
  H   H639      1.0  0.12130  0.56361  0.34472  1.0000
  H   H640      1.0  0.99618  0.51037  0.14725  1.0000
  H   H641      1.0  0.04549  0.57236  0.13499  1.0000
  H   H642      1.0  0.05007  0.65402  0.02786  1.0000
  H   H643      1.0  0.11399  0.50604  0.34392  1.0000
  C   C775      1.0  0.39961  0.51368  0.25238  1.0000
  C   C776      1.0  0.15553  0.59111  0.45187  1.0000
  C   C777      1.0  0.11431  0.59373  0.35979  1.0000
  C   C778      1.0  0.39623  0.52829  0.34134  1.0000
  H   H644      1.0  0.33502  0.68612  0.26695  1.0000
  C   C779      1.0  0.11496  0.54312  0.39639  1.0000
  H   H645      1.0  0.34507  0.73270  0.12018  1.0000
  H   H646      1.0  0.34995  0.61417  0.10801  1.0000
  C   C780      1.0  0.27274  0.61176  0.24413  1.0000
  C   C781      1.0  0.12967  0.58736  0.31744  1.0000
  C   C782      1.0  0.13028  0.60840  0.31216  1.0000
  C   C783      1.0  0.12279  0.62217  0.33056  1.0000
  H   H647      1.0  0.13580  0.57667  0.30342  1.0000
  H   H648      1.0  0.13690  0.61405  0.29401  1.0000
  H   H649      1.0  0.12353  0.63851  0.32655  1.0000
  C   C784      1.0  0.09746  0.57901  0.17537  1.0000
  C   C785      1.0  0.08950  0.57218  0.19948  1.0000
  P   P25       1.0  0.09010  0.58885  0.22701  1.0000
  C   C786      1.0  0.11681  0.59114  0.23522  1.0000
  C   C787      1.0  0.07831  0.61337  0.21951  1.0000
  C   C788      1.0  0.07952  0.62942  0.23715  1.0000
  C   C789      1.0  0.07065  0.64855  0.23143  1.0000
  C   C790      1.0  0.06018  0.65166  0.20834  1.0000
  C   C791      1.0  0.05844  0.63561  0.19107  1.0000
  C   C792      1.0  0.06721  0.61647  0.19673  1.0000
  C   C793      1.0  0.12775  0.57376  0.24381  1.0000
  C   C794      1.0  0.14822  0.57529  0.25092  1.0000
  C   C795      1.0  0.15810  0.59414  0.24896  1.0000
  C   C796      1.0  0.14762  0.61137  0.23938  1.0000
  C   C797      1.0  0.12709  0.60988  0.23234  1.0000
  C   C798      1.0  0.07478  0.57820  0.25349  1.0000
  C   C799      1.0  0.05415  0.57355  0.24944  1.0000
  C   C800      1.0  0.09651  0.56656  0.15368  1.0000
  C   C801      1.0  0.05100  0.55948  0.29309  1.0000
  C   C802      1.0  0.07126  0.56484  0.29766  1.0000
  C   C803      1.0  0.08310  0.57424  0.27798  1.0000
  H   H650      1.0  0.10394  0.59417  0.17325  1.0000
  H   H651      1.0  0.08739  0.62714  0.25525  1.0000
  H   H652      1.0  0.07183  0.66102  0.24484  1.0000
  H   H653      1.0  0.05330  0.66647  0.20383  1.0000
  H   H654      1.0  0.05009  0.63791  0.17331  1.0000
  H   H655      1.0  0.06494  0.60419  0.18336  1.0000
  H   H656      1.0  0.12035  0.55904  0.24538  1.0000
  H   H657      1.0  0.15629  0.56189  0.25843  1.0000
  H   H658      1.0  0.17388  0.59542  0.25491  1.0000
  H   H659      1.0  0.15541  0.62594  0.23762  1.0000
  H   H660      1.0  0.11944  0.62335  0.22460  1.0000
  H   H661      1.0  0.04206  0.55146  0.30796  1.0000
  H   H662      1.0  0.07804  0.56100  0.31613  1.0000
  H   H663      1.0  0.09878  0.57795  0.28191  1.0000
  C   C804      1.0  0.11306  0.71057  0.07191  1.0000
  C   C805      1.0  0.13102  0.72200  0.07050  1.0000
  C   C806      1.0  0.14961  0.71301  0.07782  1.0000
  C   C807      1.0  0.15027  0.69257  0.08643  1.0000
  C   C808      1.0  0.13235  0.68086  0.08742  1.0000
  C   C809      1.0  0.11368  0.69018  0.08060  1.0000
  P   P26       1.0  0.13335  0.65468  0.09941  1.0000
  C   C810      1.0  0.11232  0.63968  0.08817  1.0000
  C   C811      1.0  0.15587  0.64204  0.08621  1.0000
  C   C812      1.0  0.16325  0.64719  0.06119  1.0000
  C   C813      1.0  0.18056  0.63720  0.05083  1.0000
  H   H664      1.0  0.13585  0.69014  0.02722  1.0000
  C   C814      1.0  0.18290  0.61628  0.08991  1.0000
  C   C815      1.0  0.16557  0.62623  0.10030  1.0000
  C   C816      1.0  0.10407  0.62373  0.10364  1.0000
  C   C817      1.0  0.08731  0.61274  0.09518  1.0000
  C   C818      1.0  0.07912  0.61707  0.07089  1.0000
  C   C819      1.0  0.08805  0.63202  0.05471  1.0000
  C   C820      1.0  0.10468  0.64319  0.06320  1.0000
  C   C821      1.0  0.13448  0.65579  0.13435  1.0000
  C   C822      1.0  0.11662  0.65433  0.14994  1.0000
  C   C823      1.0  0.11777  0.65489  0.17693  1.0000
  C   C824      1.0  0.13664  0.65767  0.18855  1.0000
  C   C825      1.0  0.15436  0.66004  0.17316  1.0000
  C   C826      1.0  0.15329  0.65920  0.14617  1.0000
  H   H665      1.0  0.09852  0.71750  0.06653  1.0000
  H   H666      1.0  0.34583  0.57789  0.21168  1.0000
  H   H667      1.0  0.36249  0.70339  0.24101  1.0000
  H   H668      1.0  0.16469  0.68603  0.09276  1.0000
  H   H669      1.0  0.09948  0.68187  0.08201  1.0000
  H   H670      1.0  0.15560  0.65886  0.04964  1.0000
  H   H671      1.0  0.99968  0.59727  0.20557  1.0000
  H   H672      1.0  0.25690  0.60949  0.25021  1.0000
  C   C827      1.0  0.99746  0.73480  0.05440  1.0000
  H   H673      1.0  0.15975  0.62155  0.11929  1.0000
  H   H674      1.0  0.11025  0.61995  0.12241  1.0000
  H   H675      1.0  0.08021  0.60122  0.10772  1.0000
  H   H676      1.0  0.06572  0.60896  0.06476  1.0000
  H   H677      1.0  0.08186  0.63522  0.03573  1.0000
  H   H678      1.0  0.11127  0.65479  0.05040  1.0000
  H   H679      1.0  0.10172  0.65327  0.14139  1.0000
  H   H680      1.0  0.10383  0.65426  0.18871  1.0000
  H   H681      1.0  0.13740  0.65908  0.20939  1.0000
  H   H682      1.0  0.16881  0.66335  0.18210  1.0000
  H   H683      1.0  0.16711  0.66164  0.13459  1.0000
  C   C828      1.0  0.29127  0.70446  0.28975  1.0000
  C   C829      1.0  0.28704  0.69070  0.27022  1.0000
  C   C830      1.0  0.27155  0.67633  0.27408  1.0000
  C   C831      1.0  0.26028  0.67564  0.29741  1.0000
  C   C832      1.0  0.26468  0.68911  0.31734  1.0000
  C   C833      1.0  0.28001  0.70381  0.31315  1.0000
  P   P27       1.0  0.24828  0.69005  0.34593  1.0000
  C   C834      1.0  0.23900  0.66507  0.35581  1.0000
  C   C835      1.0  0.26216  0.69898  0.37323  1.0000
  C   C836      1.0  0.25242  0.71143  0.39179  1.0000
  C   C837      1.0  0.26319  0.71805  0.41315  1.0000
  C   C838      1.0  0.28363  0.71205  0.41631  1.0000
  C   C839      1.0  0.29328  0.69929  0.39821  1.0000
  C   C840      1.0  0.28255  0.69265  0.37681  1.0000
  C   C841      1.0  0.22078  0.66334  0.37067  1.0000
  C   C842      1.0  0.21334  0.64405  0.37806  1.0000
  C   C843      1.0  0.22429  0.62638  0.37121  1.0000
  C   C844      1.0  0.24280  0.62798  0.35727  1.0000
  C   C845      1.0  0.25026  0.64725  0.34978  1.0000
  C   C846      1.0  0.22777  0.70751  0.33746  1.0000
  C   C847      1.0  0.20906  0.70009  0.32887  1.0000
  C   C848      1.0  0.16985  0.50538  0.23311  1.0000
  H   H684      1.0  0.07074  0.51782  0.26687  1.0000
  H   H685      1.0  0.06602  0.73671  0.20546  1.0000
  C   C849      1.0  0.23109  0.72873  0.33707  1.0000
  H   H686      1.0  0.30276  0.71609  0.28634  1.0000
  H   H687      1.0  0.29518  0.69165  0.25169  1.0000
  H   H688      1.0  0.26759  0.66644  0.25842  1.0000
  H   H689      1.0  0.24760  0.66518  0.29948  1.0000
  H   H690      1.0  0.28286  0.71519  0.32758  1.0000
  H   H691      1.0  0.23650  0.71597  0.38987  1.0000
  C   C850      1.0  0.48200  0.71937  0.02051  1.0000
  H   H692      1.0  0.29195  0.71719  0.43289  1.0000
  H   H693      1.0  0.30906  0.69448  0.40080  1.0000
  H   H694      1.0  0.29013  0.68257  0.36309  1.0000
  H   H695      1.0  0.21216  0.67689  0.37626  1.0000
  H   H696      1.0  0.19897  0.64275  0.38882  1.0000
  H   H697      1.0  0.21831  0.61137  0.37633  1.0000
  H   H698      1.0  0.25105  0.61417  0.35175  1.0000
  H   H699      1.0  0.26468  0.64813  0.33909  1.0000
  H   H700      1.0  0.20655  0.68380  0.32747  1.0000
  C   C851      1.0  0.34453  0.51328  0.24126  1.0000
  C   C852      1.0  0.39254  0.52584  0.31499  1.0000
  H   H701      1.0  0.43985  0.58399  0.29233  1.0000
  C   C853      1.0  0.44646  0.71949  0.00789  1.0000
  C   C854      1.0  0.21565  0.74230  0.32899  1.0000
  C   C855      1.0  0.00977  0.59175  0.19024  1.0000
  C   C856      1.0  0.37443  0.73968  0.00169  1.0000
  C   C857      1.0  0.47095  0.62017  0.26476  1.0000
  H   H702      1.0  0.47522  0.68519  0.17726  1.0000
  C   C858      1.0  0.05989  0.61661  0.43017  1.0000
  H   H703      1.0  0.14669  0.52933  0.48703  1.0000
  C   C859      1.0  0.27825  0.62949  0.23025  1.0000
  H   H704      1.0  0.37463  0.60891  0.18399  1.0000
  C   C860      1.0  0.38282  0.66173  0.00236  1.0000
  C   C861      1.0  0.08163  0.55226  0.20187  1.0000
  S   S125      1.0  0.16766  0.51007  0.37085  1.0000
  C   C862      1.0  0.30813  0.59994  0.24226  1.0000
  H   H705      1.0  0.31680  0.62656  0.12669  1.0000
  H   H706      1.0  0.39823  0.71682  0.00768  1.0000
  C   C863      1.0  0.31377  0.61768  0.22812  1.0000
  C   C864      1.0  0.19045  0.62182  0.06524  1.0000
  H   H707      1.0  0.08859  0.60271  0.43981  1.0000
  H   H708      1.0  0.13023  0.54794  0.40109  1.0000
  H   H709      1.0  0.08701  0.53750  0.13918  1.0000
  C   C865      1.0  0.32965  0.54546  0.27160  1.0000
  H   H710      1.0  0.40418  0.54169  0.34774  1.0000
  C   C866      1.0  0.02854  0.56402  0.17000  1.0000
  H   H711      1.0  0.17944  0.70781  0.31369  1.0000
  C   C867      1.0  0.45283  0.59056  0.28187  1.0000
  H   H712      1.0  0.44219  0.62172  0.28593  1.0000
  H   H713      1.0  0.06123  0.52445  0.37755  1.0000
  C   C868      1.0  0.13545  0.73227  0.30434  1.0000
  C   C869      1.0  0.34902  0.72703  0.10107  1.0000
  H   H714      1.0  0.00046  0.72839  0.07350  1.0000
  C   C870      1.0  0.19365  0.71369  0.32087  1.0000
  C   C871      1.0  0.28769  0.59705  0.25028  1.0000
  C   C872      1.0  0.14270  0.59877  0.40900  1.0000
  H   H715      1.0  0.10880  0.56994  0.44477  1.0000
  H   H716      1.0  0.42510  0.70690  0.03635  1.0000
  H   H717      1.0  0.38086  0.68483  0.20615  1.0000
  Fe  Fe62      1.0  0.00816  0.52022  0.22639  1.0000
  H   H718      1.0  0.38221  0.51740  0.21727  1.0000
  C   C873      1.0  0.11072  0.52221  0.39675  1.0000
  C   C874      1.0  0.07613  0.52974  0.38324  1.0000
  C   C875      1.0  0.16624  0.50688  0.25979  1.0000
  H   H719      1.0  0.03880  0.61752  0.37047  1.0000
  H   H720      1.0  0.39748  0.53759  0.30124  1.0000
  Fe  Fe63      1.0  0.20051  0.51011  0.35640  1.0000
  H   H721      1.0  0.07060  0.59830  0.36006  1.0000
  S   S126      1.0  0.03844  0.61533  0.12499  1.0000
  C   C876      1.0  0.04240  0.56404  0.26908  1.0000
  H   H722      1.0  0.18628  0.64132  0.03159  1.0000
  S   S127      1.0  0.22072  0.73338  0.20997  1.0000
  H   H723      1.0  0.37867  0.60527  0.13700  1.0000
  H   H724      1.0  0.10955  0.62575  0.36868  1.0000
  C   C877      1.0  0.07795  0.60569  0.42443  1.0000
  S   S128      1.0  0.13620  0.53282  0.30712  1.0000
  H   H725      1.0  0.03176  0.62925  0.41528  1.0000
  H   H726      1.0  0.46707  0.56130  0.27435  1.0000
  C   C878      1.0  0.43588  0.52123  0.24710  1.0000
  H   H727      1.0  0.45147  0.69901  0.06853  1.0000
  C   C879      1.0  0.09980  0.52359  0.28462  1.0000
  C   C880      1.0  0.07239  0.50351  0.30466  1.0000
  C   C881      1.0  0.08801  0.54704  0.15604  1.0000
  C   C882      1.0  0.45588  0.70602  0.05007  1.0000
  H   H728      1.0  0.37132  0.55327  0.22850  1.0000
  Fe  Fe64      1.0  0.21167  0.73820  0.25218  1.0000
  H   H729      1.0  0.12264  0.51125  0.40188  1.0000
  H   H730      1.0  0.43783  0.74039  0.15323  1.0000
  C   C883      1.0  0.06780  0.60336  0.37972  1.0000
  C   C884      1.0  0.36012  0.71192  0.05228  1.0000
  C   C885      1.0  0.09125  0.51551  0.39039  1.0000
  C   C886      1.0  0.36396  0.61008  0.14515  1.0000
  C   C887      1.0  0.44096  0.71048  0.03181  1.0000
  C   C888      1.0  0.38994  0.51331  0.35942  1.0000
  C   C889      1.0  0.36888  0.67722  0.21738  1.0000
  C   C890      1.0  0.35852  0.68769  0.23714  1.0000
  C   C891      1.0  0.34296  0.67800  0.25155  1.0000
  C   C892      1.0  0.33749  0.65796  0.24587  1.0000
  C   C893      1.0  0.34722  0.64768  0.22521  1.0000
  C   C894      1.0  0.36327  0.65732  0.21134  1.0000
  P   P28       1.0  0.34013  0.62187  0.21759  1.0000
  C   C895      1.0  0.34279  0.61900  0.18281  1.0000
  C   C896      1.0  0.35753  0.60361  0.23241  1.0000
  C   C897      1.0  0.37274  0.60998  0.24923  1.0000
  C   C898      1.0  0.38731  0.59591  0.25853  1.0000
  C   C899      1.0  0.38679  0.57543  0.25114  1.0000
  C   C900      1.0  0.37161  0.56900  0.23458  1.0000
  C   C901      1.0  0.35709  0.58300  0.22519  1.0000
  C   C902      1.0  0.32663  0.62407  0.16624  1.0000
  C   C903      1.0  0.32918  0.62221  0.13939  1.0000
  C   C904      1.0  0.34781  0.61517  0.12885  1.0000
  C   C905      1.0  0.46703  0.72424  0.00217  1.0000
  H   H731      1.0  0.21752  0.49860  0.49152  1.0000
  S   S129      1.0  0.48586  0.55435  0.19441  1.0000
  H   H732      1.0  0.48235  0.74022  0.18730  1.0000
  H   H733      1.0  0.34798  0.68322  0.06665  1.0000
  C   C906      1.0  0.46823  0.57776  0.27184  1.0000
  H   H734      1.0  0.01205  0.62151  0.17117  1.0000
  C   C907      1.0  0.47639  0.71052  0.04450  1.0000
  H   H735      1.0  0.45105  0.52176  0.25514  1.0000
  C   C908      1.0  0.32670  0.52393  0.23427  1.0000
  H   H736      1.0  0.13334  0.70856  0.27605  1.0000
  C   C909      1.0  0.47995  0.63748  0.20435  1.0000
  S   S130      1.0  0.99874  0.51534  0.26842  1.0000
  C   C910      1.0  0.13206  0.72485  0.27960  1.0000
  H   H737      1.0  0.24984  0.50328  0.33788  1.0000
  H   H738      1.0  0.48960  0.73711  0.10065  1.0000
  C   C911      1.0  0.10455  0.50869  0.32722  1.0000
  H   H739      1.0  0.32377  0.55777  0.28355  1.0000
  C   C912      1.0  0.43306  0.52646  0.22107  1.0000
  C   C913      1.0  0.16189  0.53546  0.48895  1.0000
  C   C914      1.0  0.46327  0.73614  0.12655  1.0000
  H   H740      1.0  0.40032  0.74302  0.08108  1.0000
  H   H741      1.0  0.07328  0.74438  0.15917  1.0000
  H   H742      1.0  0.12588  0.73261  0.23993  1.0000
  H   H743      1.0  0.16770  0.59164  0.46579  1.0000
  H   H744      1.0  0.13917  0.72171  0.32004  1.0000
  H   H745      1.0  0.48785  0.70715  0.05889  1.0000
  C   C915      1.0  0.08482  0.50015  0.32629  1.0000
  H   H746      1.0  0.48491  0.66527  0.11685  1.0000
  C   C916      1.0  0.21385  0.49801  0.45026  1.0000
  H   H747      1.0  0.30527  0.54802  0.24419  1.0000
  C   C917      1.0  0.31924  0.53998  0.24945  1.0000
  C   C918      1.0  0.41932  0.51464  0.26261  1.0000
  H   H748      1.0  0.39305  0.51506  0.37979  1.0000
  C   C919      1.0  0.48494  0.58609  0.25803  1.0000
  C   C920      1.0  0.35512  0.51869  0.26347  1.0000
  H   H749      1.0  0.42212  0.50985  0.28241  1.0000
  C   C921      1.0  0.38287  0.50815  0.30647  1.0000
  H   H750      1.0  0.31853  0.51955  0.21722  1.0000
  C   C922      1.0  0.37977  0.49598  0.35120  1.0000
  H   H751      1.0  0.34996  0.50071  0.22943  1.0000
  C   C923      1.0  0.11505  0.69063  0.99547  1.0000
  H   H752      1.0  0.16595  0.70016  0.99975  1.0000
  C   C924      1.0  0.48647  0.60740  0.25448  1.0000
  H   H753      1.0  0.08800  0.49928  0.39045  1.0000
  P   P29       1.0  0.37819  0.50489  0.27238  1.0000
  S   S131      1.0  0.48274  0.49645  0.22237  1.0000
  H   H754      1.0  0.28651  0.49458  0.32923  1.0000
  C   C925      1.0  0.99722  0.49461  0.14103  1.0000
  H   H755      1.0  0.46980  0.53129  0.83276  1.0000
  C   C926      1.0  0.43167  0.56156  0.87269  1.0000
  C   C927      1.0  0.49332  0.69804  0.96125  1.0000
  Fe  Fe65      1.0  0.41244  0.65125  0.84301  1.0000
  S   S132      1.0  0.39458  0.67828  0.82626  1.0000
  S   S133      1.0  0.42304  0.62637  0.81390  1.0000
  Fe  Fe66      1.0  0.40703  0.66738  0.89892  1.0000
  S   S134      1.0  0.38840  0.69465  0.88579  1.0000
  S   S135      1.0  0.42178  0.66495  0.93895  1.0000
  Fe  Fe67      1.0  0.37215  0.67334  0.85929  1.0000
  S   S136      1.0  0.33699  0.67654  0.85678  1.0000
  Fe  Fe68      1.0  0.41189  0.69795  0.85362  1.0000
  S   S137      1.0  0.42279  0.73017  0.84284  1.0000
  S   S138      1.0  0.38902  0.64529  0.87516  1.0000
  S   S139      1.0  0.43138  0.67177  0.86750  1.0000
  Fe  Fe69      1.0  0.01393  0.68888  0.86065  1.0000
  S   S140      1.0  0.04326  0.69821  0.87902  1.0000
  Fe  Fe70      1.0  0.03306  0.64848  0.83972  1.0000
  S   S141      1.0  0.06345  0.65561  0.85711  1.0000
  S   S142      1.0  0.03676  0.61777  0.81902  1.0000
  Fe  Fe71      1.0  0.04569  0.66551  0.89277  1.0000
  S   S143      1.0  0.05350  0.65240  0.93274  1.0000
  Fe  Fe72      1.0  0.05858  0.68752  0.84192  1.0000
  S   S144      1.0  0.08150  0.70630  0.81786  1.0000
  S   S145      1.0  0.02900  0.68029  0.82244  1.0000
  Fe  Fe73      1.0  0.18693  0.54338  0.58884  1.0000
  S   S146      1.0  0.19993  0.55030  0.54781  1.0000
  Fe  Fe74      1.0  0.18837  0.56029  0.64457  1.0000
  S   S147      1.0  0.17498  0.53135  0.66175  1.0000
  S   S148      1.0  0.19847  0.58236  0.67555  1.0000
  H   H756      1.0  0.47985  0.63070  0.92226  1.0000
  Fe  Fe75      1.0  0.15296  0.53300  0.62904  1.0000
  H   H757      1.0  0.44896  0.72176  0.79791  1.0000
  S   S149      1.0  0.21113  0.54318  0.61956  1.0000
  S   S150      1.0  0.16528  0.56306  0.61292  1.0000
  H   H758      1.0  0.45504  0.70453  0.93997  1.0000
  S   S151      1.0  0.22207  0.72794  0.77641  1.0000
  Fe  Fe76      1.0  0.21073  0.69664  0.71531  1.0000
  S   S152      1.0  0.22027  0.68155  0.75257  1.0000
  S   S153      1.0  0.20217  0.67980  0.67881  1.0000
  Fe  Fe77      1.0  0.19807  0.70373  0.77152  1.0000
  S   S154      1.0  0.17771  0.69058  0.80426  1.0000
  Fe  Fe78      1.0  0.24366  0.70655  0.75498  1.0000
  S   S155      1.0  0.27796  0.69933  0.76175  1.0000
  S   S156      1.0  0.18695  0.71724  0.73403  1.0000
  S   S157      1.0  0.23552  0.72044  0.71580  1.0000
  C   C928      1.0  0.45215  0.70543  0.79740  1.0000
  H   H759      1.0  0.11306  0.62922  0.71261  1.0000
  H   H760      1.0  0.11565  0.66045  0.73865  1.0000
  C   C929      1.0  0.18930  0.54620  0.51680  1.0000
  H   H761      1.0  0.15261  0.55952  0.71374  1.0000
  C   C930      1.0  0.16967  0.53829  0.51393  1.0000
  C   C931      1.0  0.32179  0.54570  0.56175  1.0000
  H   H762      1.0  0.16047  0.53437  0.53097  1.0000
  C   C932      1.0  0.09829  0.56169  0.74593  1.0000
  H   H763      1.0  0.09131  0.66654  0.77530  1.0000
  H   H764      1.0  0.06252  0.60919  0.76176  1.0000
  H   H765      1.0  0.08311  0.56191  0.75488  1.0000
  C   C933      1.0  0.06731  0.51558  0.67709  1.0000
  C   C934      1.0  0.08055  0.52277  0.65698  1.0000
  H   H766      1.0  0.06465  0.64097  0.78635  1.0000
  H   H767      1.0  0.10761  0.53461  0.76729  1.0000
  C   C935      1.0  0.05840  0.57757  0.85776  1.0000
  S   S158      1.0  0.01565  0.65634  0.87650  1.0000
  C   C936      1.0  0.19950  0.60947  0.67542  1.0000
  C   C937      1.0  0.20863  0.61899  0.69635  1.0000
  C   C938      1.0  0.20931  0.64046  0.69775  1.0000
  C   C939      1.0  0.20147  0.65270  0.67773  1.0000
  C   C940      1.0  0.19270  0.64319  0.65644  1.0000
  C   C941      1.0  0.19146  0.62166  0.65543  1.0000
  H   H768      1.0  0.21535  0.60974  0.71157  1.0000
  H   H769      1.0  0.21612  0.64754  0.71417  1.0000
  H   H770      1.0  0.18652  0.65256  0.64091  1.0000
  H   H771      1.0  0.18420  0.61451  0.63935  1.0000
  C   C942      1.0  0.05282  0.66538  0.96274  1.0000
  C   C943      1.0  0.05622  0.68645  0.96421  1.0000
  S   S159      1.0  0.11790  0.53080  0.63310  1.0000
  H   H772      1.0  0.05810  0.69552  0.94657  1.0000
  C   C944      1.0  0.02052  0.60054  0.80310  1.0000
  H   H773      1.0  0.07025  0.55298  0.70838  1.0000
  C   C945      1.0  0.01628  0.56692  0.78358  1.0000
  C   C946      1.0  0.02860  0.58142  0.79556  1.0000
  H   H774      1.0  0.02268  0.55220  0.77818  1.0000
  H   H775      1.0  0.04447  0.57770  0.79924  1.0000
  C   C947      1.0  0.10797  0.70061  0.81322  1.0000
  C   C948      1.0  0.11817  0.68609  0.82865  1.0000
  C   C949      1.0  0.13946  0.68290  0.82522  1.0000
  C   C950      1.0  0.15074  0.69412  0.80640  1.0000
  C   C951      1.0  0.14047  0.70831  0.79062  1.0000
  C   C952      1.0  0.11921  0.71160  0.79413  1.0000
  H   H776      1.0  0.10979  0.67780  0.84370  1.0000
  H   H777      1.0  0.14737  0.67205  0.83764  1.0000
  H   H778      1.0  0.14896  0.71712  0.77613  1.0000
  H   H779      1.0  0.11147  0.72292  0.78216  1.0000
  C   C953      1.0  0.32083  0.68280  0.83006  1.0000
  C   C954      1.0  0.32834  0.68419  0.80449  1.0000
  C   C955      1.0  0.31498  0.68909  0.78400  1.0000
  C   C956      1.0  0.29389  0.69281  0.78864  1.0000
  C   C957      1.0  0.28637  0.69150  0.81424  1.0000
  C   C958      1.0  0.29972  0.68644  0.83471  1.0000
  H   H780      1.0  0.34440  0.68123  0.80051  1.0000
  H   H781      1.0  0.32105  0.68995  0.76435  1.0000
  H   H782      1.0  0.27026  0.69432  0.81826  1.0000
  H   H783      1.0  0.29366  0.68538  0.85436  1.0000
  C   C959      1.0  0.41130  0.66454  0.97117  1.0000
  C   C960      1.0  0.39030  0.66244  0.97646  1.0000
  H   H784      1.0  0.01466  0.55698  0.97379  1.0000
  H   H785      1.0  0.37985  0.66108  0.96063  1.0000
  C   C961      1.0  0.00008  0.60526  0.79771  1.0000
  H   H786      1.0  0.08915  0.63839  0.63544  1.0000
  C   C962      1.0  0.09679  0.50740  0.70293  1.0000
  C   C963      1.0  0.44627  0.74056  0.85314  1.0000
  C   C964      1.0  0.45993  0.72920  0.86839  1.0000
  C   C965      1.0  0.49178  0.65457  0.85396  1.0000
  C   C966      1.0  0.11220  0.54626  0.75317  1.0000
  H   H787      1.0  0.45637  0.71357  0.87396  1.0000
  C   C967      1.0  0.44147  0.60629  0.80777  1.0000
  C   C968      1.0  0.45593  0.59984  0.82594  1.0000
  C   C969      1.0  0.46982  0.58365  0.82028  1.0000
  C   C970      1.0  0.46955  0.57353  0.79641  1.0000
  C   C971      1.0  0.45511  0.57994  0.77821  1.0000
  C   C972      1.0  0.44121  0.59615  0.78388  1.0000
  H   H788      1.0  0.45609  0.60694  0.84462  1.0000
  C   C973      1.0  0.14877  0.70254  0.96458  1.0000
  H   H789      1.0  0.45472  0.57253  0.75967  1.0000
  H   H790      1.0  0.43013  0.60087  0.76962  1.0000
  C   C974      1.0  0.21196  0.64213  0.80536  1.0000
  C   C975      1.0  0.20951  0.63970  0.83219  1.0000
  C   C976      1.0  0.19278  0.62890  0.84256  1.0000
  C   C977      1.0  0.17827  0.62085  0.82611  1.0000
  C   C978      1.0  0.18025  0.62388  0.79916  1.0000
  C   C979      1.0  0.19752  0.63407  0.78886  1.0000
  P   P30       1.0  0.16180  0.61325  0.77778  1.0000
  C   C980      1.0  0.17116  0.58774  0.77072  1.0000
  C   C981      1.0  0.13661  0.61301  0.79296  1.0000
  C   C982      1.0  0.12291  0.59716  0.78827  1.0000
  C   C983      1.0  0.10339  0.59715  0.80006  1.0000
  C   C984      1.0  0.09725  0.61320  0.81609  1.0000
  C   C985      1.0  0.11057  0.62935  0.82019  1.0000
  C   C986      1.0  0.13013  0.62932  0.80856  1.0000
  C   C987      1.0  0.18423  0.58434  0.74926  1.0000
  C   C988      1.0  0.19174  0.56467  0.74408  1.0000
  C   C989      1.0  0.18668  0.54828  0.76068  1.0000
  C   C990      1.0  0.17429  0.55163  0.78267  1.0000
  C   C991      1.0  0.16668  0.57132  0.78781  1.0000
  C   C992      1.0  0.15935  0.62991  0.74965  1.0000
  C   C993      1.0  0.16024  0.65124  0.75243  1.0000
  C   C994      1.0  0.15878  0.66429  0.73078  1.0000
  C   C995      1.0  0.15603  0.65621  0.70627  1.0000
  C   C996      1.0  0.15452  0.63504  0.70343  1.0000
  C   C997      1.0  0.15599  0.62193  0.72507  1.0000
  H   H791      1.0  0.22494  0.65052  0.79736  1.0000
  H   H792      1.0  0.22063  0.64621  0.84487  1.0000
  H   H793      1.0  0.19110  0.62682  0.86335  1.0000
  H   H794      1.0  0.16550  0.61238  0.83441  1.0000
  H   H795      1.0  0.19973  0.63610  0.76809  1.0000
  H   H796      1.0  0.12721  0.58498  0.77527  1.0000
  H   H797      1.0  0.09275  0.58502  0.79621  1.0000
  H   H798      1.0  0.08185  0.61358  0.82445  1.0000
  H   H799      1.0  0.10552  0.64215  0.83184  1.0000
  H   H800      1.0  0.14012  0.64215  0.81137  1.0000
  H   H801      1.0  0.18867  0.59685  0.73646  1.0000
  H   H802      1.0  0.20148  0.56217  0.72708  1.0000
  H   H803      1.0  0.19250  0.53303  0.75655  1.0000
  H   H804      1.0  0.17063  0.53897  0.79577  1.0000
  H   H805      1.0  0.15740  0.57371  0.80515  1.0000
  H   H806      1.0  0.16236  0.65785  0.77126  1.0000
  H   H807      1.0  0.16006  0.68069  0.73299  1.0000
  H   H808      1.0  0.15560  0.66635  0.68939  1.0000
  H   H809      1.0  0.15267  0.62877  0.68435  1.0000
  H   H810      1.0  0.15482  0.60563  0.72242  1.0000
  C   C998      1.0  0.10200  0.52218  0.65959  1.0000
  C   C999      1.0  0.07537  0.50763  0.70014  1.0000
  C   C1000     1.0  0.13175  0.54545  0.74155  1.0000
  H   H811      1.0  0.38556  0.50857  0.82348  1.0000
  C   C1001     1.0  0.43382  0.52614  0.77507  1.0000
  H   H812      1.0  0.37336  0.71887  0.93156  1.0000
  C   C1002     1.0  0.09627  0.58365  0.66456  1.0000
  C   C1003     1.0  0.37363  0.69360  0.75879  1.0000
  H   H813      1.0  0.44317  0.53808  0.78278  1.0000
  C   C1004     1.0  0.09014  0.59974  0.68081  1.0000
  H   H814      1.0  0.38317  0.68182  0.76762  1.0000
  H   H815      1.0  0.99792  0.49552  0.88256  1.0000
  H   H816      1.0  0.12821  0.58659  0.70067  1.0000
  H   H817      1.0  0.48003  0.70806  0.81754  1.0000
  C   C1005     1.0  0.35589  0.72650  0.76142  1.0000
  C   C1006     1.0  0.43104  0.52543  0.74833  1.0000
  H   H818      1.0  0.21617  0.55736  0.49627  1.0000
  H   H819      1.0  0.25482  0.52701  0.61139  1.0000
  C   C1007     1.0  0.07941  0.73398  0.88039  1.0000
  H   H820      1.0  0.36928  0.67678  0.72390  1.0000
  C   C1008     1.0  0.37368  0.72475  0.95103  1.0000
  C   C1009     1.0  0.46879  0.63641  0.88383  1.0000
  H   H821      1.0  0.08154  0.63188  0.68191  1.0000
  S   S160      1.0  0.05958  0.49743  0.72581  1.0000
  C   C1010     1.0  0.42675  0.53724  0.83832  1.0000
  C   C1011     1.0  0.41453  0.55186  0.82535  1.0000
  C   C1012     1.0  0.41117  0.57122  0.83586  1.0000
  C   C1013     1.0  0.41975  0.57610  0.85946  1.0000
  H   H822      1.0  0.48195  0.69141  0.97442  1.0000
  P   P31       1.0  0.99845  0.57161  0.88213  1.0000
  H   H823      1.0  0.10131  0.61001  0.60738  1.0000
  H   H824      1.0  0.16215  0.70640  0.95282  1.0000
  C   C1014     1.0  0.41166  0.49662  0.84433  1.0000
  H   H825      1.0  0.03608  0.53824  0.71054  1.0000
  H   H826      1.0  0.48078  0.57883  0.83464  1.0000
  H   H827      1.0  0.43831  0.56540  0.89099  1.0000
  H   H828      1.0  0.29185  0.51894  0.60854  1.0000
  H   H829      1.0  0.39810  0.70449  0.96277  1.0000
  H   H830      1.0  0.10545  0.57490  0.62598  1.0000
  H   H831      1.0  0.40751  0.54843  0.80718  1.0000
  H   H832      1.0  0.40218  0.58268  0.82549  1.0000
  P   P32       1.0  0.43000  0.51170  0.82590  1.0000
  C   C1015     1.0  0.11277  0.69436  0.96892  1.0000
  C   C1016     1.0  0.36877  0.71142  0.77235  1.0000
  Fe  Fe79      1.0  0.49324  0.52783  0.76041  1.0000
  H   H833      1.0  0.09797  0.56812  0.67213  1.0000
  C   C1017     1.0  0.10371  0.57615  0.72655  1.0000
  P   P33       1.0  0.08508  0.59462  0.71484  1.0000
  H   H834      1.0  0.33878  0.73525  0.72734  1.0000
  C   C1018     1.0  0.03809  0.57102  0.86020  1.0000
  C   C1019     1.0  0.13751  0.56024  0.72298  1.0000
  C   C1020     1.0  0.12360  0.57559  0.71558  1.0000
  C   C1021     1.0  0.08714  0.61943  0.67004  1.0000
  C   C1022     1.0  0.08713  0.61719  0.73445  1.0000
  H   H835      1.0  0.46163  0.64397  0.84447  1.0000
  H   H836      1.0  0.41735  0.59129  0.86724  1.0000
  C   C1023     1.0  0.09126  0.62314  0.64364  1.0000
  C   C1024     1.0  0.10041  0.58741  0.63824  1.0000
  C   C1025     1.0  0.04230  0.59663  0.71904  1.0000
  C   C1026     1.0  0.07516  0.63835  0.77016  1.0000
  C   C1027     1.0  0.10243  0.63159  0.72865  1.0000
  C   C1028     1.0  0.07388  0.62041  0.75588  1.0000
  Fe  Fe80      1.0  0.02469  0.49498  0.73200  1.0000
  H   H837      1.0  0.10448  0.71373  0.87110  1.0000
  H   H838      1.0  0.44406  0.53094  0.87292  1.0000
  C   C1029     1.0  0.24920  0.51849  0.57214  1.0000
  H   H839      1.0  0.06854  0.57089  0.84327  1.0000
  C   C1030     1.0  0.27849  0.50508  0.54795  1.0000
  C   C1031     1.0  0.29107  0.50787  0.56933  1.0000
  H   H840      1.0  0.15000  0.74064  0.93617  1.0000
  C   C1032     1.0  0.16702  0.72921  0.86536  1.0000
  H   H841      1.0  0.43462  0.72269  0.99403  1.0000
  C   C1033     1.0  0.36009  0.54399  0.53643  1.0000
  H   H842      1.0  0.34708  0.70360  0.70392  1.0000
  S   S161      1.0  0.48784  0.55333  0.79046  1.0000
  H   H843      1.0  0.42428  0.69861  0.77799  1.0000
  C   C1034     1.0  0.05838  0.69558  0.98859  1.0000
  C   C1035     1.0  0.06539  0.59313  0.87345  1.0000
  C   C1036     1.0  0.43827  0.69241  0.78609  1.0000
  C   C1037     1.0  0.05719  0.56297  0.71214  1.0000
  C   C1038     1.0  0.47228  0.51492  0.83157  1.0000
  H   H844      1.0  0.31065  0.73027  0.76671  1.0000
  S   S162      1.0  0.49363  0.53161  0.71681  1.0000
  C   C1039     1.0  0.33103  0.52658  0.55683  1.0000
  C   C1040     1.0  0.35029  0.52587  0.54413  1.0000
  H   H845      1.0  0.08099  0.59843  0.87130  1.0000
  C   C1041     1.0  0.42506  0.51122  0.79167  1.0000
  H   H846      1.0  0.00932  0.59778  0.72306  1.0000
  H   H847      1.0  0.04781  0.63755  0.98500  1.0000
  C   C1042     1.0  0.05208  0.60220  0.89155  1.0000
  H   H848      1.0  0.37978  0.73752  0.86504  1.0000
  C   C1043     1.0  0.38756  0.71655  0.96872  1.0000
  C   C1044     1.0  0.99607  0.50950  0.87116  1.0000
  S   S163      1.0  0.01404  0.50270  0.77264  1.0000
  C   C1045     1.0  0.36578  0.69075  0.73417  1.0000
  H   H849      1.0  0.14233  0.53320  0.74665  1.0000
  C   C1046     1.0  0.28244  0.51625  0.59202  1.0000
  C   C1047     1.0  0.33159  0.56379  0.55390  1.0000
  C   C1048     1.0  0.44685  0.71891  0.93741  1.0000
  S   S164      1.0  0.17325  0.51345  0.60275  1.0000
  C   C1049     1.0  0.09804  0.60717  0.62780  1.0000
  C   C1050     1.0  0.10394  0.64930  0.74333  1.0000
  Fe  Fe81      1.0  0.19646  0.51437  0.63452  1.0000
  C   C1051     1.0  0.05973  0.58395  0.71626  1.0000
  H   H850      1.0  0.35779  0.51131  0.54025  1.0000
  H   H851      1.0  0.00526  0.56047  0.71786  1.0000
  C   C1052     1.0  0.03182  0.59566  0.89410  1.0000
  C   C1053     1.0  0.02042  0.56706  0.71694  1.0000
  H   H852      1.0  0.09799  0.69202  0.96045  1.0000
  C   C1054     1.0  0.03767  0.55454  0.71294  1.0000
  H   H853      1.0  0.04373  0.61304  0.72075  1.0000
  H   H854      1.0  0.44086  0.66797  0.98831  1.0000
  C   C1055     1.0  0.35328  0.70585  0.72294  1.0000
  C   C1056     1.0  0.25766  0.51041  0.54939  1.0000
  C   C1057     1.0  0.09022  0.65276  0.76397  1.0000
  C   C1058     1.0  0.02273  0.58812  0.71986  1.0000
  C   C1059     1.0  0.99570  0.57147  0.77869  1.0000
  H   H855      1.0  0.23300  0.52240  0.57328  1.0000
  H   H856      1.0  0.05734  0.61453  0.90340  1.0000
  C   C1060     1.0  0.24627  0.53082  0.67453  1.0000
  C   C1061     1.0  0.26250  0.51681  0.67228  1.0000
  C   C1062     1.0  0.28168  0.52335  0.66308  1.0000
  C   C1063     1.0  0.28461  0.54394  0.65602  1.0000
  C   C1064     1.0  0.26839  0.55819  0.65865  1.0000
  C   C1065     1.0  0.24919  0.55140  0.66775  1.0000
  P   P34       1.0  0.27098  0.58457  0.64807  1.0000
  C   C1066     1.0  0.26527  0.60207  0.67405  1.0000
  C   C1067     1.0  0.29702  0.59022  0.63812  1.0000
  C   C1068     1.0  0.31284  0.58718  0.65584  1.0000
  C   C1069     1.0  0.33305  0.59201  0.64879  1.0000
  C   C1070     1.0  0.33755  0.60029  0.62419  1.0000
  C   C1071     1.0  0.32181  0.60386  0.60667  1.0000
  C   C1072     1.0  0.30160  0.59889  0.61359  1.0000
  C   C1073     1.0  0.26490  0.62327  0.66881  1.0000
  C   C1074     1.0  0.26170  0.63711  0.68890  1.0000
  C   C1075     1.0  0.25927  0.62994  0.71443  1.0000
  C   C1076     1.0  0.25981  0.60889  0.71987  1.0000
  C   C1077     1.0  0.26280  0.59497  0.69979  1.0000
  C   C1078     1.0  0.25379  0.58758  0.62130  1.0000
  C   C1079     1.0  0.25671  0.57535  0.59939  1.0000
  C   C1080     1.0  0.24286  0.57651  0.57911  1.0000
  C   C1081     1.0  0.22602  0.58988  0.58056  1.0000
  C   C1082     1.0  0.22299  0.60204  0.60231  1.0000
  C   C1083     1.0  0.23670  0.60079  0.62274  1.0000
  H   H857      1.0  0.23124  0.52562  0.68098  1.0000
  H   H858      1.0  0.26003  0.50083  0.67727  1.0000
  H   H859      1.0  0.29413  0.51232  0.66101  1.0000
  H   H860      1.0  0.29938  0.54847  0.64816  1.0000
  H   H861      1.0  0.23635  0.56199  0.66913  1.0000
  H   H862      1.0  0.30950  0.58115  0.67518  1.0000
  H   H863      1.0  0.34519  0.58957  0.66256  1.0000
  H   H864      1.0  0.35319  0.60425  0.61888  1.0000
  H   H865      1.0  0.32524  0.61080  0.58787  1.0000
  H   H866      1.0  0.28960  0.60227  0.59996  1.0000
  H   H867      1.0  0.26699  0.62912  0.64917  1.0000
  H   H868      1.0  0.26092  0.65345  0.68471  1.0000
  H   H869      1.0  0.25677  0.64075  0.72994  1.0000
  H   H870      1.0  0.25781  0.60337  0.73968  1.0000
  H   H871      1.0  0.26333  0.57878  0.70452  1.0000
  H   H872      1.0  0.26947  0.56465  0.59824  1.0000
  H   H873      1.0  0.24472  0.56664  0.56254  1.0000
  H   H874      1.0  0.21503  0.59041  0.56510  1.0000
  H   H875      1.0  0.20971  0.61210  0.60361  1.0000
  H   H876      1.0  0.23353  0.60976  0.63978  1.0000
  P   P35       1.0  0.31845  0.50311  0.56674  1.0000
  H   H877      1.0  0.30700  0.54678  0.57154  1.0000
  C   C1084     1.0  0.46008  0.66333  0.79673  1.0000
  H   H878      1.0  0.32428  0.57846  0.55754  1.0000
  C   C1085     1.0  0.44227  0.67137  0.78568  1.0000
  H   H879      1.0  0.17144  0.72628  0.84532  1.0000
  H   H880      1.0  0.43140  0.66115  0.77722  1.0000
  H   H881      1.0  0.34714  0.72579  0.88592  1.0000
  C   C1086     1.0  0.36579  0.73753  0.85414  1.0000
  C   C1087     1.0  0.35074  0.56294  0.54127  1.0000
  C   C1088     1.0  0.10465  0.64999  0.89792  1.0000
  C   C1089     1.0  0.12220  0.64007  0.88822  1.0000
  C   C1090     1.0  0.14097  0.65013  0.88765  1.0000
  C   C1091     1.0  0.14219  0.67012  0.89675  1.0000
  C   C1092     1.0  0.12442  0.68052  0.90543  1.0000
  C   C1093     1.0  0.10568  0.67019  0.90630  1.0000
  P   P36       1.0  0.12609  0.70567  0.91910  1.0000
  C   C1094     1.0  0.12943  0.70104  0.95342  1.0000
  C   C1095     1.0  0.14620  0.72066  0.90365  1.0000
  C   C1096     1.0  0.34846  0.72373  0.73641  1.0000
  H   H882      1.0  0.43807  0.53683  0.73557  1.0000
  C   C1097     1.0  0.43037  0.71959  0.92065  1.0000
  H   H883      1.0  0.03288  0.55927  0.84748  1.0000
  C   C1098     1.0  0.15186  0.71737  0.87765  1.0000
  H   H884      1.0  0.02167  0.60309  0.90802  1.0000
  H   H885      1.0  0.12646  0.51418  0.68525  1.0000
  C   C1099     1.0  0.47814  0.73814  0.87672  1.0000
  H   H886      1.0  0.46278  0.64693  0.79626  1.0000
  S   S165      1.0  0.00058  0.51438  0.71257  1.0000
  C   C1100     1.0  0.10304  0.72014  0.91217  1.0000
  C   C1101     1.0  0.99579  0.54672  0.86783  1.0000
  C   C1102     1.0  0.36013  0.74038  0.95854  1.0000
  C   C1103     1.0  0.11003  0.51465  0.68285  1.0000
  H   H887      1.0  0.07414  0.52863  0.63913  1.0000
  C   C1104     1.0  0.09642  0.72176  0.88651  1.0000
  H   H888      1.0  0.09019  0.64200  0.89923  1.0000
  H   H889      1.0  0.12125  0.62451  0.88146  1.0000
  H   H890      1.0  0.15464  0.64242  0.88035  1.0000
  H   H891      1.0  0.15699  0.67741  0.89694  1.0000
  H   H892      1.0  0.09186  0.67753  0.91388  1.0000
  C   C1105     1.0  0.02469  0.57991  0.87856  1.0000
  H   H893      1.0  0.35834  0.57696  0.53522  1.0000
  H   H894      1.0  0.24795  0.50827  0.53291  1.0000
  S   S166      1.0  0.47669  0.49751  0.76017  1.0000
  H   H895      1.0  0.14441  0.70583  0.86668  1.0000
  C   C1106     1.0  0.43503  0.54214  0.86228  1.0000
  H   H896      1.0  0.37484  0.71318  0.79151  1.0000
  H   H897      1.0  0.45399  0.62954  0.88795  1.0000
  C   C1107     1.0  0.26155  0.52121  0.59354  1.0000
  C   C1108     1.0  0.15105  0.69873  0.99116  1.0000
  H   H898      1.0  0.05091  0.51589  0.67457  1.0000
  Fe  Fe82      1.0  0.21234  0.74023  0.73697  1.0000
  C   C1109     1.0  0.42460  0.66632  0.99212  1.0000
  C   C1110     1.0  0.36637  0.74321  0.82791  1.0000
  H   H899      1.0  0.37497  0.54332  0.52669  1.0000
  H   H900      1.0  0.42641  0.70597  0.91034  1.0000
  H   H901      1.0  0.00220  0.61509  0.86640  1.0000
  H   H902      1.0  0.02232  0.55804  0.92675  1.0000
  C   C1111     1.0  0.32958  0.73065  0.85153  1.0000
  C   C1112     1.0  0.49239  0.50725  0.83124  1.0000
  H   H903      1.0  0.41792  0.50892  0.71713  1.0000
  H   H904      1.0  0.09755  0.73072  0.95137  1.0000
  C   C1113     1.0  0.47400  0.67627  0.80858  1.0000
  H   H905      1.0  0.00171  0.52910  0.90297  1.0000
  C   C1114     1.0  0.45573  0.50167  0.82905  1.0000
  C   C1115     1.0  0.47308  0.64488  0.85923  1.0000
  C   C1116     1.0  0.05051  0.65383  0.98590  1.0000
  C   C1117     1.0  0.39072  0.49844  0.83895  1.0000
  C   C1118     1.0  0.41977  0.50962  0.73793  1.0000
  C   C1119     1.0  0.34743  0.73110  0.86591  1.0000
  H   H906      1.0  0.04217  0.73478  0.81472  1.0000
  C   C1120     1.0  0.15499  0.73698  0.91664  1.0000
  H   H907      1.0  0.40716  0.73842  0.90286  1.0000
  C   C1121     1.0  0.49355  0.71926  0.95613  1.0000
  C   C1122     1.0  0.00729  0.56286  0.93381  1.0000
  Fe  Fe83      1.0  0.47864  0.50032  0.71654  1.0000
  H   H908      1.0  0.02485  0.73574  0.85792  1.0000
  C   C1123     1.0  0.46986  0.69746  0.80874  1.0000
  C   C1124     1.0  0.09246  0.73109  0.93158  1.0000
  H   H909      1.0  0.10323  0.50138  0.72068  1.0000
  H   H910      1.0  0.31616  0.73525  0.81445  1.0000
  C   C1125     1.0  0.48337  0.63710  0.90316  1.0000
  H   H911      1.0  0.48836  0.72928  0.88883  1.0000
  C   C1126     1.0  0.33005  0.73648  0.82532  1.0000
  H   H912      1.0  0.28463  0.49890  0.53010  1.0000
  C   C1127     1.0  0.99819  0.52860  0.88264  1.0000
  C   C1128     1.0  0.34845  0.74292  0.81331  1.0000
  H   H913      1.0  0.36005  0.50326  0.58800  1.0000
  H   H914      1.0  0.06193  0.71168  0.98950  1.0000
  H   H915      1.0  0.27716  0.74418  0.75362  1.0000
  H   H916      1.0  0.31554  0.72491  0.86040  1.0000
  C   C1129     1.0  0.00300  0.56222  0.96048  1.0000
  P   P37       1.0  0.47448  0.73577  0.97127  1.0000
  H   H917      1.0  0.32104  0.50449  0.50967  1.0000
  H   H918      1.0  0.07442  0.73511  0.86049  1.0000
  C   C1130     1.0  0.41945  0.73784  0.91663  1.0000
  C   C1131     1.0  0.45262  0.73659  0.95035  1.0000
  H   H919      1.0  0.01767  0.73566  0.99317  1.0000
  C   C1132     1.0  0.07512  0.74289  0.92547  1.0000
  C   C1133     1.0  0.20099  0.55119  0.49433  1.0000
  C   C1134     1.0  0.34994  0.49561  0.60181  1.0000
  C   C1135     1.0  0.41429  0.49501  0.78099  1.0000
  C   C1136     1.0  0.38776  0.72376  0.99404  1.0000
  C   C1137     1.0  0.06861  0.74435  0.89988  1.0000
  H   H920      1.0  0.00037  0.89180  0.27182  1.0000
  H   H921      1.0  0.21112  0.94039  0.47372  1.0000
  H   H922      1.0  0.40136  0.98280  0.18719  1.0000
  C   C1138     1.0  0.34011  0.90551  0.27589  1.0000
  H   H923      1.0  0.38679  0.88225  0.28113  1.0000
  H   H924      1.0  0.42785  0.95005  0.22402  1.0000
  C   C1139     1.0  0.48026  0.74560  0.11437  1.0000
  C   C1140     1.0  0.01697  0.91998  0.26859  1.0000
  H   H925      1.0  0.17967  0.98554  0.43807  1.0000
  H   H926      1.0  0.20734  0.87931  0.43178  1.0000
  Fe  Fe84      1.0  0.19637  0.91509  0.34694  1.0000
  S   S167      1.0  0.16928  0.93461  0.35840  1.0000
  S   S168      1.0  0.22967  0.92516  0.34949  1.0000
  Fe  Fe85      1.0  0.17051  0.87626  0.34068  1.0000
  S   S169      1.0  0.14156  0.89336  0.35345  1.0000
  S   S170      1.0  0.16651  0.84238  0.32873  1.0000
  Fe  Fe86      1.0  0.15209  0.91910  0.32695  1.0000
  S   S171      1.0  0.13193  0.93400  0.29527  1.0000
  Fe  Fe87      1.0  0.16055  0.90771  0.38435  1.0000
  S   S172      1.0  0.15059  0.91875  0.42479  1.0000
  S   S173      1.0  0.18031  0.90152  0.31298  1.0000
  S   S174      1.0  0.18836  0.88867  0.37400  1.0000
  S   S175      1.0  0.21656  0.77023  0.26982  1.0000
  C   C1141     1.0  0.18084  0.82277  0.31194  1.0000
  C   C1142     1.0  0.20136  0.82499  0.30390  1.0000
  C   C1143     1.0  0.21193  0.80879  0.29119  1.0000
  C   C1144     1.0  0.20221  0.79018  0.28593  1.0000
  C   C1145     1.0  0.18161  0.78810  0.29364  1.0000
  C   C1146     1.0  0.17114  0.80415  0.30673  1.0000
  H   H927      1.0  0.20917  0.83910  0.30769  1.0000
  H   H928      1.0  0.22782  0.81075  0.28534  1.0000
  H   H929      1.0  0.17376  0.77415  0.28938  1.0000
  H   H930      1.0  0.15539  0.80218  0.31297  1.0000
  C   C1147     1.0  0.23342  0.96251  0.42202  1.0000
  C   C1148     1.0  0.15529  0.90845  0.45639  1.0000
  C   C1149     1.0  0.16026  0.88778  0.46073  1.0000
  H   H931      1.0  0.27961  0.90681  0.49001  1.0000
  H   H932      1.0  0.16227  0.87773  0.44442  1.0000
  C   C1150     1.0  0.07068  0.97080  0.29334  1.0000
  C   C1151     1.0  0.07987  0.96331  0.27058  1.0000
  C   C1152     1.0  0.09846  0.95199  0.27166  1.0000
  C   C1153     1.0  0.10817  0.94796  0.29539  1.0000
  C   C1154     1.0  0.09899  0.95548  0.31809  1.0000
  C   C1155     1.0  0.08049  0.96692  0.31701  1.0000
  H   H933      1.0  0.07265  0.96619  0.25219  1.0000
  H   H934      1.0  0.10542  0.94636  0.25392  1.0000
  H   H935      1.0  0.10626  0.95265  0.33647  1.0000
  H   H936      1.0  0.07363  0.97270  0.33471  1.0000
  C   C1156     1.0  0.47368  0.77694  0.13813  1.0000
  H   H937      1.0  0.10703  0.92199  0.39078  1.0000
  C   C1157     1.0  0.33651  0.97797  0.29022  1.0000
  H   H938      1.0  0.08735  0.90625  0.28354  1.0000
  H   H939      1.0  0.01664  0.81795  0.20566  1.0000
  H   H940      1.0  0.04312  0.84776  0.20380  1.0000
  C   C1158     1.0  0.00938  0.88936  0.10767  1.0000
  C   C1159     1.0  0.19470  0.97902  0.43391  1.0000
  H   H941      1.0  0.15006  0.75461  0.19943  1.0000
  H   H942      1.0  0.05346  0.90874  0.22975  1.0000
  C   C1160     1.0  0.22493  0.96706  0.34044  1.0000
  C   C1161     1.0  0.23819  0.95086  0.34691  1.0000
  C   C1162     1.0  0.25897  0.95502  0.35094  1.0000
  C   C1163     1.0  0.26654  0.97508  0.34794  1.0000
  H   H943      1.0  0.31287  0.79205  0.04240  1.0000
  H   H944      1.0  0.20892  0.96407  0.33732  1.0000
  H   H945      1.0  0.26933  0.94259  0.35598  1.0000
  H   H946      1.0  0.48835  0.75946  0.01636  1.0000
  H   H947      1.0  0.02420  0.87564  0.30256  1.0000
  H   H948      1.0  0.02497  0.85863  0.40229  1.0000
  H   H949      1.0  0.16466  0.86369  0.48940  1.0000
  H   H950      1.0  0.27918  0.96028  0.47161  1.0000
  H   H951      1.0  0.18281  0.95367  0.41281  1.0000
  C   C1164     1.0  0.04801  0.92145  0.29327  1.0000
  C   C1165     1.0  0.11140  0.77187  0.18544  1.0000
  C   C1166     1.0  0.13456  0.75335  0.30862  1.0000
  C   C1167     1.0  0.03728  0.79147  0.15518  1.0000
  C   C1168     1.0  0.28605  0.98350  0.41233  1.0000
  C   C1169     1.0  0.43462  0.97025  0.28335  1.0000
  C   C1170     1.0  0.03823  0.86362  0.20460  1.0000
  C   C1171     1.0  0.09101  0.75475  0.21896  1.0000
  C   C1172     1.0  0.23266  0.89842  0.42000  1.0000
  H   H952      1.0  0.04181  0.88731  0.37911  1.0000
  C   C1173     1.0  0.01408  0.87857  0.13047  1.0000
  C   C1174     1.0  0.05002  0.87737  0.21828  1.0000
  H   H953      1.0  0.08961  0.85641  0.33972  1.0000
  C   C1175     1.0  0.32242  0.99183  0.27950  1.0000
  H   H954      1.0  0.21706  0.93959  0.40141  1.0000
  H   H955      1.0  0.25958  0.92811  0.45989  1.0000
  H   H956      1.0  0.02232  0.82483  0.38155  1.0000
  C   C1176     1.0  0.07849  0.74686  0.20001  1.0000
  P   P38       1.0  0.00544  0.85328  0.17322  1.0000
  S   S176      1.0  0.48042  0.80207  0.14714  1.0000
  C   C1177     1.0  0.41557  0.76197  0.02174  1.0000
  C   C1178     1.0  0.36972  0.98296  0.36330  1.0000
  C   C1179     1.0  0.12370  0.86929  0.29188  1.0000
  H   H957      1.0  0.39252  0.94642  0.24197  1.0000
  H   H958      1.0  0.02086  0.89879  0.09798  1.0000
  C   C1180     1.0  0.10781  0.76699  0.21176  1.0000
  H   H959      1.0  0.08371  0.95149  0.39927  1.0000
  P   P39       1.0  0.12388  0.77724  0.23626  1.0000
  H   H960      1.0  0.14866  0.93718  0.47484  1.0000
  C   C1181     1.0  0.49015  0.76869  0.99891  1.0000
  C   C1182     1.0  0.42406  0.95521  0.24341  1.0000
  C   C1183     1.0  0.37037  0.96624  0.38052  1.0000
  H   H961      1.0  0.03865  0.80224  0.11551  1.0000
  C   C1184     1.0  0.36613  0.93039  0.28569  1.0000
  C   C1185     1.0  0.03423  0.93059  0.27607  1.0000
  C   C1186     1.0  0.18236  0.79841  0.22671  1.0000
  C   C1187     1.0  0.19103  0.78488  0.20880  1.0000
  C   C1188     1.0  0.17916  0.76941  0.19869  1.0000
  C   C1189     1.0  0.15867  0.76733  0.20661  1.0000
  C   C1190     1.0  0.14968  0.78120  0.22411  1.0000
  C   C1191     1.0  0.16183  0.79645  0.23460  1.0000
  H   H962      1.0  0.43611  0.75025  0.09040  1.0000
  C   C1192     1.0  0.11148  0.80090  0.24569  1.0000
  C   C1193     1.0  0.43040  0.75355  0.07122  1.0000
  C   C1194     1.0  0.12675  0.75964  0.26331  1.0000
  C   C1195     1.0  0.15257  0.92120  0.47794  1.0000
  S   S177      1.0  0.02367  0.98683  0.22022  1.0000
  H   H963      1.0  0.31014  0.94155  0.45678  1.0000
  C   C1196     1.0  0.02512  0.82491  0.14068  1.0000
  C   C1197     1.0  0.11619  0.81936  0.23261  1.0000
  C   C1198     1.0  0.10634  0.83762  0.23977  1.0000
  C   C1199     1.0  0.09144  0.83748  0.25965  1.0000
  C   C1200     1.0  0.08631  0.81908  0.27232  1.0000
  C   C1201     1.0  0.09616  0.80081  0.26522  1.0000
  C   C1202     1.0  0.23253  0.98710  0.33732  1.0000
  C   C1203     1.0  0.24748  0.91198  0.42811  1.0000
  C   C1204     1.0  0.35492  0.88987  0.27600  1.0000
  H   H964      1.0  0.23128  0.89530  0.39952  1.0000
  C   C1205     1.0  0.99908  0.86675  0.14351  1.0000
  H   H965      1.0  0.09184  0.78664  0.27499  1.0000
  H   H966      1.0  0.19183  0.80986  0.23533  1.0000
  C   C1206     1.0  0.37398  0.94328  0.34425  1.0000
  C   C1207     1.0  0.38090  0.91453  0.28593  1.0000
  C   C1208     1.0  0.34566  0.92569  0.28071  1.0000
  H   H967      1.0  0.15575  0.80645  0.24948  1.0000
  C   C1209     1.0  0.02188  0.81490  0.18603  1.0000
  C   C1210     1.0  0.34039  0.77371  0.03842  1.0000
  H   H968      1.0  0.37037  0.99300  0.32354  1.0000
  C   C1211     1.0  0.13786  0.99199  0.27901  1.0000
  H   H969      1.0  0.12399  0.78164  0.17944  1.0000
  H   H970      1.0  0.12752  0.81969  0.21695  1.0000
  H   H971      1.0  0.11040  0.85190  0.23004  1.0000
  H   H972      1.0  0.08403  0.85167  0.26538  1.0000
  H   H973      1.0  0.07479  0.81897  0.28773  1.0000
  H   H974      1.0  0.02226  0.92107  0.20728  1.0000
  C   C1212     1.0  0.13339  0.98757  0.25340  1.0000
  C   C1213     1.0  0.11467  0.85831  0.31250  1.0000
  H   H975      1.0  0.44692  0.77624  0.16335  1.0000
  H   H976      1.0  0.04056  0.92816  0.34607  1.0000
  C   C1214     1.0  0.03123  0.85645  0.38290  1.0000
  C   C1215     1.0  0.08702  0.90839  0.36339  1.0000
  H   H977      1.0  0.06112  0.93001  0.29923  1.0000
  C   C1216     1.0  0.01368  0.90005  0.27792  1.0000
  H   H978      1.0  0.09740  0.89566  0.35998  1.0000
  C   C1217     1.0  0.32943  0.79218  0.04035  1.0000
  C   C1218     1.0  0.03112  0.79597  0.18055  1.0000
  H   H979      1.0  0.36926  0.82532  0.03730  1.0000
  C   C1219     1.0  0.16158  0.87985  0.48631  1.0000
  H   H980      1.0  0.13042  0.78329  0.29155  1.0000
  C   C1220     1.0  0.02737  0.89091  0.29529  1.0000
  H   H981      1.0  0.49296  0.92095  0.25542  1.0000
  C   C1221     1.0  0.09894  0.76381  0.16653  1.0000
  C   C1222     1.0  0.04453  0.90170  0.30345  1.0000
  H   H982      1.0  0.45478  0.96518  0.25033  1.0000
  C   C1223     1.0  0.24879  0.91668  0.45437  1.0000
  C   C1224     1.0  0.37111  0.97989  0.33659  1.0000
  H   H983      1.0  0.35058  0.87425  0.27220  1.0000
  H   H984      1.0  0.24821  0.95630  0.41621  1.0000
  C   C1225     1.0  0.06058  0.94143  0.37331  1.0000
  C   C1226     1.0  0.30348  0.97259  0.40400  1.0000
  H   H985      1.0  0.03677  0.94606  0.26878  1.0000
  H   H986      1.0  0.32589  0.94943  0.41359  1.0000
  C   C1227     1.0  0.08522  0.88154  0.31213  1.0000
  C   C1228     1.0  0.13030  0.76700  0.28816  1.0000
  C   C1229     1.0  0.28580  0.96388  0.45267  1.0000
  C   C1230     1.0  0.21231  0.98853  0.44262  1.0000
  C   C1231     1.0  0.33982  0.81077  0.03988  1.0000
  H   H987      1.0  0.38874  0.79303  0.03400  1.0000
  C   C1232     1.0  0.04432  0.89806  0.21922  1.0000
  C   C1233     1.0  0.37263  0.94641  0.37102  1.0000
  C   C1234     1.0  0.09246  0.92325  0.38105  1.0000
  C   C1235     1.0  0.03787  0.83458  0.34623  1.0000
  C   C1236     1.0  0.07930  0.93983  0.38589  1.0000
  C   C1237     1.0  0.01890  0.82958  0.16616  1.0000
  C   C1238     1.0  0.04085  0.87270  0.36966  1.0000
  H   H988      1.0  0.05047  0.95441  0.37686  1.0000
  H   H989      1.0  0.37324  0.93344  0.38440  1.0000
  C   C1239     1.0  0.31217  0.95753  0.42000  1.0000
  C   C1240     1.0  0.21924  0.88939  0.43817  1.0000
  C   C1241     1.0  0.09564  0.86448  0.32277  1.0000
  C   C1242     1.0  0.45103  0.74742  0.14384  1.0000
  C   C1243     1.0  0.36119  0.81091  0.03747  1.0000
  H   H990      1.0  0.12291  0.84550  0.32122  1.0000
  C   C1244     1.0  0.09437  0.89244  0.29129  1.0000
  H   H991      1.0  0.47918  0.91546  0.18636  1.0000
  C   C1245     1.0  0.21578  0.95305  0.41337  1.0000
  H   H992      1.0  0.33388  0.93747  0.28052  1.0000
  H   H993      1.0  0.06370  0.87206  0.22795  1.0000
  H   H994      1.0  0.25753  0.91927  0.41378  1.0000
  H   H995      1.0  0.44646  0.97699  0.29477  1.0000
  C   C1246     1.0  0.37221  0.79246  0.03555  1.0000
  C   C1247     1.0  0.11352  0.88629  0.28122  1.0000
  H   H996      1.0  0.12097  0.89539  0.26604  1.0000
  C   C1248     1.0  0.08254  0.75124  0.17381  1.0000
  C   C1249     1.0  0.19643  0.96113  0.41955  1.0000
  C   C1250     1.0  0.05510  0.92657  0.35563  1.0000
  C   C1251     1.0  0.45623  0.76773  0.14959  1.0000
  C   C1252     1.0  0.37530  0.89438  0.28103  1.0000
  C   C1253     1.0  0.36188  0.77370  0.03599  1.0000
  C   C1254     1.0  0.02975  0.83740  0.37121  1.0000
  H   H997      1.0  0.28263  0.97799  0.35051  1.0000
  C   C1255     1.0  0.43594  0.76628  0.02735  1.0000
  H   H998      1.0  0.04401  0.77663  0.15085  1.0000
  H   H999      1.0  0.00622  0.92723  0.25547  1.0000
  P   P40       1.0  0.37359  0.95636  0.29211  1.0000
  C   C1256     1.0  0.27712  0.97927  0.43681  1.0000
  H   H1000     1.0  0.39676  0.91770  0.28999  1.0000
  C   C1257     1.0  0.39926  0.95985  0.27884  1.0000
  Fe  Fe88      1.0  0.02267  0.99282  0.26297  1.0000
  H   H1001     1.0  0.18528  0.74527  0.31393  1.0000
  H   H1002     1.0  0.05373  0.84843  0.31358  1.0000
  H   H1003     1.0  0.31047  0.97604  0.38527  1.0000
  H   H1004     1.0  0.32427  0.90199  0.27207  1.0000
  C   C1258     1.0  0.04915  0.86997  0.34461  1.0000
  H   H1005     1.0  0.13892  0.86501  0.28482  1.0000
  C   C1259     1.0  0.30331  0.95313  0.44432  1.0000
  C   C1260     1.0  0.04753  0.85079  0.33295  1.0000
  P   P41       1.0  0.06171  0.89079  0.32728  1.0000
  C   C1261     1.0  0.06845  0.91007  0.35023  1.0000
  H   H1006     1.0  0.36136  0.75561  0.08743  1.0000
  H   H1007     1.0  0.03310  0.78458  0.19586  1.0000
  H   H1008     1.0  0.20996  0.88674  0.47803  1.0000
  C   C1262     1.0  0.23586  0.90710  0.47295  1.0000
  H   H1009     1.0  0.08774  0.75102  0.23914  1.0000
  H   H1010     1.0  0.20715  0.78595  0.20347  1.0000
  H   H1011     1.0  0.02934  0.87964  0.13810  1.0000
  C   C1263     1.0  0.03428  0.80593  0.13527  1.0000
  H   H1012     1.0  0.45913  0.76529  0.05660  1.0000
  C   C1264     1.0  0.40412  0.95324  0.25364  1.0000
  C   C1265     1.0  0.37304  0.96003  0.32680  1.0000
  C   C1266     1.0  0.25552  0.99420  0.48285  1.0000
  C   C1267     1.0  0.48543  0.76589  0.12011  1.0000
  P   P42       1.0  0.37572  0.74958  0.03410  1.0000
  H   H1013     1.0  0.02249  0.83561  0.12481  1.0000
  H   H1014     1.0  0.07298  0.97213  0.48764  1.0000
  H   H1015     1.0  0.48944  0.93831  0.29766  1.0000
  H   H1016     1.0  0.33133  0.82507  0.04153  1.0000
  H   H1017     1.0  0.18158  0.96284  0.48344  1.0000
  C   C1268     1.0  0.22085  0.89363  0.46451  1.0000
  C   C1269     1.0  0.43932  0.96368  0.25828  1.0000
  C   C1270     1.0  0.02678  0.90502  0.20657  1.0000
  C   C1271     1.0  0.01496  0.89134  0.19295  1.0000
  H   H1018     1.0  0.33255  0.97020  0.30835  1.0000
  H   H1019     1.0  0.21841  0.75865  0.32801  1.0000
  C   C1272     1.0  0.23181  0.98007  0.43728  1.0000
  C   C1273     1.0  0.41464  0.96857  0.29354  1.0000
  C   C1274     1.0  0.36036  0.98497  0.25458  1.0000
  C   C1275     1.0  0.35559  0.97436  0.27782  1.0000
  C   C1276     1.0  0.25339  0.99119  0.34082  1.0000
  C   C1277     1.0  0.40999  0.74943  0.06579  1.0000
  H   H1020     1.0  0.10222  0.76695  0.14619  1.0000
  H   H1021     1.0  0.18599  0.75862  0.18523  1.0000
  H   H1022     1.0  0.03670  0.81981  0.33719  1.0000
  C   C1278     1.0  0.02056  0.87050  0.19186  1.0000
  C   C1279     1.0  0.44336  0.76203  0.05210  1.0000
  H   H1023     1.0  0.37560  0.92780  0.33736  1.0000
  S   S178      1.0  0.04663  0.98422  0.29366  1.0000
  H   H1024     1.0  0.37510  0.98301  0.24494  1.0000
  S   S179      1.0  0.48758  0.95556  0.20518  1.0000
  H   H1025     1.0  0.41135  0.97417  0.31282  1.0000
  H   H1026     1.0  0.33211  0.75941  0.03894  1.0000
  H   H1027     1.0  0.36904  0.96874  0.40122  1.0000
  H   H1028     1.0  0.00144  0.89710  0.18319  1.0000
  C   C1280     1.0  0.40238  0.75369  0.04103  1.0000
  H   H1029     1.0  0.22537  0.98165  0.49088  1.0000
  H   H1030     1.0  0.13769  0.75918  0.32764  1.0000
  H   H1031     1.0  0.41003  0.76540  0.00249  1.0000
  H   H1032     1.0  0.44597  0.77290  0.01253  1.0000
  P   P43       1.0  0.25446  0.99300  0.44783  1.0000
  H   H1033     1.0  0.13773  0.97275  0.24574  1.0000
  H   H1034     1.0  0.14561  0.98059  0.29099  1.0000
  C   C1281     1.0  0.20588  0.94183  0.49366  1.0000
  S   S180      1.0  0.29623  0.96871  0.61584  1.0000
  C   C1282     1.0  0.27931  0.91879  0.50424  1.0000
  C   C1283     1.0  0.00094  0.84843  0.83624  1.0000
  C   C1284     1.0  0.02296  0.78677  0.84273  1.0000
  H   H1035     1.0  0.10538  0.98327  0.68052  1.0000
  H   H1036     1.0  0.18619  0.82260  0.58265  1.0000
  C   C1285     1.0  0.29785  0.92706  0.51193  1.0000
  H   H1037     1.0  0.40827  0.77943  0.72993  1.0000
  C   C1286     1.0  0.30871  0.74667  0.76446  1.0000
  H   H1038     1.0  0.38100  0.74728  0.81901  1.0000
  C   C1287     1.0  0.37231  0.78387  0.79047  1.0000
  Fe  Fe89      1.0  0.18000  0.87543  0.63215  1.0000
  S   S181      1.0  0.14876  0.87506  0.61440  1.0000
  S   S182      1.0  0.19544  0.84407  0.64206  1.0000
  Fe  Fe90      1.0  0.18455  0.92146  0.61735  1.0000
  S   S183      1.0  0.15370  0.92313  0.59843  1.0000
  S   S184      1.0  0.20024  0.95258  0.61496  1.0000
  Fe  Fe91      1.0  0.14257  0.90546  0.63368  1.0000
  S   S185      1.0  0.11108  0.91084  0.65365  1.0000
  Fe  Fe92      1.0  0.16245  0.89307  0.58069  1.0000
  S   S186      1.0  0.15812  0.88113  0.53955  1.0000
  S   S187      1.0  0.17303  0.90486  0.65369  1.0000
  S   S188      1.0  0.19397  0.89242  0.59743  1.0000
  H   H1039     1.0  0.12113  0.88207  0.69685  1.0000
  C   C1288     1.0  0.15847  0.89253  0.50786  1.0000
  H   H1040     1.0  0.05192  0.76672  0.62937  1.0000
  C   C1289     1.0  0.36946  0.76798  0.77297  1.0000
  H   H1041     1.0  0.15208  0.92334  0.51981  1.0000
  C   C1290     1.0  0.13626  0.83258  0.56898  1.0000
  C   C1291     1.0  0.19839  0.82521  0.66760  1.0000
  C   C1292     1.0  0.19390  0.82931  0.69368  1.0000
  C   C1293     1.0  0.19630  0.81382  0.71299  1.0000
  C   C1294     1.0  0.20324  0.79394  0.70673  1.0000
  C   C1295     1.0  0.20781  0.78985  0.68066  1.0000
  C   C1296     1.0  0.20545  0.80536  0.66134  1.0000
  H   H1042     1.0  0.18870  0.84446  0.69902  1.0000
  H   H1043     1.0  0.19277  0.81730  0.73302  1.0000
  H   H1044     1.0  0.21319  0.77473  0.67538  1.0000
  H   H1045     1.0  0.20907  0.80189  0.64134  1.0000
  C   C1297     1.0  0.07777  0.96675  0.69007  1.0000
  C   C1298     1.0  0.09790  0.96862  0.67992  1.0000
  C   C1299     1.0  0.10838  0.95177  0.66873  1.0000
  C   C1300     1.0  0.09890  0.93269  0.66779  1.0000
  C   C1301     1.0  0.07888  0.93076  0.67827  1.0000
  C   C1302     1.0  0.06838  0.94762  0.68938  1.0000
  C   C1303     1.0  0.33871  0.95964  0.66262  1.0000
  H   H1046     1.0  0.12374  0.95355  0.66080  1.0000
  H   H1047     1.0  0.07138  0.91609  0.67771  1.0000
  H   H1048     1.0  0.05296  0.94585  0.69714  1.0000
  C   C1304     1.0  0.44081  0.96760  0.71285  1.0000
  P   P44       1.0  0.12751  0.80759  0.64164  1.0000
  H   H1049     1.0  0.08608  0.89499  0.60960  1.0000
  C   C1305     1.0  0.16497  0.75804  0.65544  1.0000
  C   C1306     1.0  0.26955  0.96449  0.61398  1.0000
  C   C1307     1.0  0.26222  0.94441  0.61707  1.0000
  C   C1308     1.0  0.24107  0.94042  0.61675  1.0000
  C   C1309     1.0  0.22704  0.95654  0.61342  1.0000
  C   C1310     1.0  0.23439  0.97656  0.60956  1.0000
  C   C1311     1.0  0.25556  0.98054  0.60982  1.0000
  H   H1050     1.0  0.27296  0.93189  0.62015  1.0000
  H   H1051     1.0  0.23562  0.92495  0.61968  1.0000
  H   H1052     1.0  0.31231  0.94798  0.53758  1.0000
  C   C1312     1.0  0.10502  0.86026  0.67428  1.0000
  H   H1053     1.0  0.02128  0.84403  0.89351  1.0000
  H   H1054     1.0  0.27977  0.95888  0.55873  1.0000
  H   H1055     1.0  0.15109  0.77246  0.62239  1.0000
  H   H1056     1.0  0.18545  0.94728  0.56435  1.0000
  C   C1313     1.0  0.23913  0.98760  0.49893  1.0000
  C   C1314     1.0  0.12209  0.86758  0.68694  1.0000
  H   H1057     1.0  0.00910  0.85590  0.85128  1.0000
  H   H1058     1.0  0.15840  0.97349  0.61206  1.0000
  P   P45       1.0  0.01579  0.81115  0.85657  1.0000
  C   C1315     1.0  0.07790  0.95079  0.89019  1.0000
  C   C1316     1.0  0.39819  0.78069  0.74679  1.0000
  C   C1317     1.0  0.34587  0.97078  0.78786  1.0000
  C   C1318     1.0  0.00722  0.80239  0.90883  1.0000
  C   C1319     1.0  0.42848  0.94035  0.74123  1.0000
  H   H1059     1.0  0.09327  0.83693  0.65021  1.0000
  C   C1320     1.0  0.18918  0.95479  0.49909  1.0000
  H   H1060     1.0  0.07209  0.95561  0.53108  1.0000
  C   C1321     1.0  0.46972  0.76964  0.85387  1.0000
  H   H1061     1.0  0.15968  0.77387  0.71762  1.0000
  H   H1062     1.0  0.41607  0.76946  0.92704  1.0000
  C   C1322     1.0  0.48449  0.76138  0.97464  1.0000
  H   H1063     1.0  0.20068  0.88962  0.52243  1.0000
  H   H1064     1.0  0.44094  0.76969  0.83395  1.0000
  C   C1323     1.0  0.03917  0.76739  0.80789  1.0000
  C   C1324     1.0  0.00206  0.82705  0.83348  1.0000
  C   C1325     1.0  0.16738  0.75841  0.68225  1.0000
  H   H1065     1.0  0.03422  0.79999  0.80644  1.0000
  H   H1066     1.0  0.13147  0.95940  0.58510  1.0000
  C   C1326     1.0  0.02045  0.76845  0.85712  1.0000
  C   C1327     1.0  0.08061  0.77542  0.61108  1.0000
  H   H1067     1.0  0.04034  0.97159  0.65736  1.0000
  P   P46       1.0  0.37854  0.97511  0.71918  1.0000
  H   H1068     1.0  0.08423  0.96259  0.85181  1.0000
  H   H1069     1.0  0.48714  0.94038  0.79961  1.0000
  H   H1070     1.0  0.36417  0.99351  0.76822  1.0000
  H   H1071     1.0  0.45335  0.97550  0.70299  1.0000
  H   H1072     1.0  0.06117  0.94296  0.77868  1.0000
  C   C1328     1.0  0.17015  0.74889  0.90429  1.0000
  H   H1073     1.0  0.24705  0.94481  0.54522  1.0000
  H   H1074     1.0  0.07333  0.96380  0.63521  1.0000
  C   C1329     1.0  0.35815  0.97819  0.76727  1.0000
  C   C1330     1.0  0.10726  0.97875  0.60065  1.0000
  C   C1331     1.0  0.38812  0.79790  0.78628  1.0000
  H   H1075     1.0  0.39609  0.93955  0.74847  1.0000
  C   C1332     1.0  0.42073  0.97482  0.71003  1.0000
  S   S189      1.0  0.00254  0.97884  0.71707  1.0000
  C   C1333     1.0  0.49415  0.91077  0.81720  1.0000
  H   H1076     1.0  0.04639  0.76689  0.78881  1.0000
  H   H1077     1.0  0.34251  0.98039  0.80435  1.0000
  H   H1078     1.0  0.04975  0.95742  0.82051  1.0000
  C   C1334     1.0  0.05110  0.96822  0.91469  1.0000
  H   H1079     1.0  0.27503  0.98427  0.67906  1.0000
  C   C1335     1.0  0.32188  0.78110  0.76619  1.0000
  C   C1336     1.0  0.07959  0.97980  0.50386  1.0000
  C   C1337     1.0  0.40833  0.94757  0.73838  1.0000
  H   H1080     1.0  0.07753  0.76786  0.59310  1.0000
  H   H1081     1.0  0.19614  0.85894  0.55022  1.0000
  C   C1338     1.0  0.18189  0.95685  0.52456  1.0000
  C   C1339     1.0  0.03829  0.82429  0.86722  1.0000
  C   C1340     1.0  0.03626  0.83979  0.88567  1.0000
  C   C1341     1.0  0.05353  0.84996  0.89416  1.0000
  C   C1342     1.0  0.07299  0.84472  0.88438  1.0000
  C   C1343     1.0  0.07518  0.82926  0.86613  1.0000
  C   C1344     1.0  0.05793  0.81906  0.85758  1.0000
  H   H1082     1.0  0.34494  0.95492  0.62204  1.0000
  C   C1345     1.0  0.15282  0.77295  0.64318  1.0000
  H   H1083     1.0  0.16876  0.96665  0.52874  1.0000
  H   H1084     1.0  0.43158  0.92698  0.75335  1.0000
  C   C1346     1.0  0.19124  0.94588  0.54463  1.0000
  H   H1085     1.0  0.04690  0.98109  0.56197  1.0000
  H   H1086     1.0  0.05944  0.78316  0.67100  1.0000
  H   H1087     1.0  0.11069  0.82696  0.59492  1.0000
  H   H1088     1.0  0.12059  0.90779  0.53965  1.0000
  C   C1347     1.0  0.06607  0.95279  0.91294  1.0000
  C   C1348     1.0  0.04574  0.97866  0.58271  1.0000
  S   S190      1.0  0.06497  0.98894  0.70248  1.0000
  H   H1089     1.0  0.00060  0.79680  0.94946  1.0000
  H   H1090     1.0  0.27185  0.78165  0.74838  1.0000
  C   C1349     1.0  0.17628  0.74489  0.87872  1.0000
  C   C1350     1.0  0.08892  0.79424  0.65786  1.0000
  H   H1091     1.0  0.30041  0.80532  0.75651  1.0000
  H   H1092     1.0  0.05180  0.86195  0.90831  1.0000
  H   H1093     1.0  0.08638  0.85262  0.89092  1.0000
  H   H1094     1.0  0.09028  0.82517  0.85855  1.0000
  C   C1351     1.0  0.99900  0.80682  0.88438  1.0000
  C   C1352     1.0  0.07042  0.78403  0.65496  1.0000
  C   C1353     1.0  0.12709  0.82518  0.59200  1.0000
  S   S191      1.0  0.20578  0.77505  0.73230  1.0000
  C   C1354     1.0  0.06621  0.77472  0.63154  1.0000
  H   H1095     1.0  0.06862  0.94250  0.92930  1.0000
  H   H1096     1.0  0.06012  0.80714  0.84353  1.0000
  H   H1097     1.0  0.07683  0.93132  0.61324  1.0000
  C   C1355     1.0  0.06047  0.96897  0.62385  1.0000
  C   C1356     1.0  0.09913  0.78562  0.61394  1.0000
  C   C1357     1.0  0.16052  0.81529  0.60782  1.0000
  C   C1358     1.0  0.15446  0.91339  0.50350  1.0000
  H   H1098     1.0  0.17276  0.74632  0.64422  1.0000
  H   H1099     1.0  0.16459  0.83727  0.54767  1.0000
  H   H1100     1.0  0.31221  0.92179  0.50332  1.0000
  H   H1101     1.0  0.49054  0.93585  0.87740  1.0000
  P   P47       1.0  0.08754  0.96791  0.58120  1.0000
  C   C1359     1.0  0.47073  0.97396  0.83969  1.0000
  C   C1360     1.0  0.12753  0.97151  0.59832  1.0000
  H   H1102     1.0  0.46036  0.94489  0.73088  1.0000
  C   C1361     1.0  0.16964  0.82277  0.58486  1.0000
  H   H1103     1.0  0.09221  0.80095  0.67634  1.0000
  C   C1362     1.0  0.07918  0.97046  0.52847  1.0000
  C   C1363     1.0  0.07738  0.96999  0.76610  1.0000
  C   C1364     1.0  0.09310  0.94080  0.57796  1.0000
  C   C1365     1.0  0.10571  0.93387  0.55738  1.0000
  C   C1366     1.0  0.11072  0.91306  0.55537  1.0000
  C   C1367     1.0  0.10356  0.89904  0.57406  1.0000
  C   C1368     1.0  0.09108  0.90575  0.59458  1.0000
  C   C1369     1.0  0.08588  0.92653  0.59661  1.0000
  H   H1104     1.0  0.12707  0.83997  0.55420  1.0000
  C   C1370     1.0  0.06272  0.97179  0.59691  1.0000
  C   C1371     1.0  0.30278  0.78893  0.75872  1.0000
  H   H1105     1.0  0.22591  0.84262  0.57163  1.0000
  H   H1106     1.0  0.39708  0.96883  0.66724  1.0000
  C   C1372     1.0  0.48320  0.75838  0.86949  1.0000
  C   C1373     1.0  0.21138  0.86489  0.54660  1.0000
  H   H1107     1.0  0.45744  0.94984  0.86335  1.0000
  H   H1108     1.0  0.44466  0.76838  0.95746  1.0000
  H   H1109     1.0  0.11212  0.94451  0.54315  1.0000
  C   C1374     1.0  0.21402  0.88234  0.53081  1.0000
  H   H1110     1.0  0.10813  0.88305  0.57295  1.0000
  H   H1111     1.0  0.02362  0.80091  0.91109  1.0000
  H   H1112     1.0  0.45610  0.98001  0.83335  1.0000
  C   C1375     1.0  0.14534  0.78845  0.68468  1.0000
  H   H1113     1.0  0.09096  0.86926  0.67432  1.0000
  C   C1376     1.0  0.08793  0.98019  0.54954  1.0000
  H   H1114     1.0  0.23803  0.98353  0.66936  1.0000
  C   C1377     1.0  0.44473  0.95040  0.72853  1.0000
  H   H1115     1.0  0.18798  0.75410  0.86907  1.0000
  C   C1378     1.0  0.45133  0.76078  0.84584  1.0000
  C   C1379     1.0  0.40433  0.96506  0.72289  1.0000
  P   P48       1.0  0.23677  0.91366  0.50692  1.0000
  H   H1116     1.0  0.17027  0.80956  0.62311  1.0000
  H   H1117     1.0  0.33405  0.79170  0.76970  1.0000
  C   C1380     1.0  0.36815  0.96740  0.68870  1.0000
  C   C1381     1.0  0.34694  0.96451  0.68648  1.0000
  C   C1382     1.0  0.14327  0.78852  0.65765  1.0000
  C   C1383     1.0  0.35148  0.95801  0.64068  1.0000
  C   C1384     1.0  0.37252  0.96111  0.64263  1.0000
  C   C1385     1.0  0.38085  0.96583  0.66650  1.0000
  C   C1386     1.0  0.06491  0.98645  0.81387  1.0000
  C   C1387     1.0  0.05935  0.97939  0.87053  1.0000
  C   C1388     1.0  0.47150  0.95702  0.85659  1.0000
  H   H1118     1.0  0.39044  0.80992  0.80006  1.0000
  C   C1389     1.0  0.10642  0.84194  0.66067  1.0000
  C   C1390     1.0  0.36253  0.96584  0.74581  1.0000
  H   H1119     1.0  0.33661  0.96656  0.70295  1.0000
  H   H1120     1.0  0.32232  0.95774  0.66085  1.0000
  C   C1391     1.0  0.33794  0.95101  0.78721  1.0000
  C   C1392     1.0  0.34232  0.93859  0.76598  1.0000
  C   C1393     1.0  0.35460  0.94594  0.74538  1.0000
  H   H1121     1.0  0.01880  0.97240  0.85439  1.0000
  C   C1394     1.0  0.01401  0.98713  0.84654  1.0000
  C   C1395     1.0  0.14290  0.97970  0.61334  1.0000
  C   C1396     1.0  0.15745  0.77349  0.69687  1.0000
  H   H1122     1.0  0.08968  0.93900  0.88893  1.0000
  H   H1123     1.0  0.41345  0.80705  0.76138  1.0000
  C   C1397     1.0  0.07466  0.96412  0.86909  1.0000
  C   C1398     1.0  0.48683  0.77425  0.95263  1.0000
  H   H1124     1.0  0.38234  0.96056  0.62542  1.0000
  H   H1125     1.0  0.11036  0.78552  0.59817  1.0000
  H   H1126     1.0  0.01067  0.98398  0.63217  1.0000
  C   C1399     1.0  0.10316  0.79559  0.63712  1.0000
  H   H1127     1.0  0.41792  0.98821  0.69803  1.0000
  C   C1400     1.0  0.38242  0.76659  0.75096  1.0000
  C   C1401     1.0  0.49463  0.92568  0.79702  1.0000
  H   H1128     1.0  0.01290  0.76829  0.87598  1.0000
  H   H1129     1.0  0.22798  0.98291  0.53827  1.0000
  H   H1130     1.0  0.32841  0.94530  0.80317  1.0000
  H   H1131     1.0  0.33620  0.92325  0.76548  1.0000
  H   H1132     1.0  0.35799  0.93609  0.72912  1.0000
  C   C1402     1.0  0.14205  0.83846  0.67219  1.0000
  C   C1403     1.0  0.14065  0.85677  0.68570  1.0000
  C   C1404     1.0  0.13914  0.81604  0.61134  1.0000
  C   C1405     1.0  0.48886  0.98311  0.83085  1.0000
  C   C1406     1.0  0.12488  0.83067  0.66009  1.0000
  C   C1407     1.0  0.04177  0.97332  0.63646  1.0000
  C   C1408     1.0  0.04783  0.98157  0.89363  1.0000
  C   C1409     1.0  0.02700  0.98289  0.59537  1.0000
  H   H1133     1.0  0.15661  0.83052  0.67071  1.0000
  H   H1134     1.0  0.15412  0.86283  0.69462  1.0000
  C   C1410     1.0  0.40109  0.79628  0.76449  1.0000
  C   C1411     1.0  0.42458  0.75532  0.93014  1.0000
  H   H1135     1.0  0.36243  0.78527  0.80752  1.0000
  Fe  Fe93      1.0  0.99800  0.98397  0.75995  1.0000
  C   C1412     1.0  0.02506  0.98034  0.62225  1.0000
  C   C1413     1.0  0.21529  0.93063  0.51375  1.0000
  C   C1414     1.0  0.20786  0.93281  0.53932  1.0000
  H   H1136     1.0  0.08186  0.96379  0.74744  1.0000
  C   C1415     1.0  0.26063  0.92547  0.51548  1.0000
  C   C1416     1.0  0.23360  0.89057  0.52652  1.0000
  C   C1417     1.0  0.25048  0.88103  0.53844  1.0000
  C   C1418     1.0  0.24772  0.86373  0.55450  1.0000
  C   C1419     1.0  0.22816  0.85571  0.55867  1.0000
  H   H1137     1.0  0.26070  0.85671  0.56410  1.0000
  C   C1420     1.0  0.28668  0.77565  0.75414  1.0000
  C   C1421     1.0  0.26097  0.93997  0.53526  1.0000
  C   C1422     1.0  0.27956  0.94801  0.54309  1.0000
  H   H1138     1.0  0.22363  0.98912  0.60697  1.0000
  C   C1423     1.0  0.15751  0.83120  0.56533  1.0000
  H   H1139     1.0  0.13782  0.80000  0.69641  1.0000
  C   C1424     1.0  0.03221  0.78607  0.81791  1.0000
  H   H1140     1.0  0.21479  0.92434  0.55521  1.0000
  H   H1141     1.0  0.26576  0.88702  0.53584  1.0000
  H   H1142     1.0  0.34931  0.74665  0.94480  1.0000
  H   H1143     1.0  0.05517  0.75344  0.89511  1.0000
  H   H1144     1.0  0.06676  0.75095  0.94059  1.0000
  C   C1425     1.0  0.08243  0.99008  0.77200  1.0000
  C   C1426     1.0  0.32505  0.75984  0.76894  1.0000
  H   H1145     1.0  0.48595  0.91401  0.83508  1.0000
  H   H1146     1.0  0.47338  0.78522  0.84815  1.0000
  H   H1147     1.0  0.48258  0.76912  0.93362  1.0000
  H   H1148     1.0  0.17703  0.76136  0.91443  1.0000
  H   H1149     1.0  0.45295  0.99440  0.65412  1.0000
  C   C1427     1.0  0.02737  0.74984  0.84699  1.0000
  C   C1428     1.0  0.05938  0.96647  0.80745  1.0000
  H   H1150     1.0  0.04207  0.96993  0.93242  1.0000
  C   C1429     1.0  0.28966  0.75453  0.75705  1.0000
  C   C1430     1.0  0.29796  0.94174  0.53127  1.0000
  C   C1431     1.0  0.03683  0.74929  0.82248  1.0000
  C   C1432     1.0  0.06576  0.95824  0.78375  1.0000
  H   H1151     1.0  0.34997  0.76008  0.98899  1.0000
  H   H1152     1.0  0.42832  0.98706  0.61939  1.0000
  C   C1433     1.0  0.36052  0.74789  0.98375  1.0000
  C   C1434     1.0  0.49042  0.94909  0.86451  1.0000
  C   C1435     1.0  0.44097  0.75467  0.94717  1.0000
  H   H1153     1.0  0.38052  0.75459  0.73708  1.0000
  H   H1154     1.0  0.17727  0.74725  0.69168  1.0000
  C   C1436     1.0  0.24056  0.98824  0.52592  1.0000
  P   P49       1.0  0.34951  0.74942  0.77911  1.0000
  H   H1155     1.0  0.38225  0.99354  0.50506  1.0000
  H   H1156     1.0  0.01403  0.98842  0.58441  1.0000
  H   H1157     1.0  0.03637  0.99365  0.89538  1.0000
  S   S192      1.0  0.52562  0.21148  0.12209  1.0000
  C   C1437     1.0  0.83542  0.08347  0.48519  1.0000
  H   H1158     1.0  0.59914  0.00702  0.45305  1.0000
  H   H1159     1.0  0.55598  0.04312  0.27925  1.0000
  C   C1438     1.0  0.74610  0.03853  0.46994  1.0000
  S   S193      1.0  0.51064  0.02879  0.27083  1.0000
  H   H1160     1.0  0.92816  0.17749  0.16255  1.0000
  Fe  Fe94      1.0  0.97830  0.01164  0.26057  1.0000
  S   S194      1.0  0.95105  0.01920  0.28825  1.0000
  S   S195      1.0  0.97688  0.00683  0.21743  1.0000
  Fe  Fe95      1.0  0.81175  0.09063  0.34189  1.0000
  S   S196      1.0  0.83929  0.07551  0.35932  1.0000
  S   S197      1.0  0.78414  0.07363  0.32653  1.0000
  Fe  Fe96      1.0  0.82894  0.13426  0.34815  1.0000
  S   S198      1.0  0.85758  0.12142  0.36703  1.0000
  S   S199      1.0  0.82719  0.16964  0.34373  1.0000
  Fe  Fe97      1.0  0.85820  0.09784  0.33545  1.0000
  S   S200      1.0  0.88631  0.09261  0.30827  1.0000
  Fe  Fe98      1.0  0.83660  0.10003  0.38975  1.0000
  S   S201      1.0  0.83649  0.08724  0.43183  1.0000
  S   S202      1.0  0.83058  0.11172  0.31577  1.0000
  S   S203      1.0  0.80799  0.11420  0.37296  1.0000
  H   H1161     1.0  0.55743  0.12193  0.29863  1.0000
  C   C1439     1.0  0.81443  0.18766  0.32270  1.0000
  C   C1440     1.0  0.79957  0.18186  0.30521  1.0000
  C   C1441     1.0  0.78949  0.19680  0.28966  1.0000
  C   C1442     1.0  0.79420  0.21778  0.29102  1.0000
  C   C1443     1.0  0.80942  0.22354  0.30808  1.0000
  C   C1444     1.0  0.81929  0.20862  0.32390  1.0000
  H   H1162     1.0  0.79558  0.16588  0.30391  1.0000
  H   H1163     1.0  0.77781  0.19207  0.27657  1.0000
  H   H1164     1.0  0.79978  0.01609  0.47883  1.0000
  H   H1165     1.0  0.83073  0.21337  0.33729  1.0000
  C   C1445     1.0  0.84756  0.11602  0.46857  1.0000
  C   C1446     1.0  0.84002  0.09650  0.46381  1.0000
  H   H1166     1.0  0.56179  0.02155  0.35750  1.0000
  H   H1167     1.0  0.85129  0.12621  0.45243  1.0000
  C   C1447     1.0  0.85492  0.16691  0.27765  1.0000
  C   C1448     1.0  0.90421  0.07200  0.30325  1.0000
  C   C1449     1.0  0.91872  0.07355  0.28267  1.0000
  C   C1450     1.0  0.93314  0.05765  0.27773  1.0000
  C   C1451     1.0  0.93326  0.03989  0.29336  1.0000
  C   C1452     1.0  0.91867  0.03829  0.31385  1.0000
  C   C1453     1.0  0.90430  0.05422  0.31882  1.0000
  H   H1168     1.0  0.91884  0.08720  0.27047  1.0000
  H   H1169     1.0  0.94419  0.05918  0.26192  1.0000
  H   H1170     1.0  0.91857  0.02468  0.32611  1.0000
  H   H1171     1.0  0.89332  0.05279  0.33470  1.0000
  C   C1454     1.0  0.75375  0.01301  0.35339  1.0000
  C   C1455     1.0  0.77334  0.01801  0.36206  1.0000
  C   C1456     1.0  0.78282  0.03654  0.35431  1.0000
  C   C1457     1.0  0.77276  0.05032  0.33769  1.0000
  C   C1458     1.0  0.75313  0.04536  0.32912  1.0000
  C   C1459     1.0  0.74361  0.02691  0.33704  1.0000
  C   C1460     1.0  0.53989  0.18882  0.01158  1.0000
  H   H1172     1.0  0.79798  0.04004  0.36086  1.0000
  H   H1173     1.0  0.74523  0.05588  0.31622  1.0000
  H   H1174     1.0  0.72857  0.02329  0.33015  1.0000
  H   H1175     1.0  0.82352  0.15487  0.40512  1.0000
  C   C1461     1.0  0.60239  0.02243  0.20587  1.0000
  C   C1462     1.0  0.91013  0.22805  0.23660  1.0000
  C   C1463     1.0  0.84157  0.01222  0.36421  1.0000
  H   H1176     1.0  0.83764  0.07036  0.29144  1.0000
  C   C1464     1.0  0.78197  0.12199  0.49037  1.0000
  C   C1465     1.0  0.80765  0.15527  0.41184  1.0000
  H   H1177     1.0  0.99103  0.07346  0.18422  1.0000
  H   H1178     1.0  0.96673  0.07651  0.22151  1.0000
  H   H1179     1.0  0.50933  0.22361  0.07204  1.0000
  C   C1466     1.0  0.49884  0.11260  0.16982  1.0000
  H   H1180     1.0  0.76333  0.18177  0.40175  1.0000
  C   C1467     1.0  0.74310  0.12238  0.46498  1.0000
  C   C1468     1.0  0.50872  0.09905  0.18732  1.0000
  C   C1469     1.0  0.98176  0.23761  0.08744  1.0000
  H   H1181     1.0  0.79993  0.18147  0.38790  1.0000
  C   C1470     1.0  0.82708  0.22913  0.22921  1.0000
  H   H1182     1.0  0.52394  0.16012  0.00749  1.0000
  H   H1183     1.0  0.96812  0.23403  0.12556  1.0000
  C   C1471     1.0  0.85045  0.02141  0.30940  1.0000
  H   H1184     1.0  0.83563  0.02553  0.48553  1.0000
  C   C1472     1.0  0.77630  0.07562  0.40485  1.0000
  C   C1473     1.0  0.78604  0.05962  0.41821  1.0000
  C   C1474     1.0  0.79102  0.06187  0.44417  1.0000
  C   C1475     1.0  0.78634  0.08015  0.45683  1.0000
  C   C1476     1.0  0.77667  0.09636  0.44347  1.0000
  C   C1477     1.0  0.77169  0.09394  0.41738  1.0000
  P   P50       1.0  0.77040  0.12025  0.45901  1.0000
  H   H1185     1.0  0.52118  0.10454  0.19868  1.0000
  H   H1186     1.0  0.66010  0.10149  0.26030  1.0000
  H   H1187     1.0  0.81331  0.23953  0.30942  1.0000
  C   C1478     1.0  0.87184  0.15461  0.27111  1.0000
  C   C1479     1.0  0.80539  0.21320  0.49216  1.0000
  C   C1480     1.0  0.53936  0.17872  0.06473  1.0000
  C   C1481     1.0  0.83978  0.04021  0.30885  1.0000
  H   H1188     1.0  0.80028  0.22184  0.17441  1.0000
  C   C1482     1.0  0.77964  0.14033  0.43735  1.0000
  C   C1483     1.0  0.76632  0.15547  0.42745  1.0000
  H   H1189     1.0  0.77275  0.07405  0.38457  1.0000
  H   H1190     1.0  0.78994  0.04560  0.40832  1.0000
  H   H1191     1.0  0.79917  0.04974  0.45420  1.0000
  C   C1484     1.0  0.76258  0.00591  0.46082  1.0000
  H   H1192     1.0  0.76451  0.10634  0.40652  1.0000
  Fe  Fe99      1.0  0.50887  0.02983  0.22729  1.0000
  H   H1193     1.0  0.99362  0.15492  0.07558  1.0000
  S   S204      1.0  0.52785  0.00053  0.22296  1.0000
  H   H1194     1.0  0.66686  0.03929  0.28805  1.0000
  C   C1485     1.0  0.50293  0.07838  0.18982  1.0000
  H   H1195     1.0  0.81291  0.01149  0.42035  1.0000
  C   C1486     1.0  0.61055  0.99687  0.28007  1.0000
  C   C1487     1.0  0.80032  0.14022  0.42921  1.0000
  H   H1196     1.0  0.60372  0.23137  0.02428  1.0000
  C   C1488     1.0  0.82636  0.00636  0.38248  1.0000
  H   H1197     1.0  0.83456  0.20972  0.15898  1.0000
  H   H1198     1.0  0.53876  0.17507  0.08534  1.0000
  C   C1489     1.0  0.77368  0.17037  0.40986  1.0000
  C   C1490     1.0  0.95859  0.16491  0.16713  1.0000
  H   H1199     1.0  0.86795  0.06546  0.26245  1.0000
  H   H1200     1.0  0.93877  0.21340  0.16888  1.0000
  H   H1201     1.0  0.88737  0.03260  0.26354  1.0000
  P   P51       1.0  0.86796  0.22189  0.24208  1.0000
  H   H1202     1.0  0.98139  0.16093  0.12030  1.0000
  C   C1491     1.0  0.97237  0.09021  0.21165  1.0000
  H   H1203     1.0  0.57979  0.01463  0.17792  1.0000
  H   H1204     1.0  0.87278  0.13894  0.27852  1.0000
  H   H1205     1.0  0.61439  0.01306  0.19716  1.0000
  H   H1206     1.0  0.59733  0.03460  0.35819  1.0000
  H   H1207     1.0  0.68225  0.07293  0.27612  1.0000
  C   C1492     1.0  0.98751  0.12561  0.18635  1.0000
  C   C1493     1.0  0.85376  0.18717  0.26849  1.0000
  H   H1208     1.0  0.83780  0.03842  0.43137  1.0000
  H   H1209     1.0  0.61738  0.24066  0.06690  1.0000
  H   H1210     1.0  0.84739  0.00769  0.24170  1.0000
  C   C1494     1.0  0.58296  0.02327  0.19506  1.0000
  C   C1495     1.0  0.58826  0.03682  0.34102  1.0000
  H   H1211     1.0  0.55460  0.21665  0.02306  1.0000
  H   H1212     1.0  0.84271  0.16075  0.28999  1.0000
  H   H1213     1.0  0.81072  0.12825  0.43589  1.0000
  C   C1496     1.0  0.54809  0.19705  0.05593  1.0000
  H   H1214     1.0  0.90039  0.15278  0.24966  1.0000
  H   H1215     1.0  0.96922  0.14207  0.21489  1.0000
  H   H1216     1.0  0.95381  0.14936  0.16381  1.0000
  C   C1497     1.0  0.97378  0.12720  0.20763  1.0000
  C   C1498     1.0  0.56755  0.03539  0.20630  1.0000
  C   C1499     1.0  0.66590  0.07075  0.27435  1.0000
  C   C1500     1.0  0.85589  0.02697  0.37098  1.0000
  C   C1501     1.0  0.57075  0.11333  0.23565  1.0000
  C   C1502     1.0  0.56209  0.12310  0.25719  1.0000
  C   C1503     1.0  0.56413  0.11434  0.28194  1.0000
  C   C1504     1.0  0.57460  0.09567  0.28514  1.0000
  C   C1505     1.0  0.58294  0.08554  0.26352  1.0000
  C   C1506     1.0  0.58131  0.09472  0.23879  1.0000
  P   P52       1.0  0.59616  0.06124  0.26746  1.0000
  C   C1507     1.0  0.58547  0.04861  0.29618  1.0000
  C   C1508     1.0  0.59096  0.04590  0.23948  1.0000
  C   C1509     1.0  0.57144  0.04654  0.22847  1.0000
  H   H1217     1.0  0.80225  0.14717  0.48005  1.0000
  C   C1510     1.0  0.85471  0.03604  0.39532  1.0000
  C   C1511     1.0  0.88635  0.18279  0.24576  1.0000
  C   C1512     1.0  0.60644  0.03383  0.22783  1.0000
  C   C1513     1.0  0.56521  0.04161  0.29629  1.0000
  C   C1514     1.0  0.97051  0.20538  0.17430  1.0000
  C   C1515     1.0  0.98507  0.18949  0.17536  1.0000
  H   H1218     1.0  0.82447  0.23417  0.24891  1.0000
  C   C1516     1.0  0.59673  0.04665  0.31906  1.0000
  C   C1517     1.0  0.62348  0.06509  0.27013  1.0000
  C   C1518     1.0  0.63227  0.08405  0.26335  1.0000
  C   C1519     1.0  0.65340  0.08683  0.26548  1.0000
  H   H1219     1.0  0.58206  0.00083  0.25970  1.0000
  C   C1520     1.0  0.65729  0.05184  0.28102  1.0000
  C   C1521     1.0  0.63623  0.04902  0.27884  1.0000
  H   H1220     1.0  0.56908  0.12007  0.21644  1.0000
  H   H1221     1.0  0.55376  0.13744  0.25466  1.0000
  C   C1522     1.0  0.86496  0.23200  0.29466  1.0000
  H   H1222     1.0  0.57595  0.08907  0.30445  1.0000
  H   H1223     1.0  0.58791  0.08737  0.22186  1.0000
  H   H1224     1.0  0.55919  0.05594  0.23662  1.0000
  S   S205      1.0  0.51691  0.06170  0.21092  1.0000
  H   H1225     1.0  0.89837  0.18838  0.23285  1.0000
  H   H1226     1.0  0.51077  0.21903  0.01178  1.0000
  H   H1227     1.0  0.62169  0.03313  0.23551  1.0000
  H   H1228     1.0  0.55252  0.03626  0.19778  1.0000
  C   C1523     1.0  0.98606  0.08849  0.19060  1.0000
  H   H1229     1.0  0.73252  0.05404  0.43712  1.0000
  C   C1524     1.0  0.88745  0.16249  0.25497  1.0000
  H   H1230     1.0  0.61205  0.05256  0.32021  1.0000
  H   H1231     1.0  0.62291  0.09672  0.25646  1.0000
  C   C1525     1.0  0.55662  0.03231  0.31853  1.0000
  H   H1232     1.0  0.83237  0.19419  0.48731  1.0000
  C   C1526     1.0  0.83251  0.21520  0.17855  1.0000
  H   H1233     1.0  0.62988  0.03430  0.28427  1.0000
  C   C1527     1.0  0.56824  0.02957  0.34072  1.0000
  C   C1528     1.0  0.94404  0.18082  0.16625  1.0000
  C   C1529     1.0  0.78486  0.99483  0.30317  1.0000
  H   H1234     1.0  0.73508  0.09507  0.44425  1.0000
  H   H1235     1.0  0.82957  0.06838  0.48180  1.0000
  H   H1236     1.0  0.68451  0.12713  0.47978  1.0000
  H   H1237     1.0  0.54115  0.02645  0.31820  1.0000
  C   C1530     1.0  0.95000  0.20105  0.16981  1.0000
  C   C1531     1.0  0.79432  0.17026  0.40206  1.0000
  C   C1532     1.0  0.87368  0.03442  0.27561  1.0000
  C   C1533     1.0  0.75681  0.02102  0.47874  1.0000
  H   H1238     1.0  0.52369  0.15142  0.05408  1.0000
  H   H1239     1.0  0.74152  0.05048  0.48315  1.0000
  S   S206      1.0  0.78017  0.23597  0.27156  1.0000
  H   H1240     1.0  0.84044  0.19644  0.27369  1.0000
  H   H1241     1.0  0.86771  0.03187  0.35724  1.0000
  H   H1242     1.0  0.97521  0.22113  0.17670  1.0000
  H   H1243     1.0  0.86538  0.04794  0.40011  1.0000
  H   H1244     1.0  0.97087  0.22108  0.00675  1.0000
  C   C1534     1.0  0.81321  0.22199  0.18720  1.0000
  H   H1245     1.0  0.82679  0.04289  0.32189  1.0000
  C   C1535     1.0  0.53086  0.16543  0.04710  1.0000
  C   C1536     1.0  0.70851  0.10957  0.46096  1.0000
  C   C1537     1.0  0.92774  0.23646  0.22485  1.0000
  H   H1246     1.0  0.86871  0.21620  0.29933  1.0000
  H   H1247     1.0  0.76116  0.99611  0.42108  1.0000
  C   C1538     1.0  0.86334  0.23890  0.26881  1.0000
  C   C1539     1.0  0.86756  0.01867  0.29272  1.0000
  C   C1540     1.0  0.83911  0.03065  0.41300  1.0000
  H   H1248     1.0  0.79103  0.08172  0.47662  1.0000
  H   H1249     1.0  0.56372  0.23307  0.12045  1.0000
  C   C1541     1.0  0.82506  0.01565  0.40669  1.0000
  Fe  Fe100     1.0  0.52704  0.99856  0.26661  1.0000
  C   C1542     1.0  0.53104  0.17046  0.02063  1.0000
  C   C1543     1.0  0.86976  0.19548  0.25311  1.0000
  C   C1544     1.0  0.54829  0.20215  0.02947  1.0000
  C   C1545     1.0  0.81049  0.22879  0.21255  1.0000
  H   H1250     1.0  0.95578  0.11084  0.23671  1.0000
  C   C1546     1.0  0.86278  0.05296  0.27499  1.0000
  S   S207      1.0  0.68264  0.99758  0.37015  1.0000
  H   H1251     1.0  0.80481  0.21753  0.47179  1.0000
  H   H1252     1.0  0.74205  0.02681  0.40618  1.0000
  H   H1253     1.0  0.94263  0.23352  0.23312  1.0000
  C   C1547     1.0  0.84581  0.05581  0.29155  1.0000
  C   C1548     1.0  0.96622  0.10956  0.22016  1.0000
  C   C1549     1.0  0.70084  0.12578  0.47574  1.0000
  H   H1254     1.0  0.57825  0.02858  0.48303  1.0000
  H   H1255     1.0  0.55422  0.20746  0.06986  1.0000
  H   H1256     1.0  0.61987  0.00292  0.26425  1.0000
  C   C1550     1.0  0.96545  0.23807  0.10545  1.0000
  H   H1257     1.0  0.75019  0.15559  0.43269  1.0000
  H   H1258     1.0  0.86390  0.20968  0.18843  1.0000
  C   C1551     1.0  0.97922  0.16908  0.17198  1.0000
  C   C1552     1.0  0.75727  0.00805  0.43477  1.0000
  C   C1553     1.0  0.74093  0.04064  0.44384  1.0000
  H   H1259     1.0  0.91156  0.21890  0.25421  1.0000
  C   C1554     1.0  0.74639  0.02536  0.42632  1.0000
  H   H1260     1.0  0.79542  0.23365  0.21940  1.0000
  H   H1261     1.0  0.69813  0.09834  0.45358  1.0000
  C   C1555     1.0  0.72956  0.10782  0.45562  1.0000
  C   C1556     1.0  0.84911  0.21534  0.19522  1.0000
  H   H1262     1.0  0.80832  0.01712  0.29961  1.0000
  H   H1263     1.0  0.78122  0.00736  0.37471  1.0000
  C   C1557     1.0  0.58781  0.01633  0.49071  1.0000
  C   C1558     1.0  0.97543  0.23472  0.99593  1.0000
  H   H1264     1.0  0.86235  0.24003  0.33487  1.0000
  C   C1559     1.0  0.84662  0.22278  0.22047  1.0000
  H   H1265     1.0  0.50377  0.12832  0.16775  1.0000
  C   C1560     1.0  0.89079  0.23180  0.22598  1.0000
  C   C1561     1.0  0.71423  0.14025  0.48527  1.0000
  H   H1266     1.0  0.74552  0.14982  0.48750  1.0000
  C   C1562     1.0  0.50796  0.23820  0.06180  1.0000
  C   C1563     1.0  0.53114  0.23788  0.12543  1.0000
  H   H1267     1.0  0.77419  0.00388  0.29176  1.0000
  H   H1268     1.0  0.92631  0.99905  0.13815  1.0000
  H   H1269     1.0  0.87654  0.00468  0.29318  1.0000
  C   C1564     1.0  0.58916  0.99549  0.27733  1.0000
  P   P53       1.0  0.84257  0.00146  0.33212  1.0000
  C   C1565     1.0  0.80432  0.00241  0.30799  1.0000
  C   C1566     1.0  0.59621  0.24325  0.03546  1.0000
  H   H1270     1.0  0.54038  0.24221  0.05797  1.0000
  C   C1567     1.0  0.73529  0.13853  0.47998  1.0000
  C   C1568     1.0  0.59953  0.00421  0.47381  1.0000
  C   C1569     1.0  0.99370  0.10606  0.17806  1.0000
  C   C1570     1.0  0.55167  0.24426  0.12395  1.0000
  C   C1571     1.0  0.97884  0.24369  0.06150  1.0000
  H   H1271     1.0  0.81523  0.99494  0.37800  1.0000
  S   S208      1.0  0.64668  0.99468  0.30660  1.0000
  C   C1572     1.0  0.91955  0.18751  0.87867  1.0000
  S   S209      1.0  0.52299  0.21957  0.87592  1.0000
  S   S210      1.0  0.71241  0.01899  0.62502  1.0000
  H   H1272     1.0  0.88112  0.14190  0.74357  1.0000
  C   C1573     1.0  0.86399  0.22347  0.71886  1.0000
  S   S211      1.0  0.98275  0.01497  0.75474  1.0000
  S   S212      1.0  0.96466  0.01557  0.68024  1.0000
  Fe  Fe101     1.0  0.84502  0.10309  0.58812  1.0000
  S   S213      1.0  0.81291  0.10133  0.60489  1.0000
  S   S214      1.0  0.85100  0.11767  0.54768  1.0000
  Fe  Fe102     1.0  0.86425  0.08689  0.63935  1.0000
  S   S215      1.0  0.83308  0.08407  0.65863  1.0000
  S   S216      1.0  0.89133  0.08131  0.66665  1.0000
  Fe  Fe103     1.0  0.82302  0.07077  0.62118  1.0000
  S   S217      1.0  0.80740  0.03990  0.61752  1.0000
  Fe  Fe104     1.0  0.82572  0.11522  0.64103  1.0000
  S   S218      1.0  0.80783  0.13873  0.66616  1.0000
  S   S219      1.0  0.85472  0.07171  0.60266  1.0000
  S   S220      1.0  0.85726  0.11873  0.62344  1.0000
  Fe  Fe105     1.0  0.98848  0.01065  0.71209  1.0000
  C   C1574     1.0  0.84643  0.10903  0.51564  1.0000
  C   C1575     1.0  0.60866  0.22827  0.83980  1.0000
  C   C1576     1.0  0.50649  0.22155  0.99185  1.0000
  H   H1273     1.0  0.77853  0.23085  0.50286  1.0000
  H   H1274     1.0  0.83474  0.07952  0.52705  1.0000
  C   C1577     1.0  0.80982  0.16539  0.67344  1.0000
  C   C1578     1.0  0.79488  0.17441  0.68991  1.0000
  C   C1579     1.0  0.79577  0.19531  0.69659  1.0000
  C   C1580     1.0  0.81158  0.20767  0.68669  1.0000
  C   C1581     1.0  0.82635  0.19875  0.66986  1.0000
  C   C1582     1.0  0.82555  0.17780  0.66334  1.0000
  H   H1275     1.0  0.78253  0.16511  0.69774  1.0000
  H   H1276     1.0  0.78418  0.20186  0.70935  1.0000
  H   H1277     1.0  0.83856  0.20813  0.66183  1.0000
  H   H1278     1.0  0.83710  0.17124  0.65051  1.0000
  C   C1583     1.0  0.94413  0.03378  0.67712  1.0000
  C   C1584     1.0  0.93154  0.03309  0.65531  1.0000
  C   C1585     1.0  0.91525  0.04731  0.65181  1.0000
  C   C1586     1.0  0.91132  0.06250  0.67012  1.0000
  C   C1587     1.0  0.92382  0.06308  0.69201  1.0000
  C   C1588     1.0  0.94007  0.04884  0.69553  1.0000
  H   H1279     1.0  0.93452  0.02155  0.64090  1.0000
  H   H1280     1.0  0.90593  0.04667  0.63479  1.0000
  H   H1281     1.0  0.92104  0.07477  0.70628  1.0000
  H   H1282     1.0  0.94961  0.04966  0.71235  1.0000
  C   C1589     1.0  0.73870  0.02502  0.62069  1.0000
  C   C1590     1.0  0.75323  0.01035  0.61285  1.0000
  C   C1591     1.0  0.77414  0.01541  0.61120  1.0000
  C   C1592     1.0  0.78075  0.03512  0.61733  1.0000
  C   C1593     1.0  0.76616  0.05001  0.62424  1.0000
  C   C1594     1.0  0.74522  0.04495  0.62592  1.0000
  H   H1283     1.0  0.70301  0.03228  0.57040  1.0000
  H   H1284     1.0  0.78533  0.00384  0.60582  1.0000
  H   H1285     1.0  0.77104  0.06523  0.62900  1.0000
  H   H1286     1.0  0.73407  0.05641  0.63188  1.0000
  H   H1287     1.0  0.65441  0.04961  0.55081  1.0000
  H   H1288     1.0  0.57993  0.02277  0.53035  1.0000
  H   H1289     1.0  0.59949  0.02392  0.68219  1.0000
  C   C1595     1.0  0.80134  0.18432  0.76170  1.0000
  C   C1596     1.0  0.55918  0.01226  0.61537  1.0000
  H   H1290     1.0  0.51857  0.20752  0.93001  1.0000
  H   H1291     1.0  0.84500  0.00703  0.62033  1.0000
  H   H1292     1.0  0.50005  0.07031  0.76178  1.0000
  C   C1597     1.0  0.60099  0.99695  0.52764  1.0000
  C   C1598     1.0  0.84753  0.01931  0.68728  1.0000
  H   H1293     1.0  0.71312  0.06799  0.57849  1.0000
  S   S221      1.0  0.55733  0.01669  0.69618  1.0000
  C   C1599     1.0  0.76032  0.15259  0.56927  1.0000
  C   C1600     1.0  0.76266  0.13920  0.59046  1.0000
  C   C1601     1.0  0.79017  0.17157  0.58219  1.0000
  C   C1602     1.0  0.77390  0.16882  0.56524  1.0000
  C   C1603     1.0  0.83259  0.18638  0.58757  1.0000
  C   C1604     1.0  0.84117  0.16755  0.57994  1.0000
  C   C1605     1.0  0.86161  0.16275  0.58523  1.0000
  H   H1294     1.0  0.56908  0.17166  0.94640  1.0000
  C   C1606     1.0  0.72213  0.05877  0.56511  1.0000
  C   C1607     1.0  0.84458  0.19992  0.60152  1.0000
  H   H1295     1.0  0.83386  0.18415  0.53327  1.0000
  H   H1296     1.0  0.75207  0.12673  0.59382  1.0000
  H   H1297     1.0  0.77158  0.17912  0.54893  1.0000
  H   H1298     1.0  0.83224  0.15669  0.56946  1.0000
  H   H1299     1.0  0.86829  0.14839  0.57878  1.0000
  H   H1300     1.0  0.56482  0.14187  0.91845  1.0000
  C   C1608     1.0  0.80402  0.02160  0.49754  1.0000
  H   H1301     1.0  0.81154  0.23803  0.57595  1.0000
  C   C1609     1.0  0.51540  0.14784  0.93935  1.0000
  H   H1302     1.0  0.94449  0.03144  0.79369  1.0000
  H   H1303     1.0  0.92405  0.04805  0.75904  1.0000
  H   H1304     1.0  0.91301  0.17140  0.75009  1.0000
  C   C1610     1.0  0.59944  0.21378  0.97218  1.0000
  C   C1611     1.0  0.83841  0.08971  0.51090  1.0000
  H   H1305     1.0  0.83903  0.99800  0.57477  1.0000
  H   H1306     1.0  0.89593  0.14856  0.91194  1.0000
  C   C1612     1.0  0.62909  0.00416  0.74423  1.0000
  C   C1613     1.0  0.91368  0.01955  0.74393  1.0000
  H   H1307     1.0  0.70429  0.20050  0.81103  1.0000
  C   C1614     1.0  0.82171  0.19441  0.52714  1.0000
  P   P54       1.0  0.91076  0.22952  0.87361  1.0000
  C   C1615     1.0  0.80498  0.13832  0.51978  1.0000
  C   C1616     1.0  0.56651  0.02838  0.76590  1.0000
  C   C1617     1.0  0.55716  0.02740  0.79050  1.0000
  C   C1618     1.0  0.53694  0.17372  0.95773  1.0000
  H   H1308     1.0  0.78488  0.03202  0.55804  1.0000
  H   H1309     1.0  0.49720  0.10814  0.76513  1.0000
  C   C1619     1.0  0.67287  0.19838  0.82463  1.0000
  P   P55       1.0  0.87090  0.18582  0.74351  1.0000
  C   C1620     1.0  0.97272  0.22888  0.85994  1.0000
  H   H1310     1.0  0.80474  0.15991  0.61677  1.0000
  H   H1311     1.0  0.65118  0.02604  0.72958  1.0000
  C   C1621     1.0  0.49707  0.07713  0.78044  1.0000
  S   S222      1.0  0.49814  0.03735  0.80137  1.0000
  C   C1622     1.0  0.87687  0.16817  0.71776  1.0000
  C   C1623     1.0  0.56265  0.20947  0.96833  1.0000
  H   H1312     1.0  0.88878  0.11764  0.70837  1.0000
  C   C1624     1.0  0.55403  0.16518  0.94469  1.0000
  C   C1625     1.0  0.86490  0.19487  0.60719  1.0000
  C   C1626     1.0  0.53238  0.13963  0.92608  1.0000
  C   C1627     1.0  0.51763  0.16480  0.95510  1.0000
  C   C1628     1.0  0.83216  0.16787  0.74473  1.0000
  C   C1629     1.0  0.92437  0.03150  0.76119  1.0000
  H   H1313     1.0  0.56266  0.04078  0.75252  1.0000
  H   H1314     1.0  0.54613  0.03914  0.79627  1.0000
  C   C1630     1.0  0.58007  0.01285  0.75798  1.0000
  C   C1631     1.0  0.88997  0.23472  0.85180  1.0000
  C   C1632     1.0  0.75170  0.05455  0.53638  1.0000
  C   C1633     1.0  0.89882  0.16393  0.90454  1.0000
  C   C1634     1.0  0.95325  0.22548  0.87091  1.0000
  H   H1315     1.0  0.98633  0.22385  0.87005  1.0000
  H   H1316     1.0  0.91578  0.22512  0.93020  1.0000
  C   C1635     1.0  0.74635  0.03410  0.53232  1.0000
  H   H1317     1.0  0.74413  0.08235  0.55659  1.0000
  C   C1636     1.0  0.87746  0.21183  0.73415  1.0000
  C   C1637     1.0  0.57913  0.99963  0.57845  1.0000
  C   C1638     1.0  0.82092  0.20007  0.50090  1.0000
  C   C1639     1.0  0.79861  0.12505  0.53978  1.0000
  H   H1318     1.0  0.55853  0.01937  0.63423  1.0000
  C   C1640     1.0  0.82446  0.02680  0.50129  1.0000
  C   C1641     1.0  0.86779  0.24412  0.71330  1.0000
  C   C1642     1.0  0.88725  0.17305  0.81851  1.0000
  C   C1643     1.0  0.64583  0.02228  0.60662  1.0000
  H   H1319     1.0  0.58895  0.19477  0.88521  1.0000
  H   H1320     1.0  0.87224  0.19027  0.68651  1.0000
  C   C1644     1.0  0.93792  0.24364  0.83476  1.0000
  C   C1645     1.0  0.87943  0.99646  0.71003  1.0000
  H   H1321     1.0  0.59171  0.01399  0.61220  1.0000
  C   C1646     1.0  0.79248  0.15795  0.60327  1.0000
  H   H1322     1.0  0.95539  0.22879  0.96428  1.0000
  H   H1323     1.0  0.50419  0.17107  0.96497  1.0000
  C   C1647     1.0  0.58998  0.20413  0.86769  1.0000
  H   H1324     1.0  0.77913  0.09998  0.55092  1.0000
  H   H1325     1.0  0.53047  0.12669  0.91354  1.0000
  C   C1648     1.0  0.80687  0.20180  0.54488  1.0000
  C   C1649     1.0  0.87347  0.17639  0.59879  1.0000
  H   H1326     1.0  0.74790  0.15046  0.55605  1.0000
  C   C1650     1.0  0.83048  0.03401  0.52523  1.0000
  H   H1327     1.0  0.87133  0.03430  0.66467  1.0000
  C   C1651     1.0  0.88516  0.14025  0.67803  1.0000
  H   H1328     1.0  0.58652  0.01354  0.73846  1.0000
  H   H1329     1.0  0.90622  0.21246  0.75449  1.0000
  S   S223      1.0  0.81345  0.23435  0.69406  1.0000
  C   C1652     1.0  0.77528  0.10900  0.51080  1.0000
  C   C1653     1.0  0.87624  0.17462  0.69169  1.0000
  H   H1330     1.0  0.50038  0.14124  0.93714  1.0000
  C   C1654     1.0  0.89063  0.22681  0.82668  1.0000
  H   H1331     1.0  0.82735  0.00215  0.71285  1.0000
  C   C1655     1.0  0.51071  0.21504  0.94599  1.0000
  H   H1332     1.0  0.86020  0.18383  0.79954  1.0000
  C   C1656     1.0  0.68957  0.23013  0.81254  1.0000
  C   C1657     1.0  0.79763  0.21376  0.59927  1.0000
  H   H1333     1.0  0.80223  0.15439  0.74479  1.0000
  C   C1658     1.0  0.90647  0.20380  0.88573  1.0000
  C   C1659     1.0  0.63060  0.00925  0.59816  1.0000
  H   H1334     1.0  0.83837  0.21437  0.60816  1.0000
  C   C1660     1.0  0.90563  0.17186  0.76911  1.0000
  C   C1661     1.0  0.91583  0.16769  0.88830  1.0000
  H   H1335     1.0  0.93252  0.18996  0.86561  1.0000
  C   C1662     1.0  0.77866  0.14196  0.60749  1.0000
  H   H1336     1.0  0.66471  0.00333  0.69497  1.0000
  C   C1663     1.0  0.57349  0.20501  0.85089  1.0000
  C   C1664     1.0  0.57455  0.21736  0.82852  1.0000
  C   C1665     1.0  0.59206  0.22892  0.82291  1.0000
  H   H1337     1.0  0.87873  0.21217  0.90695  1.0000
  H   H1338     1.0  0.79324  0.00150  0.66345  1.0000
  C   C1666     1.0  0.84370  0.18506  0.75091  1.0000
  C   C1667     1.0  0.88125  0.14747  0.72369  1.0000
  C   C1668     1.0  0.88508  0.17826  0.77188  1.0000
  C   C1669     1.0  0.88548  0.13363  0.70387  1.0000
  H   H1339     1.0  0.87400  0.20536  0.61802  1.0000
  H   H1340     1.0  0.92612  0.15519  0.88308  1.0000
  H   H1341     1.0  0.88838  0.12939  0.66277  1.0000
  C   C1670     1.0  0.51748  0.21228  0.97145  1.0000
  C   C1671     1.0  0.76269  0.00811  0.67647  1.0000
  C   C1672     1.0  0.89539  0.22098  0.74284  1.0000
  H   H1342     1.0  0.78492  0.18424  0.76525  1.0000
  H   H1343     1.0  0.87219  0.17708  0.92361  1.0000
  C   C1673     1.0  0.81110  0.16750  0.75024  1.0000
  H   H1344     1.0  0.62467  0.99751  0.61122  1.0000
  H   H1345     1.0  0.62351  0.01416  0.75940  1.0000
  P   P56       1.0  0.80679  0.19343  0.57853  1.0000
  C   C1674     1.0  0.88547  0.18000  0.91116  1.0000
  C   C1675     1.0  0.73967  0.06679  0.55286  1.0000
  C   C1676     1.0  0.96642  0.23914  0.97206  1.0000
  C   C1677     1.0  0.91683  0.16599  0.79084  1.0000
  H   H1346     1.0  0.55969  0.19643  0.85541  1.0000
  H   H1347     1.0  0.56152  0.21836  0.81587  1.0000
  C   C1678     1.0  0.49539  0.09863  0.78240  1.0000
  H   H1348     1.0  0.88929  0.17252  0.60288  1.0000
  H   H1349     1.0  0.83919  0.15486  0.73520  1.0000
  H   H1350     1.0  0.85704  0.13714  0.49763  1.0000
  H   H1351     1.0  0.78034  0.13178  0.62418  1.0000
  H   H1352     1.0  0.76368  0.09767  0.50759  1.0000
  H   H1353     1.0  0.90512  0.02724  0.72885  1.0000
  C   C1679     1.0  0.91447  0.99808  0.74607  1.0000
  C   C1680     1.0  0.55170  0.14824  0.92883  1.0000
  C   C1681     1.0  0.64757  0.03852  0.56415  1.0000
  C   C1682     1.0  0.65473  0.20917  0.83047  1.0000
  H   H1354     1.0  0.61998  0.21524  0.87569  1.0000
  C   C1683     1.0  0.86782  0.02260  0.67928  1.0000
  H   H1355     1.0  0.82081  0.04142  0.56411  1.0000
  H   H1356     1.0  0.93265  0.16094  0.78851  1.0000
  H   H1357     1.0  0.52656  0.00816  0.61418  1.0000
  H   H1358     1.0  0.54910  0.01690  0.89477  1.0000
  C   C1684     1.0  0.69028  0.20886  0.81571  1.0000
  C   C1685     1.0  0.83378  0.20186  0.76263  1.0000
  C   C1686     1.0  0.67151  0.24094  0.81843  1.0000
  C   C1687     1.0  0.54115  0.00590  0.60409  1.0000
  C   C1688     1.0  0.88924  0.19985  0.90174  1.0000
  C   C1689     1.0  0.53313  0.24231  0.86155  1.0000
  H   H1359     1.0  0.87961  0.16560  0.65188  1.0000
  C   C1690     1.0  0.88038  0.16068  0.67194  1.0000
  H   H1360     1.0  0.65147  0.02060  0.62615  1.0000
  C   C1691     1.0  0.49522  0.06457  0.80263  1.0000
  H   H1361     1.0  0.83529  0.02834  0.67860  1.0000
  C   C1692     1.0  0.71642  0.03864  0.56057  1.0000
  H   H1362     1.0  0.91632  0.16178  0.83224  1.0000
  C   C1693     1.0  0.87597  0.17886  0.79678  1.0000
  C   C1694     1.0  0.57634  0.00106  0.88119  1.0000
  C   C1695     1.0  0.97481  0.23975  0.83649  1.0000
  H   H1363     1.0  0.55371  0.00995  0.82602  1.0000
  H   H1364     1.0  0.54841  0.23009  0.94035  1.0000
  H   H1365     1.0  0.95199  0.21788  0.88969  1.0000
  C   C1696     1.0  0.90763  0.16653  0.81551  1.0000
  H   H1366     1.0  0.89935  0.01394  0.68411  1.0000
  C   C1697     1.0  0.78105  0.22493  0.63930  1.0000
  C   C1698     1.0  0.81613  0.03579  0.54554  1.0000
  H   H1367     1.0  0.76509  0.02452  0.67627  1.0000
  C   C1699     1.0  0.58050  0.23557  0.94259  1.0000
  H   H1368     1.0  0.58202  0.19109  0.99342  1.0000
  C   C1700     1.0  0.56138  0.01086  0.80721  1.0000
  H   H1369     1.0  0.62704  0.02738  0.53603  1.0000
  H   H1370     1.0  0.80549  0.12600  0.55859  1.0000
  C   C1701     1.0  0.60751  0.21568  0.86218  1.0000
  H   H1371     1.0  0.88017  0.17358  0.83769  1.0000
  C   C1702     1.0  0.78936  0.02371  0.51771  1.0000
  H   H1372     1.0  0.62660  0.00268  0.66083  1.0000
  H   H1373     1.0  0.80504  0.21473  0.77624  1.0000
  S   S224      1.0  0.49800  0.16643  0.87577  1.0000
  C   C1703     1.0  0.80266  0.23422  0.59330  1.0000
  H   H1374     1.0  0.59225  0.23867  0.80571  1.0000
  C   C1704     1.0  0.98658  0.00918  0.83120  1.0000
  C   C1705     1.0  0.57627  0.00077  0.68115  1.0000
  P   P57       1.0  0.53943  0.19602  0.97758  1.0000
  C   C1706     1.0  0.85726  0.24182  0.81824  1.0000
  C   C1707     1.0  0.79569  0.03055  0.54191  1.0000
  H   H1375     1.0  0.61383  0.20916  0.98074  1.0000
  C   C1708     1.0  0.56241  0.22544  0.94968  1.0000
  Fe  Fe106     1.0  0.49631  0.19975  0.86345  1.0000
  C   C1709     1.0  0.88368  0.01113  0.69045  1.0000
  C   C1710     1.0  0.72842  0.02634  0.54423  1.0000
  H   H1376     1.0  0.76540  0.06086  0.52729  1.0000
  H   H1377     1.0  0.77324  0.22131  0.65755  1.0000
  H   H1378     1.0  0.58635  0.01381  0.88463  1.0000
  H   H1379     1.0  0.77947  0.22063  0.54912  1.0000
  C   C1711     1.0  0.84310  0.00459  0.70658  1.0000
  C   C1712     1.0  0.54199  0.99641  0.58004  1.0000
  H   H1380     1.0  0.66670  0.04640  0.59598  1.0000
  C   C1713     1.0  0.64493  0.01087  0.72755  1.0000
  C   C1714     1.0  0.93564  0.23235  0.85804  1.0000
  S   S225      1.0  0.52602  0.99508  0.75679  1.0000
  C   C1715     1.0  0.78684  0.20923  0.62249  1.0000
  C   C1716     1.0  0.59605  0.00853  0.67638  1.0000
  C   C1717     1.0  0.58137  0.20362  0.97938  1.0000
  C   C1718     1.0  0.79128  0.21499  0.53590  1.0000
  C   C1719     1.0  0.57809  0.00916  0.60267  1.0000
  H   H1381     1.0  0.84625  0.03842  0.52800  1.0000
  H   H1382     1.0  0.78339  0.19361  0.62822  1.0000
  C   C1720     1.0  0.87444  0.23062  0.80988  1.0000
  C   C1721     1.0  0.93586  0.02214  0.78073  1.0000
  C   C1722     1.0  0.65446  0.03678  0.58955  1.0000
  C   C1723     1.0  0.79061  0.22070  0.50966  1.0000
  C   C1724     1.0  0.65391  0.23061  0.82760  1.0000
  C   C1725     1.0  0.65261  0.99808  0.70813  1.0000
  H   H1383     1.0  0.87525  0.22516  0.79027  1.0000
  C   C1726     1.0  0.91365  0.24116  0.92530  1.0000
  H   H1384     1.0  0.85020  0.21669  0.71180  1.0000
  H   H1385     1.0  0.73073  0.01072  0.68736  1.0000
  Fe  Fe107     1.0  0.52681  0.00752  0.71577  1.0000
  P   P58       1.0  0.76272  0.01773  0.51275  1.0000
  C   C1727     1.0  0.62332  0.01107  0.57287  1.0000
  C   C1728     1.0  0.74333  0.00035  0.68278  1.0000
  C   C1729     1.0  0.78377  0.11038  0.53534  1.0000
  H   H1386     1.0  0.81694  0.14923  0.52318  1.0000
  Fe  Fe108     1.0  0.50084  0.01841  0.76439  1.0000
  H   H1387     1.0  0.67338  0.18185  0.82683  1.0000
  H   H1388     1.0  0.70297  0.23833  0.80527  1.0000
  C   C1730     1.0  0.63199  0.02580  0.55583  1.0000
  C   C1731     1.0  0.81268  0.20150  0.76787  1.0000
  H   H1389     1.0  0.64141  0.20066  0.83689  1.0000
  C   C1732     1.0  0.58867  0.01286  0.51751  1.0000
  H   H1390     1.0  0.72379  0.01067  0.54142  1.0000
  C   C1733     1.0  0.89916  0.24169  0.73732  1.0000
  C   C1734     1.0  0.58447  0.99620  0.77465  1.0000
  H   H1391     1.0  0.90377  0.21795  0.81994  1.0000
  C   C1735     1.0  0.59899  0.22983  0.95389  1.0000
  H   H1392     1.0  0.97049  0.01177  0.82760  1.0000
  H   H1393     1.0  0.61297  0.23774  0.94833  1.0000
  S   S226      1.0  0.50335  0.03228  0.72457  1.0000
  H   H1394     1.0  0.84222  0.21542  0.76730  1.0000
  C   C1736     1.0  0.55536  0.00281  0.88692  1.0000
  H   H1395     1.0  0.98998  0.24301  0.82855  1.0000
  C   C1737     1.0  0.93695  0.00078  0.78280  1.0000
  H   H1396     1.0  0.51391  0.24280  0.82824  1.0000
  H   H1397     1.0  0.74842  0.99500  0.60869  1.0000
  C   C1738     1.0  0.79677  0.13682  0.49515  1.0000
  C   C1739     1.0  0.61147  0.99651  0.66423  1.0000
  C   C1740     1.0  0.77867  0.99488  0.66900  1.0000
  C   C1741     1.0  0.57492  0.99527  0.79932  1.0000
  H   H1398     1.0  0.70827  0.15281  0.49672  1.0000
  C   C1742     1.0  0.85086  0.12215  0.49428  1.0000
  Fe  Fe109     1.0  0.51532  0.48402  0.22030  1.0000
  S   S227      1.0  0.52180  0.45808  0.19133  1.0000
  S   S228      1.0  0.51823  0.48237  0.26375  1.0000
  Fe  Fe110     1.0  0.62428  0.32677  0.13436  1.0000
  S   S229      1.0  0.62278  0.35911  0.11815  1.0000
  S   S230      1.0  0.65202  0.30752  0.14851  1.0000
  Fe  Fe111     1.0  0.57733  0.32189  0.13154  1.0000
  S   S231      1.0  0.57305  0.35402  0.11592  1.0000
  S   S232      1.0  0.54705  0.30542  0.13920  1.0000
  Fe  Fe112     1.0  0.60014  0.34688  0.08963  1.0000
  S   S233      1.0  0.59521  0.35870  0.04799  1.0000
  Fe  Fe113     1.0  0.59548  0.36375  0.14529  1.0000
  S   S234      1.0  0.59319  0.39088  0.17311  1.0000
  S   S235      1.0  0.60329  0.31421  0.10387  1.0000
  S   S236      1.0  0.59817  0.33201  0.16287  1.0000
  C   C1743     1.0  0.98979  0.24811  0.00613  1.0000
  S   S237      1.0  0.79490  0.46543  0.36830  1.0000
  Fe  Fe114     1.0  0.85375  0.47546  0.36426  1.0000
  S   S238      1.0  0.84079  0.44522  0.37763  1.0000
  H   H1399     1.0  0.49986  0.24786  0.13113  1.0000
  Fe  Fe115     1.0  0.81925  0.44923  0.34458  1.0000
  S   S239      1.0  0.81673  0.42592  0.31261  1.0000
  Fe  Fe116     1.0  0.81770  0.46364  0.40074  1.0000
  S   S240      1.0  0.80439  0.45483  0.44069  1.0000
  S   S241      1.0  0.83344  0.47868  0.33006  1.0000
  C   C1744     1.0  0.67969  0.36712  0.08256  1.0000
  S   S242      1.0  0.96036  0.29431  0.10085  1.0000
  Fe  Fe117     1.0  0.97159  0.34187  0.14292  1.0000
  S   S243      1.0  0.94967  0.34286  0.10964  1.0000
  H   H1400     1.0  0.60023  0.26778  0.09262  1.0000
  Fe  Fe118     1.0  0.93818  0.31264  0.12553  1.0000
  S   S244      1.0  0.90415  0.30472  0.12668  1.0000
  Fe  Fe119     1.0  0.97354  0.32445  0.08783  1.0000
  P   P59       1.0  0.95775  0.45053  0.11806  1.0000
  S   S245      1.0  0.95855  0.31247  0.15981  1.0000
  H   H1401     1.0  0.72285  0.44535  0.03649  1.0000
  C   C1745     1.0  0.88295  0.49005  0.22244  1.0000
  C   C1746     1.0  0.84633  0.39596  0.40269  1.0000
  Fe  Fe120     1.0  0.76425  0.30528  0.22651  1.0000
  S   S246      1.0  0.75740  0.29396  0.26731  1.0000
  S   S247      1.0  0.73968  0.32115  0.20079  1.0000
  Fe  Fe121     1.0  0.81155  0.30214  0.23513  1.0000
  S   S248      1.0  0.80672  0.29099  0.27644  1.0000
  S   S249      1.0  0.84589  0.30756  0.22770  1.0000
  Fe  Fe122     1.0  0.78287  0.27044  0.26102  1.0000
  Fe  Fe123     1.0  0.78226  0.31539  0.27913  1.0000
  S   S250      1.0  0.77855  0.33652  0.31372  1.0000
  S   S251      1.0  0.78845  0.28048  0.21909  1.0000
  S   S252      1.0  0.78824  0.32769  0.23905  1.0000
  C   C1747     1.0  0.88817  0.30470  0.15500  1.0000
  C   C1748     1.0  0.86683  0.30280  0.15265  1.0000
  C   C1749     1.0  0.85362  0.30319  0.17468  1.0000
  C   C1750     1.0  0.86168  0.30527  0.19936  1.0000
  C   C1751     1.0  0.88307  0.30643  0.20173  1.0000
  C   C1752     1.0  0.89623  0.30642  0.17972  1.0000
  H   H1402     1.0  0.86045  0.30135  0.13361  1.0000
  H   H1403     1.0  0.83721  0.30219  0.17252  1.0000
  H   H1404     1.0  0.88960  0.30740  0.22068  1.0000
  H   H1405     1.0  0.91260  0.30773  0.18189  1.0000
  H   H1406     1.0  0.85408  0.27663  0.32545  1.0000
  C   C1753     1.0  0.96400  0.42748  0.10052  1.0000
  H   H1407     1.0  0.64758  0.31832  0.07313  1.0000
  H   H1408     1.0  0.85785  0.26535  0.24389  1.0000
  C   C1754     1.0  0.53390  0.32881  0.07710  1.0000
  H   H1409     1.0  0.50882  0.28427  0.13780  1.0000
  C   C1755     1.0  0.95436  0.31979  0.01458  1.0000
  C   C1756     1.0  0.97454  0.32652  0.01644  1.0000
  C   C1757     1.0  0.64185  0.40901  0.09718  1.0000
  H   H1410     1.0  0.94524  0.31710  0.03205  1.0000
  C   C1758     1.0  0.78964  0.36120  0.31346  1.0000
  C   C1759     1.0  0.79988  0.36914  0.29150  1.0000
  C   C1760     1.0  0.80816  0.38893  0.29172  1.0000
  C   C1761     1.0  0.80638  0.40100  0.31390  1.0000
  C   C1762     1.0  0.79611  0.39315  0.33590  1.0000
  C   C1763     1.0  0.78780  0.37331  0.33564  1.0000
  H   H1411     1.0  0.80148  0.36004  0.27430  1.0000
  H   H1412     1.0  0.81603  0.39488  0.27456  1.0000
  H   H1413     1.0  0.79448  0.40242  0.35298  1.0000
  H   H1414     1.0  0.77992  0.36726  0.35269  1.0000
  C   C1764     1.0  0.71216  0.41438  0.03392  1.0000
  H   H1415     1.0  0.53103  0.32565  0.20535  1.0000
  C   C1765     1.0  0.87649  0.35023  0.38562  1.0000
  C   C1766     1.0  0.60635  0.41615  0.10887  1.0000
  C   C1767     1.0  0.91969  0.43341  0.19167  1.0000
  S   S253      1.0  0.98572  0.33171  0.04675  1.0000
  C   C1768     1.0  0.93113  0.47967  0.29018  1.0000
  C   C1769     1.0  0.81739  0.45786  0.47023  1.0000
  C   C1770     1.0  0.83875  0.45911  0.47092  1.0000
  H   H1416     1.0  0.95671  0.25712  0.03500  1.0000
  C   C1771     1.0  0.60928  0.33020  0.01172  1.0000
  C   C1772     1.0  0.59907  0.34879  0.01629  1.0000
  C   C1773     1.0  0.57884  0.25336  0.02595  1.0000
  H   H1417     1.0  0.61480  0.32110  0.02790  1.0000
  C   C1774     1.0  0.91034  0.47460  0.28822  1.0000
  C   C1775     1.0  0.67582  0.31196  0.16426  1.0000
  C   C1776     1.0  0.68591  0.33074  0.16235  1.0000
  C   C1777     1.0  0.70546  0.33301  0.17327  1.0000
  C   C1778     1.0  0.71504  0.31685  0.18708  1.0000
  C   C1779     1.0  0.70473  0.29819  0.18954  1.0000
  C   C1780     1.0  0.68544  0.29573  0.17794  1.0000
  H   H1418     1.0  0.67883  0.34336  0.15193  1.0000
  H   H1419     1.0  0.71331  0.34741  0.17092  1.0000
  H   H1420     1.0  0.71176  0.28553  0.20000  1.0000
  H   H1421     1.0  0.67793  0.28107  0.17956  1.0000
  C   C1781     1.0  0.54221  0.43993  0.18645  1.0000
  C   C1782     1.0  0.54114  0.42628  0.16570  1.0000
  C   C1783     1.0  0.55636  0.41103  0.16154  1.0000
  C   C1784     1.0  0.57307  0.40932  0.17798  1.0000
  C   C1785     1.0  0.57419  0.42296  0.19873  1.0000
  C   C1786     1.0  0.55885  0.43809  0.20304  1.0000
  H   H1422     1.0  0.52840  0.42754  0.15273  1.0000
  H   H1423     1.0  0.55524  0.40075  0.14548  1.0000
  H   H1424     1.0  0.58703  0.42184  0.21159  1.0000
  H   H1425     1.0  0.55990  0.44835  0.21917  1.0000
  H   H1426     1.0  0.97860  0.37915  0.24528  1.0000
  H   H1427     1.0  0.92821  0.25740  0.06676  1.0000
  C   C1787     1.0  0.54139  0.27945  0.13283  1.0000
  C   C1788     1.0  0.94698  0.45300  0.17097  1.0000
  H   H1428     1.0  0.90446  0.41221  0.16730  1.0000
  H   H1429     1.0  0.59483  0.42083  0.12314  1.0000
  H   H1430     1.0  0.57264  0.26950  0.12720  1.0000
  C   C1789     1.0  0.59427  0.26377  0.07397  1.0000
  H   H1431     1.0  0.70138  0.37521  0.31153  1.0000
  H   H1432     1.0  0.53207  0.29610  0.07891  1.0000
  H   H1433     1.0  0.69805  0.34808  0.10792  1.0000
  C   C1790     1.0  0.92126  0.46807  0.09989  1.0000
  C   C1791     1.0  0.89702  0.47482  0.31010  1.0000
  H   H1434     1.0  0.58533  0.37309  0.23120  1.0000
  C   C1792     1.0  0.57687  0.27389  0.06458  1.0000
  Fe  Fe124     1.0  0.98062  0.48841  0.25539  1.0000
  C   C1793     1.0  0.65676  0.33187  0.07537  1.0000
  C   C1794     1.0  0.63604  0.40258  0.07260  1.0000
  C   C1795     1.0  0.94303  0.25129  0.07231  1.0000
  H   H1435     1.0  0.65594  0.46748  0.31825  1.0000
  H   H1436     1.0  0.91319  0.45828  0.11369  1.0000
  S   S254      1.0  0.97124  0.36969  0.16970  1.0000
  H   H1437     1.0  0.52839  0.36571  0.11921  1.0000
  C   C1796     1.0  0.92811  0.42861  0.14625  1.0000
  C   C1797     1.0  0.54849  0.32420  0.02616  1.0000
  H   H1438     1.0  0.50255  0.29075  0.02617  1.0000
  H   H1439     1.0  0.96290  0.40665  0.19707  1.0000
  C   C1798     1.0  0.96481  0.38834  0.24804  1.0000
  C   C1799     1.0  0.96623  0.40869  0.25561  1.0000
  C   C1800     1.0  0.94850  0.42071  0.25839  1.0000
  C   C1801     1.0  0.92933  0.41252  0.25333  1.0000
  C   C1802     1.0  0.92779  0.39214  0.24528  1.0000
  C   C1803     1.0  0.94568  0.38005  0.24306  1.0000
  P   P60       1.0  0.90317  0.38073  0.23963  1.0000
  C   C1804     1.0  0.88264  0.39892  0.24601  1.0000
  C   C1805     1.0  0.90136  0.37168  0.20670  1.0000
  C   C1806     1.0  0.88292  0.36347  0.19807  1.0000
  C   C1807     1.0  0.88154  0.35626  0.17285  1.0000
  C   C1808     1.0  0.89842  0.35745  0.15582  1.0000
  C   C1809     1.0  0.91653  0.36622  0.16388  1.0000
  C   C1810     1.0  0.91803  0.37332  0.18914  1.0000
  C   C1811     1.0  0.87050  0.40677  0.22583  1.0000
  C   C1812     1.0  0.85376  0.41965  0.23129  1.0000
  C   C1813     1.0  0.84943  0.42539  0.25675  1.0000
  C   C1814     1.0  0.86204  0.41855  0.27668  1.0000
  C   C1815     1.0  0.87853  0.40531  0.27142  1.0000
  C   C1816     1.0  0.90081  0.35988  0.26321  1.0000
  C   C1817     1.0  0.89085  0.34166  0.25729  1.0000
  C   C1818     1.0  0.88992  0.32540  0.27524  1.0000
  C   C1819     1.0  0.89887  0.32713  0.29937  1.0000
  C   C1820     1.0  0.90862  0.34525  0.30568  1.0000
  C   C1821     1.0  0.90955  0.36157  0.28775  1.0000
  C   C1822     1.0  0.60393  0.24847  0.05946  1.0000
  C   C1823     1.0  0.97507  0.39180  0.10121  1.0000
  H   H1440     1.0  0.94969  0.43648  0.26432  1.0000
  H   H1441     1.0  0.91593  0.42225  0.25568  1.0000
  H   H1442     1.0  0.94489  0.36428  0.23695  1.0000
  H   H1443     1.0  0.86955  0.36247  0.21084  1.0000
  H   H1444     1.0  0.86755  0.34922  0.16667  1.0000
  H   H1445     1.0  0.89756  0.35128  0.13650  1.0000
  H   H1446     1.0  0.92961  0.36728  0.15067  1.0000
  H   H1447     1.0  0.93227  0.38013  0.19458  1.0000
  H   H1448     1.0  0.87369  0.40289  0.20587  1.0000
  H   H1449     1.0  0.84404  0.42508  0.21580  1.0000
  H   H1450     1.0  0.83624  0.43507  0.26117  1.0000
  H   H1451     1.0  0.85872  0.42328  0.29632  1.0000
  H   H1452     1.0  0.88801  0.40009  0.28721  1.0000
  H   H1453     1.0  0.88377  0.33966  0.23892  1.0000
  H   H1454     1.0  0.88226  0.31143  0.27022  1.0000
  H   H1455     1.0  0.89831  0.31435  0.31304  1.0000
  H   H1456     1.0  0.91573  0.34656  0.32432  1.0000
  H   H1457     1.0  0.91736  0.37539  0.29296  1.0000
  H   H1458     1.0  0.66085  0.35903  0.01235  1.0000
  C   C1824     1.0  0.52085  0.27316  0.13380  1.0000
  C   C1825     1.0  0.55313  0.36984  0.22440  1.0000
  Fe  Fe125     1.0  0.98170  0.29590  0.13431  1.0000
  H   H1459     1.0  0.88432  0.33057  0.35350  1.0000
  C   C1826     1.0  0.51571  0.25252  0.13002  1.0000
  H   H1460     1.0  0.86159  0.40225  0.40336  1.0000
  C   C1827     1.0  0.51948  0.37301  0.13444  1.0000
  C   C1828     1.0  0.50943  0.42229  0.24706  1.0000
  C   C1829     1.0  0.86954  0.47635  0.23491  1.0000
  H   H1461     1.0  0.83395  0.41754  0.43029  1.0000
  C   C1830     1.0  0.72263  0.39993  0.24320  1.0000
  C   C1831     1.0  0.73799  0.38484  0.24272  1.0000
  C   C1832     1.0  0.75285  0.38436  0.26177  1.0000
  C   C1833     1.0  0.75235  0.39891  0.28135  1.0000
  C   C1834     1.0  0.73681  0.41396  0.28224  1.0000
  C   C1835     1.0  0.72203  0.41445  0.26282  1.0000
  P   P61       1.0  0.73621  0.43271  0.30773  1.0000
  C   C1836     1.0  0.74305  0.42085  0.33835  1.0000
  C   C1837     1.0  0.96316  0.42695  0.07335  1.0000
  C   C1838     1.0  0.92529  0.48465  0.33640  1.0000
  H   H1462     1.0  0.58437  0.40959  0.07974  1.0000
  P   P62       1.0  0.65516  0.39185  0.05069  1.0000
  C   C1839     1.0  0.68514  0.34872  0.09506  1.0000
  H   H1463     1.0  0.90557  0.26355  0.17575  1.0000
  C   C1840     1.0  0.75178  0.43261  0.35766  1.0000
  C   C1841     1.0  0.75688  0.42364  0.38151  1.0000
  C   C1842     1.0  0.75301  0.40292  0.38642  1.0000
  C   C1843     1.0  0.74406  0.39115  0.36746  1.0000
  C   C1844     1.0  0.73910  0.40005  0.34351  1.0000
  H   H1464     1.0  0.66692  0.43950  0.34822  1.0000
  C   C1845     1.0  0.75032  0.47297  0.30914  1.0000
  H   H1465     1.0  0.67767  0.31694  0.10159  1.0000
  H   H1466     1.0  0.84930  0.47119  0.26796  1.0000
  H   H1467     1.0  0.71114  0.40035  0.22840  1.0000
  H   H1468     1.0  0.73834  0.37337  0.22774  1.0000
  H   H1469     1.0  0.76464  0.37252  0.26148  1.0000
  H   H1470     1.0  0.76402  0.39831  0.29592  1.0000
  H   H1471     1.0  0.70997  0.42593  0.26270  1.0000
  S   S255      1.0  0.94684  0.47992  0.26158  1.0000
  C   C1846     1.0  0.66291  0.36793  0.06594  1.0000
  H   H1472     1.0  0.56961  0.28557  0.07634  1.0000
  C   C1847     1.0  0.50982  0.37544  0.18004  1.0000
  H   H1473     1.0  0.51566  0.43736  0.24285  1.0000
  H   H1474     1.0  0.75471  0.44873  0.35437  1.0000
  H   H1475     1.0  0.76397  0.43278  0.39613  1.0000
  H   H1476     1.0  0.75704  0.39600  0.40488  1.0000
  H   H1477     1.0  0.74129  0.37500  0.37111  1.0000
  H   H1478     1.0  0.73234  0.39064  0.32905  1.0000
  H   H1479     1.0  0.86713  0.46144  0.22681  1.0000
  H   H1480     1.0  0.69733  0.38523  0.03277  1.0000
  H   H1481     1.0  0.79874  0.40432  0.42883  1.0000
  C   C1848     1.0  0.89700  0.31896  0.38886  1.0000
  H   H1482     1.0  0.59358  0.33646  0.22396  1.0000
  C   C1849     1.0  0.78335  0.48392  0.29210  1.0000
  C   C1850     1.0  0.67109  0.46064  0.31608  1.0000
  C   C1851     1.0  0.52109  0.36589  0.16004  1.0000
  H   H1483     1.0  0.98369  0.43696  0.20709  1.0000
  C   C1852     1.0  0.93855  0.48476  0.31441  1.0000
  C   C1853     1.0  0.88575  0.33306  0.37402  1.0000
  C   C1854     1.0  0.52554  0.24870  0.05348  1.0000
  C   C1855     1.0  0.96811  0.40886  0.06030  1.0000
  H   H1484     1.0  0.65632  0.27837  0.26291  1.0000
  C   C1856     1.0  0.54631  0.34373  0.03659  1.0000
  H   H1485     1.0  0.52866  0.33048  0.09703  1.0000
  C   C1857     1.0  0.88926  0.24501  0.20422  1.0000
  C   C1858     1.0  0.85899  0.25965  0.26368  1.0000
  C   C1859     1.0  0.65162  0.29018  0.24919  1.0000
  H   H1486     1.0  0.92534  0.42080  0.12835  1.0000
  H   H1487     1.0  0.71434  0.46478  0.27856  1.0000
  C   C1860     1.0  0.91624  0.42369  0.16832  1.0000
  H   H1488     1.0  0.61022  0.39801  0.04781  1.0000
  H   H1489     1.0  0.63599  0.26923  0.22482  1.0000
  C   C1861     1.0  0.92613  0.24906  0.20276  1.0000
  H   H1490     1.0  0.56633  0.31296  0.21047  1.0000
  H   H1491     1.0  0.52343  0.40903  0.21331  1.0000
  C   C1862     1.0  0.94335  0.44357  0.14725  1.0000
  C   C1863     1.0  0.98693  0.39123  0.17544  1.0000
  C   C1864     1.0  0.89923  0.32196  0.41537  1.0000
  H   H1492     1.0  0.97052  0.40986  0.13512  1.0000
  C   C1865     1.0  0.83074  0.40462  0.41813  1.0000
  P   P63       1.0  0.54615  0.28121  0.02845  1.0000
  C   C1866     1.0  0.88420  0.42405  0.34030  1.0000
  C   C1867     1.0  0.90543  0.42124  0.34041  1.0000
  C   C1868     1.0  0.91376  0.40225  0.34783  1.0000
  C   C1869     1.0  0.90084  0.38618  0.35562  1.0000
  C   C1870     1.0  0.87946  0.38904  0.35587  1.0000
  C   C1871     1.0  0.87125  0.40793  0.34754  1.0000
  P   P64       1.0  0.86242  0.36871  0.36620  1.0000
  C   C1872     1.0  0.84214  0.37964  0.38628  1.0000
  C   C1873     1.0  0.85241  0.35625  0.33820  1.0000
  C   C1874     1.0  0.84287  0.33712  0.34094  1.0000
  C   C1875     1.0  0.83595  0.32707  0.31915  1.0000
  C   C1876     1.0  0.83869  0.33591  0.29447  1.0000
  C   C1877     1.0  0.84799  0.35497  0.29161  1.0000
  C   C1878     1.0  0.85468  0.36517  0.31336  1.0000
  H   H1493     1.0  0.97792  0.37723  0.06416  1.0000
  C   C1879     1.0  0.80658  0.38071  0.40139  1.0000
  C   C1880     1.0  0.82214  0.37199  0.38593  1.0000
  C   C1881     1.0  0.67731  0.44489  0.33298  1.0000
  H   H1494     1.0  0.55012  0.38595  0.22723  1.0000
  H   H1495     1.0  0.53818  0.36116  0.07030  1.0000
  C   C1882     1.0  0.53918  0.34604  0.06208  1.0000
  H   H1496     1.0  0.87774  0.43887  0.33495  1.0000
  H   H1497     1.0  0.91538  0.43390  0.33503  1.0000
  H   H1498     1.0  0.93025  0.40016  0.34801  1.0000
  H   H1499     1.0  0.90761  0.37174  0.36174  1.0000
  H   H1500     1.0  0.85478  0.41026  0.34688  1.0000
  H   H1501     1.0  0.84065  0.33004  0.35991  1.0000
  H   H1502     1.0  0.82803  0.31262  0.32138  1.0000
  H   H1503     1.0  0.83315  0.32827  0.27757  1.0000
  H   H1504     1.0  0.84960  0.36201  0.27251  1.0000
  H   H1505     1.0  0.86143  0.38004  0.31065  1.0000
  H   H1506     1.0  0.79114  0.37493  0.40059  1.0000
  H   H1507     1.0  0.81833  0.35957  0.37342  1.0000
  H   H1508     1.0  0.87233  0.36646  0.42168  1.0000
  C   C1883     1.0  0.56903  0.26878  0.04046  1.0000
  C   C1884     1.0  0.97959  0.48437  0.13382  1.0000
  H   H1509     1.0  0.55436  0.32303  0.00654  1.0000
  C   C1885     1.0  0.89026  0.33911  0.42703  1.0000
  C   C1886     1.0  0.54344  0.30675  0.04122  1.0000
  C   C1887     1.0  0.77298  0.44866  0.28771  1.0000
  C   C1888     1.0  0.68449  0.46770  0.29649  1.0000
  C   C1889     1.0  0.75425  0.45297  0.30046  1.0000
  C   C1890     1.0  0.63533  0.40468  0.00580  1.0000
  C   C1891     1.0  0.96989  0.40974  0.11426  1.0000
  H   H1510     1.0  0.53119  0.35298  0.16403  1.0000
  H   H1511     1.0  0.91048  0.42960  0.20872  1.0000
  C   C1892     1.0  0.93517  0.44791  0.19307  1.0000
  H   H1512     1.0  0.63147  0.42064  0.13422  1.0000
  C   C1893     1.0  0.54247  0.33600  0.21225  1.0000
  H   H1513     1.0  0.84767  0.45914  0.45300  1.0000
  C   C1894     1.0  0.87897  0.35323  0.41224  1.0000
  H   H1514     1.0  0.73641  0.47668  0.31997  1.0000
  C   C1895     1.0  0.78747  0.46408  0.28362  1.0000
  C   C1896     1.0  0.71061  0.44343  0.31095  1.0000
  C   C1897     1.0  0.53749  0.35657  0.21737  1.0000
  C   C1898     1.0  0.69111  0.44289  0.04847  1.0000
  C   C1899     1.0  0.61524  0.40323  0.06633  1.0000
  C   C1900     1.0  0.97409  0.39128  0.07423  1.0000
  C   C1901     1.0  0.57323  0.36254  0.22690  1.0000
  C   C1902     1.0  0.57791  0.34196  0.22255  1.0000
  H   H1515     1.0  0.96923  0.48024  0.07745  1.0000
  H   H1516     1.0  0.90447  0.47066  0.26957  1.0000
  H   H1517     1.0  0.70149  0.42420  0.34383  1.0000
  C   C1903     1.0  0.64627  0.38872  0.01808  1.0000
  C   C1904     1.0  0.85951  0.48183  0.25801  1.0000
  C   C1905     1.0  0.94276  0.46776  0.09804  1.0000
  H   H1518     1.0  0.77685  0.43328  0.28171  1.0000
  C   C1906     1.0  0.62706  0.41593  0.11514  1.0000
  H   H1519     1.0  0.55086  0.35707  0.02517  1.0000
  C   C1907     1.0  0.52377  0.26748  0.03997  1.0000
  H   H1520     1.0  0.87448  0.24936  0.19656  1.0000
  C   C1908     1.0  0.55678  0.26492  0.12764  1.0000
  S   S256      1.0  0.83235  0.49378  0.39027  1.0000
  C   C1909     1.0  0.85697  0.26618  0.30971  1.0000
  H   H1521     1.0  0.98112  0.41527  0.25891  1.0000
  C   C1910     1.0  0.70998  0.43518  0.03946  1.0000
  H   H1522     1.0  0.89095  0.48572  0.20472  1.0000
  C   C1911     1.0  0.97860  0.40744  0.19006  1.0000
  C   C1912     1.0  0.81083  0.39714  0.41731  1.0000
  H   H1523     1.0  0.95866  0.44035  0.06215  1.0000
  C   C1913     1.0  0.53596  0.30926  0.06673  1.0000
  C   C1914     1.0  0.95936  0.25102  0.05427  1.0000
  H   H1524     1.0  0.57304  0.24905  0.00736  1.0000
  H   H1525     1.0  0.65776  0.40832  0.10256  1.0000
  C   C1915     1.0  0.65132  0.35022  0.06278  1.0000
  C   C1916     1.0  0.67369  0.33110  0.09146  1.0000
  C   C1917     1.0  0.85590  0.27322  0.28406  1.0000
  H   H1526     1.0  0.90797  0.31104  0.42688  1.0000
  C   C1918     1.0  0.95266  0.48048  0.07953  1.0000
  H   H1527     1.0  0.68844  0.38069  0.08619  1.0000
  H   H1528     1.0  0.89209  0.34151  0.44758  1.0000
  C   C1919     1.0  0.69554  0.40125  0.03759  1.0000
  H   H1529     1.0  0.90402  0.30569  0.37980  1.0000
  H   H1530     1.0  0.93819  0.45515  0.21136  1.0000
  H   H1531     1.0  0.68932  0.45907  0.05237  1.0000
  H   H1532     1.0  0.93121  0.48847  0.35509  1.0000
  H   H1533     1.0  0.85230  0.28916  0.27983  1.0000
  C   C1920     1.0  0.56255  0.32872  0.21505  1.0000
  C   C1921     1.0  0.86158  0.24559  0.31500  1.0000
  H   H1534     1.0  0.96735  0.40838  0.03937  1.0000
  C   C1922     1.0  0.71597  0.34020  0.26663  1.0000
  C   C1923     1.0  0.71709  0.35270  0.28820  1.0000
  C   C1924     1.0  0.70047  0.36540  0.29495  1.0000
  C   C1925     1.0  0.68266  0.36545  0.28030  1.0000
  C   C1926     1.0  0.68132  0.35260  0.25890  1.0000
  C   C1927     1.0  0.69818  0.34010  0.25207  1.0000
  P   P65       1.0  0.65849  0.35225  0.23971  1.0000
  C   C1928     1.0  0.66279  0.36607  0.20940  1.0000
  C   C1929     1.0  0.65173  0.32585  0.23457  1.0000
  C   C1930     1.0  0.64010  0.32051  0.21324  1.0000
  C   C1931     1.0  0.63422  0.30021  0.21002  1.0000
  C   C1932     1.0  0.64013  0.28502  0.22782  1.0000
  H   H1535     1.0  0.63786  0.35066  0.05092  1.0000
  C   C1933     1.0  0.65724  0.31052  0.25271  1.0000
  C   C1934     1.0  0.64608  0.37208  0.19420  1.0000
  C   C1935     1.0  0.64924  0.38333  0.17119  1.0000
  C   C1936     1.0  0.66902  0.38883  0.16320  1.0000
  C   C1937     1.0  0.68570  0.38318  0.17833  1.0000
  C   C1938     1.0  0.68263  0.37184  0.20132  1.0000
  C   C1939     1.0  0.63722  0.36451  0.25658  1.0000
  C   C1940     1.0  0.63425  0.38582  0.25424  1.0000
  C   C1941     1.0  0.61737  0.39530  0.26640  1.0000
  C   C1942     1.0  0.60347  0.38363  0.28121  1.0000
  C   C1943     1.0  0.60645  0.36247  0.28391  1.0000
  C   C1944     1.0  0.62326  0.35292  0.27168  1.0000
  H   H1536     1.0  0.72897  0.33063  0.26099  1.0000
  H   H1537     1.0  0.73098  0.35265  0.29941  1.0000
  H   H1538     1.0  0.67969  0.48001  0.28351  1.0000
  H   H1539     1.0  0.66999  0.37540  0.28583  1.0000
  H   H1540     1.0  0.69763  0.33027  0.23539  1.0000
  H   H1541     1.0  0.63583  0.33178  0.19870  1.0000
  H   H1542     1.0  0.62562  0.29615  0.19317  1.0000
  H   H1543     1.0  0.88105  0.47108  0.30822  1.0000
  H   H1544     1.0  0.66593  0.31417  0.26960  1.0000
  H   H1545     1.0  0.63053  0.36821  0.20009  1.0000
  H   H1546     1.0  0.63623  0.38771  0.15958  1.0000
  H   H1547     1.0  0.67141  0.39734  0.14523  1.0000
  H   H1548     1.0  0.70110  0.38719  0.17199  1.0000
  H   H1549     1.0  0.69587  0.36730  0.21232  1.0000
  H   H1550     1.0  0.64479  0.39511  0.24271  1.0000
  H   H1551     1.0  0.61493  0.41168  0.26406  1.0000
  H   H1552     1.0  0.59029  0.39099  0.29040  1.0000
  H   H1553     1.0  0.59558  0.35342  0.29526  1.0000
  H   H1554     1.0  0.62517  0.33650  0.27389  1.0000
  C   C1945     1.0  0.69698  0.43628  0.33043  1.0000
  H   H1555     1.0  0.50869  0.33320  0.25229  1.0000
  P   P66       1.0  0.51158  0.36606  0.21310  1.0000
  S   S257      1.0  0.88846  0.47959  0.36275  1.0000
  H   H1556     1.0  0.97982  0.37826  0.11210  1.0000
  C   C1946     1.0  0.60046  0.40986  0.08445  1.0000
  C   C1947     1.0  0.70413  0.45909  0.29384  1.0000
  H   H1557     1.0  0.56756  0.48321  0.44564  1.0000
  H   H1558     1.0  0.65983  0.43612  0.05857  1.0000
  C   C1948     1.0  0.67670  0.40878  0.04730  1.0000
  C   C1949     1.0  0.98074  0.46370  0.12667  1.0000
  C   C1950     1.0  0.67445  0.42978  0.05216  1.0000
  H   H1559     1.0  0.70860  0.38050  0.49040  1.0000
  C   C1951     1.0  0.99032  0.42476  0.19561  1.0000
  H   H1560     1.0  0.72670  0.40844  0.02656  1.0000
  H   H1561     1.0  0.80218  0.46043  0.27464  1.0000
  H   H1562     1.0  0.93972  0.25586  0.19386  1.0000
  C   C1952     1.0  0.90444  0.47976  0.33438  1.0000
  C   C1953     1.0  0.65175  0.37125  0.00387  1.0000
  C   C1954     1.0  0.90689  0.25335  0.19251  1.0000
  H   H1563     1.0  0.95900  0.46411  0.17275  1.0000
  H   H1564     1.0  0.89330  0.48136  0.08534  1.0000
  H   H1565     1.0  0.95449  0.48874  0.31623  1.0000
  C   C1955     1.0  0.50421  0.27602  0.03597  1.0000
  C   C1956     1.0  0.90989  0.48116  0.08378  1.0000
  C   C1957     1.0  0.51385  0.40618  0.23032  1.0000
  H   H1566     1.0  0.58405  0.37476  0.99818  1.0000
  C   C1958     1.0  0.76471  0.48838  0.30461  1.0000
  H   H1567     1.0  0.63153  0.41858  0.01605  1.0000
  C   C1959     1.0  0.50579  0.38664  0.23528  1.0000
  H   H1568     1.0  0.96500  0.49245  0.13439  1.0000
  C   C1960     1.0  0.50664  0.38966  0.12858  1.0000
  H   H1569     1.0  0.50569  0.39536  0.10879  1.0000
  H   H1570     1.0  0.60342  0.47965  0.46029  1.0000
  H   H1571     1.0  0.78954  0.45683  0.49345  1.0000
  C   C1961     1.0  0.49664  0.39192  0.17391  1.0000
  H   H1572     1.0  0.93360  0.24578  0.11204  1.0000
  C   C1962     1.0  0.49607  0.33159  0.23922  1.0000
  C   C1963     1.0  0.80605  0.45780  0.49375  1.0000
  H   H1573     1.0  0.99484  0.28419  0.05978  1.0000
  C   C1964     1.0  0.59192  0.36033  0.99492  1.0000
  C   C1965     1.0  0.49684  0.41908  0.26893  1.0000
  C   C1966     1.0  0.49517  0.39906  0.14830  1.0000
  C   C1967     1.0  0.94125  0.49357  0.06349  1.0000
  C   C1968     1.0  0.91987  0.49393  0.06563  1.0000
  C   C1969     1.0  0.94605  0.24475  0.09786  1.0000
  C   C1970     1.0  0.90132  0.47799  0.70252  1.0000
  S   S258      1.0  0.51369  0.45072  0.77695  1.0000
  H   H1574     1.0  0.97632  0.39504  0.72508  1.0000
  Fe  Fe126     1.0  0.59257  0.36869  0.84751  1.0000
  S   S259      1.0  0.59969  0.34600  0.81618  1.0000
  S   S260      1.0  0.58472  0.40272  0.83863  1.0000
  Fe  Fe127     1.0  0.60531  0.33787  0.89107  1.0000
  S   S261      1.0  0.61311  0.31340  0.86193  1.0000
  S   S262      1.0  0.61148  0.32646  0.93278  1.0000
  Fe  Fe128     1.0  0.62866  0.33772  0.83741  1.0000
  S   S263      1.0  0.66152  0.33727  0.81916  1.0000
  Fe  Fe129     1.0  0.58377  0.32308  0.84306  1.0000
  S   S264      1.0  0.56005  0.30183  0.82618  1.0000
  S   S265      1.0  0.62253  0.36184  0.86763  1.0000
  S   S266      1.0  0.57495  0.34626  0.87326  1.0000
  Fe  Fe130     1.0  0.84349  0.47087  0.64441  1.0000
  S   S267      1.0  0.84133  0.44145  0.62268  1.0000
  C   C1971     1.0  0.80317  0.40850  0.75022  1.0000
  H   H1575     1.0  0.99317  0.31048  0.76451  1.0000
  S   S268      1.0  0.80081  0.46191  0.59432  1.0000
  Fe  Fe131     1.0  0.80747  0.44412  0.63118  1.0000
  S   S269      1.0  0.78601  0.41936  0.64687  1.0000
  Fe  Fe132     1.0  0.83479  0.46179  0.58766  1.0000
  S   S270      1.0  0.85068  0.45884  0.54812  1.0000
  S   S271      1.0  0.80978  0.47252  0.65489  1.0000
  C   C1972     1.0  0.71872  0.38633  0.50483  1.0000
  S   S272      1.0  0.95699  0.28563  0.87861  1.0000
  C   C1973     1.0  0.61272  0.32357  0.98607  1.0000
  S   S273      1.0  0.94900  0.33334  0.86002  1.0000
  H   H1576     1.0  0.52878  0.27489  0.80954  1.0000
  Fe  Fe133     1.0  0.96003  0.31667  0.89624  1.0000
  S   S274      1.0  0.94506  0.31900  0.93664  1.0000
  Fe  Fe134     1.0  0.94860  0.30234  0.84178  1.0000
  S   S275      1.0  0.92682  0.29243  0.81011  1.0000
  C   C1974     1.0  0.62913  0.40275  0.98019  1.0000
  S   S276      1.0  0.86437  0.47538  0.67869  1.0000
  H   H1577     1.0  0.55313  0.46401  0.79773  1.0000
  Fe  Fe135     1.0  0.80978  0.28598  0.76772  1.0000
  S   S277      1.0  0.82302  0.28422  0.72767  1.0000
  S   S278      1.0  0.82930  0.28973  0.80356  1.0000
  Fe  Fe136     1.0  0.76543  0.28520  0.74857  1.0000
  S   S279      1.0  0.77638  0.28366  0.70635  1.0000
  S   S280      1.0  0.73104  0.28234  0.76088  1.0000
  Fe  Fe137     1.0  0.79965  0.26004  0.71982  1.0000
  Fe  Fe138     1.0  0.79915  0.30780  0.71683  1.0000
  S   S281      1.0  0.81491  0.33221  0.69127  1.0000
  S   S282      1.0  0.78779  0.26015  0.76136  1.0000
  S   S283      1.0  0.78683  0.31086  0.75776  1.0000
  C   C1975     1.0  0.95719  0.32110  0.96704  1.0000
  C   C1976     1.0  0.90877  0.26863  0.89371  1.0000
  C   C1977     1.0  0.97755  0.32725  0.96892  1.0000
  H   H1578     1.0  0.97460  0.38935  0.85239  1.0000
  H   H1579     1.0  0.63909  0.27215  0.74458  1.0000
  C   C1978     1.0  0.50988  0.39315  0.70106  1.0000
  H   H1580     1.0  0.91269  0.24886  0.74471  1.0000
  H   H1581     1.0  0.90729  0.27396  0.87381  1.0000
  H   H1582     1.0  0.85688  0.25304  0.70207  1.0000
  C   C1979     1.0  0.89686  0.37131  0.84262  1.0000
  C   C1980     1.0  0.89966  0.29326  0.80830  1.0000
  C   C1981     1.0  0.89054  0.28807  0.78490  1.0000
  C   C1982     1.0  0.86904  0.28757  0.78280  1.0000
  C   C1983     1.0  0.85640  0.29214  0.80422  1.0000
  C   C1984     1.0  0.86554  0.29779  0.82745  1.0000
  C   C1985     1.0  0.88703  0.29838  0.82949  1.0000
  H   H1583     1.0  0.90017  0.28420  0.76835  1.0000
  H   H1584     1.0  0.86226  0.28314  0.76485  1.0000
  H   H1585     1.0  0.85590  0.30132  0.84414  1.0000
  H   H1586     1.0  0.89379  0.30245  0.84758  1.0000
  C   C1986     1.0  0.83737  0.45940  0.51842  1.0000
  C   C1987     1.0  0.81595  0.45880  0.51771  1.0000
  H   H1587     1.0  0.98070  0.36075  0.70567  1.0000
  H   H1588     1.0  0.80704  0.45848  0.53562  1.0000
  C   C1988     1.0  0.52595  0.25049  0.83819  1.0000
  H   H1589     1.0  0.54077  0.36932  0.74498  1.0000
  H   H1590     1.0  0.96925  0.37162  0.76435  1.0000
  C   C1989     1.0  0.53367  0.27337  0.95151  1.0000
  H   H1591     1.0  0.62029  0.41488  0.97098  1.0000
  H   H1592     1.0  0.52171  0.26672  0.94023  1.0000
  C   C1990     1.0  0.79487  0.39603  0.66104  1.0000
  C   C1991     1.0  0.78178  0.38484  0.67793  1.0000
  C   C1992     1.0  0.78769  0.36538  0.68777  1.0000
  C   C1993     1.0  0.80669  0.35688  0.68052  1.0000
  C   C1994     1.0  0.81983  0.36821  0.66391  1.0000
  C   C1995     1.0  0.81408  0.38776  0.65442  1.0000
  H   H1593     1.0  0.76688  0.39113  0.68313  1.0000
  H   H1594     1.0  0.77745  0.35686  0.70060  1.0000
  H   H1595     1.0  0.83445  0.36167  0.65803  1.0000
  H   H1596     1.0  0.82427  0.39614  0.64138  1.0000
  C   C1996     1.0  0.68059  0.32144  0.80328  1.0000
  C   C1997     1.0  0.70035  0.32938  0.79835  1.0000
  C   C1998     1.0  0.71593  0.31773  0.78568  1.0000
  C   C1999     1.0  0.71202  0.29786  0.77740  1.0000
  C   C2000     1.0  0.69222  0.28993  0.78221  1.0000
  C   C2001     1.0  0.67669  0.30152  0.79513  1.0000
  H   H1597     1.0  0.70368  0.34471  0.80447  1.0000
  H   H1598     1.0  0.73095  0.32418  0.78221  1.0000
  H   H1599     1.0  0.68885  0.27471  0.77574  1.0000
  H   H1600     1.0  0.66163  0.29517  0.79854  1.0000
  C   C2002     1.0  0.60582  0.33528  0.96467  1.0000
  C   C2003     1.0  0.91159  0.34866  0.71334  1.0000
  C   C2004     1.0  0.59510  0.35356  0.96930  1.0000
  C   C2005     1.0  0.53227  0.27284  0.97862  1.0000
  H   H1601     1.0  0.58967  0.36273  0.95312  1.0000
  H   H1602     1.0  0.53422  0.44351  0.71037  1.0000
  C   C2006     1.0  0.55008  0.27890  0.84030  1.0000
  C   C2007     1.0  0.55735  0.27064  0.86360  1.0000
  H   H1603     1.0  0.51069  0.39946  0.68156  1.0000
  H   H1604     1.0  0.93416  0.46759  0.64077  1.0000
  H   H1605     1.0  0.56943  0.27834  0.87344  1.0000
  H   H1606     1.0  0.92993  0.31262  0.98885  1.0000
  C   C2008     1.0  0.53417  0.43769  0.79311  1.0000
  C   C2009     1.0  0.53257  0.41647  0.79817  1.0000
  C   C2010     1.0  0.54803  0.40543  0.81142  1.0000
  C   C2011     1.0  0.56523  0.41555  0.82032  1.0000
  C   C2012     1.0  0.56690  0.43677  0.81511  1.0000
  C   C2013     1.0  0.55160  0.44774  0.80143  1.0000
  H   H1607     1.0  0.51917  0.40852  0.79192  1.0000
  H   H1608     1.0  0.54643  0.38918  0.81528  1.0000
  H   H1609     1.0  0.58008  0.44482  0.82189  1.0000
  C   C2014     1.0  0.93486  0.47464  0.68134  1.0000
  C   C2015     1.0  0.61639  0.26237  0.88094  1.0000
  Fe  Fe139     1.0  0.98232  0.33397  0.84781  1.0000
  H   H1610     1.0  0.60146  0.25643  0.87667  1.0000
  C   C2016     1.0  0.87245  0.24564  0.86022  1.0000
  C   C2017     1.0  0.79695  0.24985  0.61029  1.0000
  H   H1611     1.0  0.67121  0.25739  0.81524  1.0000
  H   H1612     1.0  0.98649  0.33046  0.95144  1.0000
  Fe  Fe140     1.0  0.99292  0.47564  0.77059  1.0000
  C   C2018     1.0  0.87687  0.41765  0.67021  1.0000
  H   H1613     1.0  0.54610  0.41743  0.74219  1.0000
  C   C2019     1.0  0.54893  0.25242  0.87411  1.0000
  H   H1614     1.0  0.94835  0.39774  0.78222  1.0000
  H   H1615     1.0  0.88788  0.47023  0.78681  1.0000
  C   C2020     1.0  0.98634  0.42797  0.80869  1.0000
  H   H1616     1.0  0.84296  0.25819  0.84965  1.0000
  H   H1617     1.0  0.60263  0.28001  0.82922  1.0000
  C   C2021     1.0  0.75364  0.47244  0.55771  1.0000
  C   C2022     1.0  0.90624  0.35250  0.73935  1.0000
  C   C2023     1.0  0.91908  0.48760  0.58595  1.0000
  C   C2024     1.0  0.84866  0.45971  0.49489  1.0000
  H   H1618     1.0  0.88404  0.34577  0.77014  1.0000
  H   H1619     1.0  0.90533  0.39968  0.78782  1.0000
  H   H1620     1.0  0.57909  0.29795  0.94364  1.0000
  H   H1621     1.0  0.86249  0.39445  0.78864  1.0000
  H   H1622     1.0  0.88752  0.48526  0.57491  1.0000
  C   C2025     1.0  0.98050  0.39666  0.83483  1.0000
  C   C2026     1.0  0.94348  0.40294  0.76319  1.0000
  C   C2027     1.0  0.83998  0.34787  0.78916  1.0000
  H   H1623     1.0  0.90892  0.29923  0.90876  1.0000
  H   H1624     1.0  0.91909  0.33586  0.80348  1.0000
  C   C2028     1.0  0.61856  0.27342  0.90368  1.0000
  C   C2029     1.0  0.86637  0.41995  0.69386  1.0000
  C   C2030     1.0  0.63736  0.28214  0.90920  1.0000
  H   H1625     1.0  0.82588  0.43301  0.69830  1.0000
  H   H1626     1.0  0.91494  0.38934  0.71177  1.0000
  H   H1627     1.0  0.98981  0.49355  0.83597  1.0000
  C   C2031     1.0  0.54772  0.28148  0.99335  1.0000
  H   H1628     1.0  0.96407  0.26098  0.94020  1.0000
  H   H1629     1.0  0.82159  0.33636  0.75872  1.0000
  C   C2032     1.0  0.74916  0.47889  0.58289  1.0000
  H   H1630     1.0  0.62910  0.38338  0.94675  1.0000
  H   H1631     1.0  0.69063  0.49306  0.56485  1.0000
  C   C2033     1.0  0.56611  0.29074  0.95340  1.0000
  H   H1632     1.0  0.92603  0.35401  0.70517  1.0000
  C   C2034     1.0  0.83046  0.34909  0.76523  1.0000
  H   H1633     1.0  0.92837  0.32029  0.75971  1.0000
  C   C2035     1.0  0.87968  0.39820  0.65985  1.0000
  H   H1634     1.0  0.54158  0.38342  0.69997  1.0000
  C   C2036     1.0  0.77834  0.42792  0.72545  1.0000
  C   C2037     1.0  0.60723  0.29222  0.79070  1.0000
  C   C2038     1.0  0.98019  0.32090  0.76286  1.0000
  C   C2039     1.0  0.91378  0.36760  0.79234  1.0000
  H   H1635     1.0  0.86423  0.43520  0.70144  1.0000
  H   H1636     1.0  0.83098  0.44295  0.76691  1.0000
  C   C2040     1.0  0.55044  0.28259  0.93891  1.0000
  Fe  Fe141     1.0  0.99008  0.28918  0.86656  1.0000
  H   H1637     1.0  0.67448  0.49002  0.72357  1.0000
  C   C2041     1.0  0.61751  0.29016  0.76689  1.0000
  H   H1638     1.0  0.88749  0.39651  0.64126  1.0000
  S   S284      1.0  0.83951  0.49098  0.60900  1.0000
  H   H1639     1.0  0.62098  0.30937  0.98276  1.0000
  H   H1640     1.0  0.90408  0.33922  0.84728  1.0000
  H   H1641     1.0  0.80125  0.26554  0.60597  1.0000
  C   C2042     1.0  0.53442  0.26867  0.82763  1.0000
  C   C2043     1.0  0.93073  0.41760  0.71488  1.0000
  H   H1642     1.0  0.94773  0.44473  0.72315  1.0000
  C   C2044     1.0  0.74824  0.46456  0.60332  1.0000
  C   C2045     1.0  0.98506  0.27085  0.96879  1.0000
  H   H1643     1.0  0.92478  0.25039  0.82532  1.0000
  C   C2046     1.0  0.85837  0.42628  0.75474  1.0000
  H   H1644     1.0  0.66829  0.28744  0.89572  1.0000
  C   C2047     1.0  0.85620  0.24918  0.84345  1.0000
  C   C2048     1.0  0.62536  0.26240  0.80781  1.0000
  H   H1645     1.0  0.60550  0.27607  0.91652  1.0000
  H   H1646     1.0  0.75480  0.48360  0.54197  1.0000
  C   C2049     1.0  0.91262  0.27646  0.93900  1.0000
  C   C2050     1.0  0.63316  0.25971  0.86363  1.0000
  H   H1647     1.0  0.89610  0.46806  0.63861  1.0000
  C   C2051     1.0  0.56491  0.28995  0.98048  1.0000
  H   H1648     1.0  0.87393  0.36597  0.66507  1.0000
  H   H1649     1.0  0.64923  0.35562  0.96762  1.0000
  C   C2052     1.0  0.83245  0.36663  0.74953  1.0000
  H   H1650     1.0  0.61470  0.30112  0.75131  1.0000
  H   H1651     1.0  0.83828  0.33424  0.80132  1.0000
  C   C2053     1.0  0.85378  0.38181  0.78164  1.0000
  C   C2054     1.0  0.87964  0.45787  0.77815  1.0000
  H   H1652     1.0  0.84983  0.47062  0.78738  1.0000
  H   H1653     1.0  0.80638  0.39872  0.76683  1.0000
  C   C2055     1.0  0.97811  0.41804  0.83096  1.0000
  C   C2056     1.0  0.98316  0.34200  0.76353  1.0000
  C   C2057     1.0  0.63123  0.27386  0.76313  1.0000
  H   H1654     1.0  0.78096  0.40926  0.51434  1.0000
  C   C2058     1.0  0.49612  0.48627  0.82853  1.0000
  H   H1655     1.0  0.76266  0.43277  0.72219  1.0000
  C   C2059     1.0  0.90971  0.28297  0.91340  1.0000
  H   H1656     1.0  0.76254  0.37360  0.53604  1.0000
  C   C2060     1.0  0.64553  0.36939  0.97827  1.0000
  H   H1657     1.0  0.70057  0.48797  0.51864  1.0000
  C   C2061     1.0  0.85850  0.40282  0.70745  1.0000
  H   H1658     1.0  0.82443  0.36745  0.73133  1.0000
  C   C2062     1.0  0.65394  0.28001  0.89189  1.0000
  C   C2063     1.0  0.89728  0.38829  0.82574  1.0000
  S   S285      1.0  0.98418  0.45512  0.80551  1.0000
  H   H1659     1.0  0.86521  0.46024  0.49521  1.0000
  C   C2064     1.0  0.89151  0.47458  0.67904  1.0000
  C   C2065     1.0  0.84757  0.44234  0.76681  1.0000
  H   H1660     1.0  0.78236  0.25715  0.64696  1.0000
  H   H1661     1.0  0.95796  0.29685  0.76180  1.0000
  C   C2066     1.0  0.74504  0.40152  0.54202  1.0000
  H   H1662     1.0  0.59618  0.30455  0.79338  1.0000
  P   P67       1.0  0.76171  0.41049  0.56670  1.0000
  C   C2067     1.0  0.78805  0.40979  0.55522  1.0000
  C   C2068     1.0  0.75619  0.43712  0.57335  1.0000
  C   C2069     1.0  0.75729  0.45167  0.55297  1.0000
  H   H1663     1.0  0.55468  0.24608  0.89205  1.0000
  P   P68       1.0  0.92429  0.36505  0.75979  1.0000
  H   H1664     1.0  0.55129  0.28346  0.91792  1.0000
  C   C2070     1.0  0.75183  0.44375  0.59864  1.0000
  C   C2071     1.0  0.80397  0.41120  0.57292  1.0000
  C   C2072     1.0  0.82440  0.41121  0.56417  1.0000
  C   C2073     1.0  0.82908  0.41015  0.53769  1.0000
  C   C2074     1.0  0.81333  0.40913  0.51989  1.0000
  C   C2075     1.0  0.79287  0.40915  0.52856  1.0000
  C   C2076     1.0  0.75719  0.39353  0.59428  1.0000
  C   C2077     1.0  0.77157  0.37823  0.60102  1.0000
  C   C2078     1.0  0.76754  0.36476  0.62185  1.0000
  C   C2079     1.0  0.74905  0.36622  0.63586  1.0000
  C   C2080     1.0  0.73443  0.38100  0.62886  1.0000
  C   C2081     1.0  0.73838  0.39446  0.60798  1.0000
  H   H1665     1.0  0.90709  0.44184  0.76582  1.0000
  C   C2082     1.0  0.92287  0.47809  0.70368  1.0000
  H   H1666     1.0  0.72326  0.42681  0.54459  1.0000
  C   C2083     1.0  0.72724  0.41252  0.53533  1.0000
  H   H1667     1.0  0.76135  0.44701  0.53346  1.0000
  H   H1668     1.0  0.70059  0.41361  0.51140  1.0000
  C   C2084     1.0  0.89852  0.33756  0.69786  1.0000
  H   H1669     1.0  0.77085  0.40983  0.75956  1.0000
  H   H1670     1.0  0.75199  0.43313  0.61497  1.0000
  H   H1671     1.0  0.80060  0.41256  0.59348  1.0000
  H   H1672     1.0  0.83663  0.41271  0.57782  1.0000
  H   H1673     1.0  0.84489  0.41109  0.53093  1.0000
  H   H1674     1.0  0.88843  0.41392  0.74537  1.0000
  H   H1675     1.0  0.58617  0.48068  0.76175  1.0000
  H   H1676     1.0  0.78595  0.37662  0.59044  1.0000
  H   H1677     1.0  0.77901  0.35351  0.62761  1.0000
  H   H1678     1.0  0.74623  0.35606  0.65238  1.0000
  H   H1679     1.0  0.72013  0.38213  0.63980  1.0000
  H   H1680     1.0  0.72685  0.40574  0.60266  1.0000
  C   C2085     1.0  0.98611  0.33003  0.99347  1.0000
  H   H1681     1.0  0.89220  0.48085  0.71986  1.0000
  C   C2086     1.0  0.90346  0.47073  0.65680  1.0000
  C   C2087     1.0  0.62525  0.46111  0.79789  1.0000
  C   C2088     1.0  0.61200  0.46327  0.77689  1.0000
  C   C2089     1.0  0.59655  0.47844  0.77764  1.0000
  P   P69       1.0  0.61513  0.44704  0.74901  1.0000
  C   C2090     1.0  0.59018  0.44467  0.73487  1.0000
  C   C2091     1.0  0.63324  0.45832  0.72609  1.0000
  C   C2092     1.0  0.63306  0.45301  0.69985  1.0000
  C   C2093     1.0  0.64781  0.46088  0.68238  1.0000
  C   C2094     1.0  0.66273  0.47420  0.69095  1.0000
  C   C2095     1.0  0.95742  0.24722  0.82398  1.0000
  C   C2096     1.0  0.64840  0.47154  0.73455  1.0000
  C   C2097     1.0  0.58327  0.45951  0.71687  1.0000
  C   C2098     1.0  0.56323  0.45896  0.70786  1.0000
  C   C2099     1.0  0.54994  0.44360  0.71672  1.0000
  C   C2100     1.0  0.55668  0.42880  0.73456  1.0000
  C   C2101     1.0  0.57667  0.42934  0.74371  1.0000
  C   C2102     1.0  0.62463  0.42202  0.75916  1.0000
  C   C2103     1.0  0.63908  0.41127  0.74383  1.0000
  C   C2104     1.0  0.64690  0.39231  0.75236  1.0000
  C   C2105     1.0  0.64040  0.38393  0.77621  1.0000
  C   C2106     1.0  0.62599  0.39444  0.79146  1.0000
  C   C2107     1.0  0.61804  0.41331  0.78295  1.0000
  C   C2108     1.0  0.59384  0.49060  0.79948  1.0000
  H   H1682     1.0  0.63225  0.47100  0.83625  1.0000
  C   C2109     1.0  0.92503  0.47055  0.65805  1.0000
  H   H1683     1.0  0.63746  0.44973  0.79767  1.0000
  H   H1684     1.0  0.64523  0.24709  0.77968  1.0000
  H   H1685     1.0  0.62169  0.44256  0.69298  1.0000
  H   H1686     1.0  0.64762  0.45675  0.66216  1.0000
  C   C2110     1.0  0.96040  0.31324  0.76127  1.0000
  C   C2111     1.0  0.91457  0.25557  0.94497  1.0000
  H   H1687     1.0  0.64912  0.47552  0.75470  1.0000
  H   H1688     1.0  0.59300  0.47203  0.71058  1.0000
  H   H1689     1.0  0.55778  0.47086  0.69466  1.0000
  C   C2112     1.0  0.84432  0.38308  0.75746  1.0000
  C   C2113     1.0  0.85821  0.45807  0.77846  1.0000
  H   H1690     1.0  0.58117  0.41820  0.75836  1.0000
  H   H1691     1.0  0.64451  0.41745  0.72541  1.0000
  H   H1692     1.0  0.65813  0.38410  0.74063  1.0000
  H   H1693     1.0  0.64657  0.36931  0.78297  1.0000
  H   H1694     1.0  0.62102  0.38798  0.81002  1.0000
  H   H1695     1.0  0.60686  0.42116  0.79510  1.0000
  H   H1696     1.0  0.51914  0.26566  0.98786  1.0000
  H   H1697     1.0  0.89066  0.37275  0.86216  1.0000
  H   H1698     1.0  0.92554  0.42357  0.69635  1.0000
  C   C2114     1.0  0.88025  0.32973  0.70837  1.0000
  S   S286      1.0  0.96205  0.47557  0.68150  1.0000
  C   C2115     1.0  0.66298  0.47958  0.71701  1.0000
  C   C2116     1.0  0.96637  0.35550  0.76282  1.0000
  C   C2117     1.0  0.94639  0.34799  0.76097  1.0000
  H   H1699     1.0  0.97020  0.42698  0.84560  1.0000
  Fe  Fe142     1.0  0.98052  0.48650  0.71554  1.0000
  H   H1700     1.0  0.81699  0.40933  0.49930  1.0000
  H   H1701     1.0  0.98817  0.28518  0.95862  1.0000
  Fe  Fe143     1.0  0.50816  0.48248  0.75781  1.0000
  C   C2118     1.0  0.86160  0.38328  0.69703  1.0000
  C   C2119     1.0  0.99112  0.39027  0.71736  1.0000
  C   C2120     1.0  0.87523  0.33275  0.73444  1.0000
  H   H1702     1.0  0.89133  0.40295  0.83218  1.0000
  C   C2121     1.0  0.92495  0.39802  0.72366  1.0000
  C   C2122     1.0  0.88808  0.34413  0.74988  1.0000
  C   C2123     1.0  0.74919  0.38257  0.53052  1.0000
  H   H1703     1.0  0.90264  0.33483  0.67776  1.0000
  C   C2124     1.0  0.52749  0.38406  0.71145  1.0000
  C   C2125     1.0  0.62245  0.47327  0.81975  1.0000
  H   H1704     1.0  0.86143  0.32599  0.74276  1.0000
  C   C2126     1.0  0.94305  0.42968  0.73007  1.0000
  H   H1705     1.0  0.79028  0.44451  0.69225  1.0000
  C   C2127     1.0  0.52705  0.37610  0.73679  1.0000
  S   S287      1.0  0.50911  0.48389  0.71423  1.0000
  H   H1706     1.0  0.88798  0.26943  0.71886  1.0000
  C   C2128     1.0  0.81890  0.41449  0.73267  1.0000
  C   C2129     1.0  0.85158  0.36425  0.79741  1.0000
  C   C2130     1.0  0.63418  0.38509  0.96646  1.0000
  C   C2131     1.0  0.79395  0.43454  0.70851  1.0000
  C   C2132     1.0  0.89047  0.44185  0.76634  1.0000
  H   H1707     1.0  0.87002  0.32113  0.69647  1.0000
  C   C2133     1.0  0.60670  0.48795  0.82059  1.0000
  C   C2134     1.0  0.71423  0.40500  0.51663  1.0000
  C   C2135     1.0  0.90447  0.35243  0.83427  1.0000
  C   C2136     1.0  0.94359  0.32668  0.76023  1.0000
  H   H1708     1.0  0.74551  0.46969  0.62296  1.0000
  C   C2137     1.0  0.73616  0.37508  0.51186  1.0000
  C   C2138     1.0  0.81416  0.42782  0.71196  1.0000
  C   C2139     1.0  0.93165  0.39030  0.74771  1.0000
  C   C2140     1.0  0.91304  0.35058  0.80934  1.0000
  H   H1709     1.0  0.73952  0.36049  0.50295  1.0000
  H   H1710     1.0  0.91387  0.28771  0.95407  1.0000
  C   C2141     1.0  0.90543  0.38639  0.80060  1.0000
  S   S288      1.0  0.98164  0.30334  0.82822  1.0000
  H   H1711     1.0  0.63885  0.29124  0.92639  1.0000
  H   H1712     1.0  0.88250  0.43107  0.65975  1.0000
  C   C2142     1.0  0.87988  0.42609  0.75476  1.0000
  C   C2143     1.0  0.78295  0.41496  0.74638  1.0000
  H   H1713     1.0  0.85573  0.36973  0.70676  1.0000
  H   H1714     1.0  0.95840  0.43208  0.76630  1.0000
  P   P70       1.0  0.84509  0.40646  0.73814  1.0000
  C   C2144     1.0  0.94919  0.42247  0.75433  1.0000
  C   C2145     1.0  0.87209  0.38103  0.67329  1.0000
  H   H1715     1.0  0.85882  0.36328  0.81607  1.0000
  C   C2146     1.0  0.65188  0.26890  0.86923  1.0000
  H   H1716     1.0  0.51171  0.48034  0.82755  1.0000
  Fe  Fe144     1.0  0.80556  0.49006  0.61762  1.0000
  C   C2147     1.0  0.61106  0.27838  0.81107  1.0000
  H   H1717     1.0  0.66491  0.26797  0.85611  1.0000
  H   H1718     1.0  0.87127  0.25159  0.87963  1.0000
  C   C2148     1.0  0.99360  0.37102  0.70631  1.0000
  C   C2149     1.0  0.97126  0.25722  0.95849  1.0000
  C   C2150     1.0  0.94572  0.31726  0.99002  1.0000
  H   H1719     1.0  0.61399  0.49385  0.67757  1.0000
  H   H1720     1.0  0.58015  0.24786  0.92819  1.0000
  C   C2151     1.0  0.99143  0.38502  0.81658  1.0000
  C   C2152     1.0  0.50897  0.37711  0.75172  1.0000
  H   H1721     1.0  0.93015  0.48107  0.72181  1.0000
  H   H1722     1.0  0.67399  0.48056  0.67737  1.0000
  H   H1723     1.0  0.91716  0.25068  0.96481  1.0000
  H   H1724     1.0  0.95906  0.25647  0.80641  1.0000
  S   S289      1.0  0.99345  0.31978  0.88552  1.0000
  C   C2153     1.0  0.63491  0.25982  0.78335  1.0000
  C   C2154     1.0  0.91050  0.24763  0.89956  1.0000
  H   H1725     1.0  0.57726  0.29629  0.99140  1.0000
  H   H1726     1.0  0.50874  0.37114  0.77148  1.0000
  C   C2155     1.0  0.88528  0.25330  0.72273  1.0000
  H   H1727     1.0  0.66288  0.49232  0.80421  1.0000
  H   H1728     1.0  0.92410  0.47443  0.57493  1.0000
  C   C2156     1.0  0.99440  0.26634  0.99240  1.0000
  H   H1729     1.0  0.84489  0.24522  0.80506  1.0000
  C   C2157     1.0  0.89848  0.49367  0.58600  1.0000
  H   H1730     1.0  0.94913  0.49379  0.60020  1.0000
  P   P71       1.0  0.63046  0.24487  0.83452  1.0000
  C   C2158     1.0  0.78622  0.24518  0.63333  1.0000
  Fe  Fe145     1.0  0.68210  0.62775  0.34058  1.0000
  S   S290      1.0  0.65084  0.63097  0.35933  1.0000
  S   S291      1.0  0.70097  0.65268  0.31853  1.0000
  Fe  Fe146     1.0  0.68592  0.58259  0.35919  1.0000
  S   S292      1.0  0.65465  0.58324  0.37897  1.0000
  S   S293      1.0  0.70235  0.55150  0.36353  1.0000
  Fe  Fe147     1.0  0.64372  0.59988  0.34315  1.0000
  S   S294      1.0  0.61205  0.59682  0.32424  1.0000
  Fe  Fe148     1.0  0.66403  0.61380  0.39376  1.0000
  S   S295      1.0  0.65659  0.62591  0.43437  1.0000
  S   S296      1.0  0.67443  0.59747  0.32231  1.0000
  S   S297      1.0  0.69583  0.61234  0.37606  1.0000
  H   H1731     1.0  0.71785  0.58765  0.44284  1.0000
  Fe  Fe149     1.0  0.53020  0.51489  0.26020  1.0000
  C   C2159     1.0  0.61206  0.59394  0.44026  1.0000
  S   S298      1.0  0.56044  0.52177  0.28076  1.0000
  S   S299      1.0  0.79578  0.52463  0.34324  1.0000
  H   H1732     1.0  0.50107  0.69899  0.11148  1.0000
  H   H1733     1.0  0.52244  0.66099  0.22624  1.0000
  C   C2160     1.0  0.54330  0.57000  0.21321  1.0000
  P   P72       1.0  0.61462  0.55452  0.46241  1.0000
  C   C2161     1.0  0.69855  0.70459  0.22104  1.0000
  C   C2162     1.0  0.71971  0.59664  0.17907  1.0000
  H   H1734     1.0  0.69513  0.63053  0.13928  1.0000
  C   C2163     1.0  0.53747  0.63369  0.30342  1.0000
  C   C2164     1.0  0.89458  0.53282  0.32140  1.0000
  C   C2165     1.0  0.53703  0.71166  0.07621  1.0000
  H   H1735     1.0  0.93546  0.58818  0.24145  1.0000
  C   C2166     1.0  0.53260  0.74009  0.04583  1.0000
  C   C2167     1.0  0.60990  0.57285  0.43642  1.0000
  C   C2168     1.0  0.59806  0.57569  0.31214  1.0000
  C   C2169     1.0  0.57854  0.57932  0.30164  1.0000
  C   C2170     1.0  0.56682  0.56316  0.29197  1.0000
  C   C2171     1.0  0.57446  0.54301  0.29255  1.0000
  C   C2172     1.0  0.59397  0.53940  0.30306  1.0000
  C   C2173     1.0  0.60569  0.55556  0.31276  1.0000
  H   H1736     1.0  0.57235  0.59474  0.30117  1.0000
  H   H1737     1.0  0.55179  0.56621  0.28435  1.0000
  H   H1738     1.0  0.60008  0.52393  0.30372  1.0000
  H   H1739     1.0  0.62060  0.55241  0.32075  1.0000
  C   C2174     1.0  0.66284  0.61556  0.46542  1.0000
  H   H1740     1.0  0.82546  0.59941  0.23183  1.0000
  C   C2175     1.0  0.67374  0.59712  0.46847  1.0000
  H   H1741     1.0  0.56945  0.64039  0.30803  1.0000
  H   H1742     1.0  0.67880  0.58881  0.45153  1.0000
  C   C2176     1.0  0.72863  0.54480  0.35866  1.0000
  C   C2177     1.0  0.74290  0.55854  0.34796  1.0000
  C   C2178     1.0  0.76345  0.55223  0.34370  1.0000
  C   C2179     1.0  0.77006  0.53228  0.35055  1.0000
  C   C2180     1.0  0.75588  0.51872  0.36188  1.0000
  C   C2181     1.0  0.73526  0.52490  0.36565  1.0000
  H   H1743     1.0  0.73806  0.57394  0.34278  1.0000
  H   H1744     1.0  0.77429  0.56286  0.33500  1.0000
  C   C2182     1.0  0.52071  0.59977  0.21690  1.0000
  H   H1745     1.0  0.72435  0.51418  0.37402  1.0000
  C   C2183     1.0  0.69762  0.67843  0.30640  1.0000
  C   C2184     1.0  0.67887  0.68903  0.30806  1.0000
  C   C2185     1.0  0.67702  0.70923  0.29780  1.0000
  C   C2186     1.0  0.69380  0.71923  0.28563  1.0000
  C   C2187     1.0  0.71260  0.70868  0.28413  1.0000
  C   C2188     1.0  0.71444  0.68848  0.29439  1.0000
  H   H1746     1.0  0.66577  0.68165  0.31722  1.0000
  H   H1747     1.0  0.66237  0.71711  0.29912  1.0000
  H   H1748     1.0  0.72566  0.71599  0.27479  1.0000
  H   H1749     1.0  0.72906  0.68057  0.29303  1.0000
  H   H1750     1.0  0.49797  0.72250  0.01624  1.0000
  C   C2189     1.0  0.95378  0.73956  0.11796  1.0000
  C   C2190     1.0  0.74064  0.54088  0.43631  1.0000
  H   H1751     1.0  0.52321  0.58281  0.15483  1.0000
  H   H1752     1.0  0.72826  0.69865  0.20377  1.0000
  H   H1753     1.0  0.86645  0.57844  0.29078  1.0000
  C   C2191     1.0  0.72970  0.63711  0.26637  1.0000
  H   H1754     1.0  0.94104  0.73276  0.04666  1.0000
  H   H1755     1.0  0.61617  0.60806  0.26848  1.0000
  C   C2192     1.0  0.57652  0.49674  0.44901  1.0000
  H   H1756     1.0  0.66317  0.61101  0.20917  1.0000
  C   C2193     1.0  0.59985  0.53181  0.45711  1.0000
  H   H1757     1.0  0.57249  0.54868  0.44622  1.0000
  H   H1758     1.0  0.92018  0.51655  0.26808  1.0000
  C   C2194     1.0  0.63835  0.60862  0.23682  1.0000
  C   C2195     1.0  0.72570  0.57351  0.44826  1.0000
  C   C2196     1.0  0.91285  0.73950  0.06698  1.0000
  H   H1759     1.0  0.74956  0.60532  0.31274  1.0000
  C   C2197     1.0  0.71376  0.67075  0.21721  1.0000
  H   H1760     1.0  0.74455  0.52982  0.42153  1.0000
  C   C2198     1.0  0.71478  0.69194  0.21296  1.0000
  H   H1761     1.0  0.50774  0.68963  0.20055  1.0000
  C   C2199     1.0  0.52222  0.62872  0.28604  1.0000
  H   H1762     1.0  0.96310  0.56172  0.24108  1.0000
  C   C2200     1.0  0.49780  0.74298  0.18005  1.0000
  H   H1763     1.0  0.94237  0.72827  0.11382  1.0000
  H   H1764     1.0  0.64791  0.64040  0.48563  1.0000
  H   H1765     1.0  0.72661  0.56216  0.40939  1.0000
  C   C2201     1.0  0.97429  0.73323  0.12120  1.0000
  H   H1766     1.0  0.54631  0.55710  0.17523  1.0000
  H   H1767     1.0  0.72014  0.59794  0.22045  1.0000
  H   H1768     1.0  0.60384  0.54986  0.40778  1.0000
  C   C2202     1.0  0.49981  0.66780  0.12509  1.0000
  S   S300      1.0  0.52865  0.51565  0.21654  1.0000
  S   S301      1.0  0.49869  0.52906  0.26548  1.0000
  H   H1769     1.0  0.71675  0.59902  0.13762  1.0000
  H   H1770     1.0  0.66699  0.66890  0.24803  1.0000
  H   H1771     1.0  0.79475  0.49579  0.28959  1.0000
  C   C2203     1.0  0.60884  0.60794  0.41987  1.0000
  C   C2204     1.0  0.88637  0.50922  0.23307  1.0000
  C   C2205     1.0  0.73060  0.55912  0.42939  1.0000
  C   C2206     1.0  0.70057  0.62348  0.15706  1.0000
  H   H1772     1.0  0.73217  0.65223  0.25817  1.0000
  C   C2207     1.0  0.58103  0.71514  0.11653  1.0000
  C   C2208     1.0  0.86301  0.50093  0.26877  1.0000
  C   C2209     1.0  0.65143  0.54160  0.48451  1.0000
  H   H1773     1.0  0.66898  0.70601  0.24014  1.0000
  H   H1774     1.0  0.62396  0.51032  0.46770  1.0000
  C   C2210     1.0  0.87173  0.53157  0.35905  1.0000
  H   H1775     1.0  0.63740  0.62858  0.29724  1.0000
  C   C2211     1.0  0.55753  0.63706  0.29444  1.0000
  C   C2212     1.0  0.69539  0.63215  0.18093  1.0000
  H   H1776     1.0  0.62910  0.59945  0.22442  1.0000
  C   C2213     1.0  0.53557  0.72516  0.09708  1.0000
  H   H1777     1.0  0.53956  0.69542  0.07964  1.0000
  P   P73       1.0  0.53919  0.71581  0.12993  1.0000
  C   C2214     1.0  0.56624  0.71498  0.13673  1.0000
  H   H1778     1.0  0.72707  0.58141  0.48800  1.0000
  C   C2215     1.0  0.67227  0.53636  0.48391  1.0000
  C   C2216     1.0  0.67784  0.58930  0.49354  1.0000
  C   C2217     1.0  0.65773  0.61520  0.22830  1.0000
  C   C2218     1.0  0.66242  0.63145  0.26953  1.0000
  C   C2219     1.0  0.74112  0.55150  0.48131  1.0000
  C   C2220     1.0  0.57268  0.71517  0.16252  1.0000
  S   S302      1.0  0.98083  0.70680  0.11855  1.0000
  H   H1779     1.0  0.50658  0.60962  0.18108  1.0000
  H   H1780     1.0  0.61324  0.71634  0.10643  1.0000
  H   H1781     1.0  0.84200  0.60432  0.27403  1.0000
  C   C2221     1.0  0.68129  0.69606  0.23329  1.0000
  C   C2222     1.0  0.53765  0.67492  0.14754  1.0000
  C   C2223     1.0  0.73097  0.56980  0.47406  1.0000
  C   C2224     1.0  0.74295  0.62978  0.28546  1.0000
  H   H1782     1.0  0.72646  0.66114  0.21082  1.0000
  H   H1783     1.0  0.72911  0.58285  0.17837  1.0000
  H   H1784     1.0  0.76165  0.50375  0.31136  1.0000
  C   C2225     1.0  0.68346  0.53726  0.46052  1.0000
  C   C2226     1.0  0.66995  0.62664  0.24468  1.0000
  C   C2227     1.0  0.68034  0.67492  0.23794  1.0000
  C   C2228     1.0  0.65293  0.54843  0.43821  1.0000
  C   C2229     1.0  0.71274  0.60574  0.15612  1.0000
  H   H1785     1.0  0.68251  0.54420  0.41951  1.0000
  C   C2230     1.0  0.59355  0.71593  0.16799  1.0000
  H   H1786     1.0  0.90992  0.53089  0.31340  1.0000
  H   H1787     1.0  0.56156  0.71518  0.17843  1.0000
  H   H1788     1.0  0.60157  0.61188  0.37952  1.0000
  H   H1789     1.0  0.75351  0.52273  0.46707  1.0000
  C   C2231     1.0  0.60814  0.71636  0.14778  1.0000
  H   H1790     1.0  0.85532  0.50467  0.28687  1.0000
  H   H1791     1.0  0.91103  0.50405  0.05316  1.0000
  H   H1792     1.0  0.55219  0.67739  0.15653  1.0000
  C   C2232     1.0  0.60351  0.60105  0.39550  1.0000
  H   H1793     1.0  0.53663  0.70864  0.03468  1.0000
  C   C2233     1.0  0.51714  0.59902  0.19022  1.0000
  C   C2234     1.0  0.50836  0.65869  0.21608  1.0000
  C   C2235     1.0  0.67379  0.54326  0.43767  1.0000
  C   C2236     1.0  0.52851  0.65567  0.15026  1.0000
  H   H1794     1.0  0.83347  0.56837  0.20632  1.0000
  H   H1795     1.0  0.95524  0.52596  0.25455  1.0000
  H   H1796     1.0  0.78450  0.54483  0.47945  1.0000
  H   H1797     1.0  0.94900  0.50339  0.04934  1.0000
  H   H1798     1.0  0.75532  0.63928  0.29172  1.0000
  H   H1799     1.0  0.53385  0.63452  0.32397  1.0000
  H   H1800     1.0  0.55220  0.51776  0.43870  1.0000
  C   C2237     1.0  0.56234  0.63565  0.26803  1.0000
  P   P74       1.0  0.50806  0.61862  0.23706  1.0000
  H   H1801     1.0  0.53655  0.58515  0.24888  1.0000
  C   C2238     1.0  0.52791  0.69072  0.13344  1.0000
  C   C2239     1.0  0.71294  0.62536  0.25914  1.0000
  H   H1802     1.0  0.68584  0.64585  0.18137  1.0000
  H   H1803     1.0  0.55122  0.62927  0.23024  1.0000
  H   H1804     1.0  0.55300  0.55844  0.22230  1.0000
  C   C2240     1.0  0.53389  0.58515  0.22825  1.0000
  C   C2241     1.0  0.57942  0.53368  0.44927  1.0000
  C   C2242     1.0  0.50959  0.65213  0.13908  1.0000
  C   C2243     1.0  0.60835  0.51220  0.46136  1.0000
  H   H1805     1.0  0.67166  0.64004  0.28259  1.0000
  C   C2244     1.0  0.53547  0.71911  0.05069  1.0000
  C   C2245     1.0  0.60189  0.71587  0.12207  1.0000
  C   C2246     1.0  0.73964  0.61069  0.29742  1.0000
  C   C2247     1.0  0.72312  0.59883  0.29020  1.0000
  C   C2248     1.0  0.70980  0.60613  0.27119  1.0000
  H   H1806     1.0  0.53595  0.64354  0.16132  1.0000
  C   C2249     1.0  0.49834  0.63977  0.21756  1.0000
  H   H1807     1.0  0.85772  0.54226  0.22282  1.0000
  H   H1808     1.0  0.69951  0.72109  0.21850  1.0000
  H   H1809     1.0  0.64576  0.55301  0.42030  1.0000
  H   H1810     1.0  0.49638  0.57579  0.24990  1.0000
  C   C2250     1.0  0.71458  0.60529  0.20298  1.0000
  H   H1811     1.0  0.50230  0.63736  0.14158  1.0000
  Fe  Fe150     1.0  0.49627  0.52806  0.22199  1.0000
  C   C2251     1.0  0.64298  0.62503  0.27786  1.0000
  C   C2252     1.0  0.64162  0.54786  0.46167  1.0000
  H   H1812     1.0  0.72029  0.58422  0.29989  1.0000
  H   H1813     1.0  0.69686  0.59688  0.26622  1.0000
  H   H1814     1.0  0.59781  0.57478  0.37233  1.0000
  C   C2253     1.0  0.52696  0.62713  0.25946  1.0000
  C   C2254     1.0  0.54713  0.63074  0.25058  1.0000
  C   C2255     1.0  0.60781  0.56512  0.49365  1.0000
  H   H1815     1.0  0.89684  0.51961  0.22312  1.0000
  C   C2256     1.0  0.60144  0.58011  0.39145  1.0000
  C   C2257     1.0  0.69663  0.66206  0.23000  1.0000
  P   P75       1.0  0.69544  0.63455  0.23472  1.0000
  C   C2258     1.0  0.89147  0.53022  0.34814  1.0000
  H   H1816     1.0  0.57799  0.63795  0.26121  1.0000
  C   C2259     1.0  0.85505  0.53575  0.34325  1.0000
  H   H1817     1.0  0.86932  0.52876  0.37965  1.0000
  H   H1818     1.0  0.90015  0.57899  0.25463  1.0000
  C   C2260     1.0  0.87793  0.53722  0.30539  1.0000
  C   C2261     1.0  0.85809  0.53853  0.31653  1.0000
  P   P76       1.0  0.88149  0.53930  0.27060  1.0000
  C   C2262     1.0  0.90743  0.54695  0.26229  1.0000
  C   C2263     1.0  0.87662  0.51472  0.25652  1.0000
  H   H1819     1.0  0.69967  0.53358  0.46013  1.0000
  C   C2264     1.0  0.52666  0.58388  0.17518  1.0000
  C   C2265     1.0  0.53963  0.56931  0.18669  1.0000
  C   C2266     1.0  0.92329  0.53225  0.26239  1.0000
  C   C2267     1.0  0.94322  0.53757  0.25476  1.0000
  C   C2268     1.0  0.94761  0.55770  0.24718  1.0000
  C   C2269     1.0  0.93200  0.57257  0.24735  1.0000
  C   C2270     1.0  0.91197  0.56725  0.25487  1.0000
  C   C2271     1.0  0.86374  0.55830  0.25817  1.0000
  C   C2272     1.0  0.85442  0.55568  0.23422  1.0000
  C   C2273     1.0  0.84067  0.57048  0.22477  1.0000
  C   C2274     1.0  0.83617  0.58798  0.23912  1.0000
  C   C2275     1.0  0.84549  0.59076  0.26289  1.0000
  C   C2276     1.0  0.85928  0.57602  0.27237  1.0000
  H   H1820     1.0  0.83966  0.53638  0.35165  1.0000
  C   C2277     1.0  0.70242  0.62316  0.20407  1.0000
  H   H1821     1.0  0.84485  0.54122  0.30460  1.0000
  H   H1822     1.0  0.62429  0.71726  0.15207  1.0000
  C   C2278     1.0  0.63100  0.61350  0.26161  1.0000
  H   H1823     1.0  0.57656  0.71506  0.09648  1.0000
  C   C2279     1.0  0.74575  0.53699  0.46216  1.0000
  C   C2280     1.0  0.56786  0.51620  0.44510  1.0000
  H   H1824     1.0  0.76071  0.50333  0.36721  1.0000
  C   C2281     1.0  0.60480  0.56604  0.41170  1.0000
  H   H1825     1.0  0.91141  0.72409  0.07492  1.0000
  H   H1826     1.0  0.90427  0.52617  0.36033  1.0000
  C   C2282     1.0  0.50003  0.67503  0.20161  1.0000
  H   H1827     1.0  0.81706  0.52535  0.48166  1.0000
  H   H1828     1.0  0.61678  0.59971  0.45867  1.0000
  C   C2283     1.0  0.65630  0.62609  0.48774  1.0000
  C   C2284     1.0  0.52690  0.73315  0.15259  1.0000
  H   H1829     1.0  0.59839  0.71654  0.18792  1.0000
  H   H1830     1.0  0.61122  0.62414  0.42278  1.0000
  H   H1831     1.0  0.49892  0.71573  0.15782  1.0000
  C   C2285     1.0  0.50731  0.72911  0.16317  1.0000
  C   C2286     1.0  0.59672  0.49474  0.45722  1.0000
  H   H1832     1.0  0.50693  0.62571  0.29355  1.0000
  C   C2287     1.0  0.50898  0.68696  0.12215  1.0000
  S   S303      1.0  0.68997  0.74437  0.27169  1.0000
  C   C2288     1.0  0.92981  0.74457  0.05120  1.0000
  S   S304      1.0  0.98822  0.49461  0.21311  1.0000
  Fe  Fe151     1.0  0.81080  0.49460  0.35674  1.0000
  Fe  Fe152     1.0  0.52401  0.51472  0.71778  1.0000
  S   S305      1.0  0.52462  0.51233  0.76140  1.0000
  S   S306      1.0  0.55339  0.51867  0.69278  1.0000
  Fe  Fe153     1.0  0.64125  0.59625  0.63856  1.0000
  S   S307      1.0  0.66783  0.60234  0.66447  1.0000
  S   S308      1.0  0.60884  0.59517  0.65715  1.0000
  Fe  Fe154     1.0  0.66923  0.59747  0.58893  1.0000
  S   S309      1.0  0.69731  0.60377  0.61206  1.0000
  S   S310      1.0  0.67440  0.58757  0.54674  1.0000
  Fe  Fe155     1.0  0.68537  0.57957  0.63975  1.0000
  S   S311      1.0  0.70278  0.55223  0.65715  1.0000
  Fe  Fe156     1.0  0.67752  0.62624  0.63474  1.0000
  S   S312      1.0  0.68758  0.65968  0.64076  1.0000
  S   S313      1.0  0.65816  0.57210  0.61592  1.0000
  S   S314      1.0  0.64999  0.62136  0.60964  1.0000
  S   S315      1.0  0.70851  0.72446  0.72895  1.0000
  S   S316      1.0  0.78740  0.51928  0.60856  1.0000
  H   H1833     1.0  0.62380  0.54762  0.79604  1.0000
  C   C2289     1.0  0.81036  0.51225  0.51942  1.0000
  H   H1834     1.0  0.66414  0.57127  0.76927  1.0000
  C   C2290     1.0  0.51476  0.61359  0.76622  1.0000
  C   C2291     1.0  0.58984  0.55917  0.50717  1.0000
  H   H1835     1.0  0.94880  0.55212  0.72041  1.0000
  H   H1836     1.0  0.82477  0.50384  0.52044  1.0000
  C   C2292     1.0  0.54397  0.71760  0.82972  1.0000
  C   C2293     1.0  0.76750  0.59578  0.55555  1.0000
  H   H1837     1.0  0.73044  0.54446  0.56770  1.0000
  H   H1838     1.0  0.67167  0.60806  0.76375  1.0000
  C   C2294     1.0  0.74911  0.60601  0.56159  1.0000
  C   C2295     1.0  0.59892  0.58005  0.54345  1.0000
  S   S317      1.0  0.98502  0.70760  0.87082  1.0000
  H   H1839     1.0  0.50696  0.66870  0.95274  1.0000
  C   C2296     1.0  0.58543  0.56666  0.53195  1.0000
  H   H1840     1.0  0.68093  0.54378  0.73571  1.0000
  C   C2297     1.0  0.50784  0.64952  0.77404  1.0000
  C   C2298     1.0  0.51607  0.68546  0.82540  1.0000
  C   C2299     1.0  0.72600  0.54286  0.64294  1.0000
  C   C2300     1.0  0.73599  0.55341  0.62259  1.0000
  C   C2301     1.0  0.75475  0.54591  0.61233  1.0000
  C   C2302     1.0  0.76363  0.52770  0.62208  1.0000
  C   C2303     1.0  0.75349  0.51691  0.64211  1.0000
  C   C2304     1.0  0.73479  0.52452  0.65255  1.0000
  H   H1841     1.0  0.72944  0.56753  0.61499  1.0000
  H   H1842     1.0  0.76248  0.55438  0.59685  1.0000
  C   C2305     1.0  0.94808  0.59750  0.84783  1.0000
  H   H1843     1.0  0.72720  0.51628  0.66831  1.0000
  C   C2306     1.0  0.69393  0.67709  0.66577  1.0000
  C   C2307     1.0  0.69320  0.67170  0.69219  1.0000
  C   C2308     1.0  0.69775  0.68634  0.71109  1.0000
  C   C2309     1.0  0.70318  0.70658  0.70401  1.0000
  C   C2310     1.0  0.70422  0.71183  0.67760  1.0000
  C   C2311     1.0  0.69949  0.69727  0.65872  1.0000
  H   H1844     1.0  0.68903  0.65629  0.69805  1.0000
  H   H1845     1.0  0.69713  0.68193  0.73138  1.0000
  H   H1846     1.0  0.70889  0.72704  0.67165  1.0000
  H   H1847     1.0  0.70024  0.70169  0.63842  1.0000
  C   C2312     1.0  0.66033  0.61822  0.51282  1.0000
  C   C2313     1.0  0.67089  0.59959  0.51587  1.0000
  C   C2314     1.0  0.98122  0.58967  0.86655  1.0000
  H   H1848     1.0  0.65491  0.62637  0.52974  1.0000
  C   C2315     1.0  0.62407  0.50647  0.68116  1.0000
  C   C2316     1.0  0.61016  0.54584  0.78477  1.0000
  H   H1849     1.0  0.85864  0.67512  0.85047  1.0000
  H   H1850     1.0  0.55813  0.54512  0.79252  1.0000
  C   C2317     1.0  0.56767  0.54051  0.68196  1.0000
  C   C2318     1.0  0.58498  0.53749  0.66567  1.0000
  C   C2319     1.0  0.59781  0.55392  0.65807  1.0000
  C   C2320     1.0  0.59324  0.57379  0.66623  1.0000
  C   C2321     1.0  0.57566  0.57693  0.68210  1.0000
  C   C2322     1.0  0.56298  0.56043  0.69000  1.0000
  H   H1851     1.0  0.58851  0.52228  0.65886  1.0000
  H   H1852     1.0  0.61110  0.55126  0.64565  1.0000
  H   H1853     1.0  0.57188  0.59223  0.68845  1.0000
  H   H1854     1.0  0.54969  0.56311  0.70240  1.0000
  H   H1855     1.0  0.87599  0.51512  0.59987  1.0000
  C   C2323     1.0  0.64228  0.57088  0.73824  1.0000
  C   C2324     1.0  0.97309  0.57619  0.92619  1.0000
  C   C2325     1.0  0.65120  0.51508  0.77736  1.0000
  C   C2326     1.0  0.99151  0.50835  0.84489  1.0000
  C   C2327     1.0  0.67419  0.72764  0.78593  1.0000
  C   C2328     1.0  0.98704  0.61004  0.86185  1.0000
  S   S318      1.0  0.97930  0.55340  0.76457  1.0000
  C   C2329     1.0  0.63189  0.58299  0.71996  1.0000
  C   C2330     1.0  0.63588  0.60391  0.71737  1.0000
  C   C2331     1.0  0.65033  0.61292  0.73298  1.0000
  C   C2332     1.0  0.66048  0.60104  0.75164  1.0000
  C   C2333     1.0  0.65633  0.58011  0.75449  1.0000
  C   C2334     1.0  0.50804  0.62509  0.80998  1.0000
  C   C2335     1.0  0.85160  0.72224  0.87692  1.0000
  H   H1856     1.0  0.61405  0.50923  0.72078  1.0000
  C   C2336     1.0  0.51255  0.60930  0.79274  1.0000
  C   C2337     1.0  0.66674  0.50381  0.78954  1.0000
  H   H1857     1.0  0.59568  0.58566  0.56278  1.0000
  C   C2338     1.0  0.84641  0.68048  0.88890  1.0000
  C   C2339     1.0  0.90148  0.60124  0.58083  1.0000
  H   H1858     1.0  0.95673  0.56787  0.86292  1.0000
  H   H1859     1.0  0.62079  0.57622  0.70749  1.0000
  H   H1860     1.0  0.62808  0.61297  0.70274  1.0000
  H   H1861     1.0  0.65375  0.62905  0.73043  1.0000
  C   C2340     1.0  0.90582  0.52124  0.61533  1.0000
  C   C2341     1.0  0.70703  0.50044  0.52920  1.0000
  P   P77       1.0  0.74817  0.54650  0.51473  1.0000
  H   H1862     1.0  0.83787  0.72734  0.91488  1.0000
  H   H1863     1.0  0.70816  0.52384  0.75730  1.0000
  C   C2342     1.0  0.62106  0.57882  0.50524  1.0000
  H   H1864     1.0  0.94231  0.73921  0.93638  1.0000
  C   C2343     1.0  0.54742  0.70247  0.81125  1.0000
  H   H1865     1.0  0.71582  0.57460  0.53275  1.0000
  H   H1866     1.0  0.96136  0.58185  0.91335  1.0000
  H   H1867     1.0  0.62957  0.72448  0.65659  1.0000
  H   H1868     1.0  0.69930  0.49821  0.79179  1.0000
  C   C2344     1.0  0.51251  0.63370  0.75688  1.0000
  Fe  Fe157     1.0  0.98941  0.52110  0.75315  1.0000
  H   H1869     1.0  0.93778  0.52363  0.62545  1.0000
  H   H1870     1.0  0.53260  0.68301  0.92113  1.0000
  C   C2345     1.0  0.95396  0.61780  0.84346  1.0000
  H   H1871     1.0  0.56077  0.70332  0.79843  1.0000
  C   C2346     1.0  0.73040  0.58047  0.53873  1.0000
  H   H1872     1.0  0.93311  0.59256  0.84203  1.0000
  C   C2347     1.0  0.70991  0.51923  0.56888  1.0000
  P   P78       1.0  0.63646  0.54401  0.74140  1.0000
  H   H1873     1.0  0.57164  0.56195  0.54239  1.0000
  H   H1874     1.0  0.64902  0.73934  0.61948  1.0000
  H   H1875     1.0  0.71628  0.60628  0.55763  1.0000
  C   C2348     1.0  0.74879  0.57014  0.53240  1.0000
  H   H1876     1.0  0.95672  0.73745  0.89121  1.0000
  H   H1877     1.0  0.65953  0.55246  0.69298  1.0000
  C   C2349     1.0  0.98773  0.59077  0.78569  1.0000
  H   H1878     1.0  0.87964  0.61466  0.60765  1.0000
  H   H1879     1.0  0.58976  0.54814  0.81810  1.0000
  C   C2350     1.0  0.69228  0.52152  0.76314  1.0000
  C   C2351     1.0  0.57309  0.54470  0.78294  1.0000
  C   C2352     1.0  0.50809  0.72718  0.93822  1.0000
  C   C2353     1.0  0.85444  0.68654  0.86466  1.0000
  H   H1880     1.0  0.68402  0.72816  0.80254  1.0000
  C   C2354     1.0  0.73060  0.59840  0.55303  1.0000
  C   C2355     1.0  0.89274  0.74179  0.84690  1.0000
  C   C2356     1.0  0.97337  0.62409  0.85062  1.0000
  P   P79       1.0  0.63466  0.72623  0.71292  1.0000
  C   C2357     1.0  0.65001  0.72660  0.74167  1.0000
  C   C2358     1.0  0.62807  0.70031  0.70505  1.0000
  C   C2359     1.0  0.64178  0.68839  0.69019  1.0000
  C   C2360     1.0  0.63655  0.66863  0.68297  1.0000
  C   C2361     1.0  0.61759  0.66057  0.69063  1.0000
  C   C2362     1.0  0.60398  0.67219  0.70587  1.0000
  C   C2363     1.0  0.60919  0.69200  0.71312  1.0000
  C   C2364     1.0  0.89192  0.51053  0.60042  1.0000
  H   H1881     1.0  0.78184  0.60161  0.56236  1.0000
  C   C2365     1.0  0.78738  0.53520  0.49631  1.0000
  C   C2366     1.0  0.67096  0.70907  0.77369  1.0000
  C   C2367     1.0  0.65891  0.70852  0.75163  1.0000
  H   H1882     1.0  0.50852  0.74332  0.93327  1.0000
  C   C2368     1.0  0.61148  0.74127  0.71854  1.0000
  C   C2369     1.0  0.99239  0.56993  0.91644  1.0000
  C   C2370     1.0  0.50742  0.68504  0.94879  1.0000
  C   C2371     1.0  0.64913  0.73697  0.68564  1.0000
  C   C2372     1.0  0.52210  0.71413  0.92573  1.0000
  C   C2373     1.0  0.77754  0.52176  0.53879  1.0000
  S   S319      1.0  0.96716  0.49486  0.75431  1.0000
  C   C2374     1.0  0.72926  0.53002  0.53023  1.0000
  H   H1883     1.0  0.84189  0.51624  0.69093  1.0000
  H   H1884     1.0  0.65646  0.69447  0.68385  1.0000
  H   H1885     1.0  0.64716  0.65969  0.67110  1.0000
  H   H1886     1.0  0.61341  0.64539  0.68452  1.0000
  H   H1887     1.0  0.58930  0.66587  0.71179  1.0000
  H   H1888     1.0  0.59842  0.70084  0.72476  1.0000
  C   C2375     1.0  0.64278  0.73380  0.66019  1.0000
  H   H1889     1.0  0.74704  0.49507  0.58675  1.0000
  H   H1890     1.0  0.97186  0.59449  0.78195  1.0000
  H   H1891     1.0  0.67844  0.69523  0.78071  1.0000
  H   H1892     1.0  0.65714  0.69409  0.74203  1.0000
  C   C2376     1.0  0.51303  0.70045  0.84437  1.0000
  C   C2377     1.0  0.68727  0.50706  0.78249  1.0000
  H   H1893     1.0  0.76020  0.50291  0.64981  1.0000
  H   H1894     1.0  0.53647  0.67499  0.79455  1.0000
  H   H1895     1.0  0.51386  0.64612  0.91259  1.0000
  C   C2378     1.0  0.85685  0.70735  0.85857  1.0000
  H   H1896     1.0  0.79980  0.50200  0.55723  1.0000
  C   C2379     1.0  0.93316  0.49853  0.60013  1.0000
  C   C2380     1.0  0.96158  0.58351  0.85951  1.0000
  C   C2381     1.0  0.63618  0.53254  0.70989  1.0000
  H   H1897     1.0  0.89438  0.72957  0.86119  1.0000
  H   H1898     1.0  0.92304  0.58386  0.55760  1.0000
  H   H1899     1.0  0.50544  0.66492  0.76642  1.0000
  C   C2382     1.0  0.70145  0.50326  0.55521  1.0000
  H   H1900     1.0  0.68618  0.57502  0.49568  1.0000
  C   C2383     1.0  0.53354  0.68644  0.80906  1.0000
  H   H1901     1.0  0.95526  0.73992  0.98078  1.0000
  C   C2384     1.0  0.50561  0.64536  0.80075  1.0000
  C   C2385     1.0  0.96886  0.57552  0.95288  1.0000
  H   H1902     1.0  0.90235  0.61480  0.56844  1.0000
  C   C2386     1.0  0.84295  0.71607  0.90093  1.0000
  H   H1903     1.0  0.99381  0.62008  0.80272  1.0000
  H   H1904     1.0  0.76699  0.52093  0.55526  1.0000
  C   C2387     1.0  0.92661  0.51536  0.61465  1.0000
  H   H1905     1.0  0.66031  0.53584  0.65073  1.0000
  C   C2388     1.0  0.91313  0.58381  0.57473  1.0000
  P   P80       1.0  0.89729  0.54338  0.63337  1.0000
  C   C2389     1.0  0.87084  0.53945  0.64330  1.0000
  C   C2390     1.0  0.91294  0.54633  0.66161  1.0000
  C   C2391     1.0  0.92020  0.52899  0.67521  1.0000
  C   C2392     1.0  0.93318  0.53110  0.69619  1.0000
  C   C2393     1.0  0.93871  0.55055  0.70412  1.0000
  C   C2394     1.0  0.93129  0.56793  0.69103  1.0000
  C   C2395     1.0  0.91850  0.56587  0.66983  1.0000
  C   C2396     1.0  0.85492  0.54575  0.62692  1.0000
  C   C2397     1.0  0.83449  0.54186  0.63391  1.0000
  C   C2398     1.0  0.82976  0.53142  0.65708  1.0000
  C   C2399     1.0  0.84548  0.52497  0.67338  1.0000
  C   C2400     1.0  0.86595  0.52891  0.66653  1.0000
  C   C2401     1.0  0.89906  0.56601  0.61278  1.0000
  C   C2402     1.0  0.91197  0.56626  0.59064  1.0000
  C   C2403     1.0  0.88749  0.58363  0.61886  1.0000
  C   C2404     1.0  0.62391  0.51548  0.70552  1.0000
  C   C2405     1.0  0.72095  0.51371  0.51677  1.0000
  C   C2406     1.0  0.88868  0.60115  0.60291  1.0000
  H   H1906     1.0  0.51784  0.60121  0.75290  1.0000
  H   H1907     1.0  0.91601  0.51381  0.66938  1.0000
  H   H1908     1.0  0.93914  0.51765  0.70620  1.0000
  H   H1909     1.0  0.93560  0.58300  0.69726  1.0000
  H   H1910     1.0  0.91316  0.57957  0.65991  1.0000
  H   H1911     1.0  0.85822  0.55314  0.60839  1.0000
  H   H1912     1.0  0.82227  0.54637  0.62100  1.0000
  H   H1913     1.0  0.81394  0.52790  0.66202  1.0000
  H   H1914     1.0  0.95403  0.58062  0.96031  1.0000
  H   H1915     1.0  0.87784  0.52309  0.67906  1.0000
  H   H1916     1.0  0.92112  0.55294  0.58554  1.0000
  H   H1917     1.0  0.87752  0.58380  0.63594  1.0000
  C   C2407     1.0  0.50663  0.65468  0.87327  1.0000
  H   H1918     1.0  0.55448  0.73026  0.83109  1.0000
  H   H1919     1.0  0.61245  0.73918  0.76059  1.0000
  H   H1920     1.0  0.51393  0.63693  0.73625  1.0000
  C   C2408     1.0  0.67680  0.53290  0.75107  1.0000
  C   C2409     1.0  0.96132  0.74277  0.87203  1.0000
  H   H1921     1.0  0.50508  0.51773  0.83222  1.0000
  H   H1922     1.0  0.50586  0.62120  0.83031  1.0000
  H   H1923     1.0  0.63711  0.50702  0.64240  1.0000
  H   H1924     1.0  0.56075  0.54204  0.74474  1.0000
  H   H1925     1.0  0.67985  0.53224  0.50176  1.0000
  H   H1926     1.0  0.53302  0.72045  0.91169  1.0000
  H   H1927     1.0  0.98558  0.52547  0.80971  1.0000
  C   C2410     1.0  0.52680  0.71656  0.84631  1.0000
  C   C2411     1.0  0.57453  0.54293  0.75605  1.0000
  C   C2412     1.0  0.97561  0.73113  0.85748  1.0000
  H   H1928     1.0  0.49965  0.70001  0.85721  1.0000
  H   H1929     1.0  0.58144  0.50177  0.80017  1.0000
  C   C2413     1.0  0.77274  0.53348  0.51660  1.0000
  C   C2414     1.0  0.72388  0.53242  0.55654  1.0000
  H   H1930     1.0  0.86261  0.71179  0.83946  1.0000
  P   P81       1.0  0.49725  0.66558  0.82219  1.0000
  C   C2415     1.0  0.98127  0.73806  0.83257  1.0000
  H   H1931     1.0  0.92262  0.73607  0.82955  1.0000
  C   C2416     1.0  0.76739  0.57793  0.54093  1.0000
  C   C2417     1.0  0.59372  0.54266  0.74351  1.0000
  C   C2418     1.0  0.59091  0.54631  0.79730  1.0000
  C   C2419     1.0  0.79621  0.51108  0.54008  1.0000
  H   H1932     1.0  0.62730  0.59635  0.53908  1.0000
  H   H1933     1.0  0.63539  0.51175  0.78233  1.0000
  C   C2420     1.0  0.63704  0.51390  0.66133  1.0000
  H   H1934     1.0  0.70574  0.52149  0.58912  1.0000
  H   H1935     1.0  0.72521  0.51114  0.49673  1.0000
  H   H1936     1.0  0.98983  0.55908  0.82950  1.0000
  H   H1937     1.0  0.98059  0.56831  0.99072  1.0000
  C   C2421     1.0  0.65381  0.74215  0.63905  1.0000
  H   H1938     1.0  0.84448  0.66435  0.89355  1.0000
  H   H1939     1.0  0.87600  0.74039  0.91669  1.0000
  C   C2422     1.0  0.64994  0.53028  0.66590  1.0000
  H   H1940     1.0  0.94357  0.62865  0.83431  1.0000
  H   H1941     1.0  0.74914  0.61978  0.57301  1.0000
  C   C2423     1.0  0.65618  0.53014  0.75854  1.0000
  C   C2424     1.0  0.64944  0.53968  0.69000  1.0000
  C   C2425     1.0  0.61671  0.58613  0.53007  1.0000
  C   C2426     1.0  0.52180  0.69307  0.93100  1.0000
  H   H1942     1.0  0.52393  0.72851  0.86034  1.0000
  H   H1943     1.0  0.59442  0.54218  0.72258  1.0000
  H   H1944     1.0  0.78178  0.57019  0.53664  1.0000
  H   H1945     1.0  0.64311  0.54103  0.50289  1.0000
  C   C2427     1.0  0.84056  0.69525  0.90697  1.0000
  H   H1946     1.0  0.52151  0.66136  0.86941  1.0000
  H   H1947     1.0  0.83401  0.69057  0.92560  1.0000
  C   C2428     1.0  0.80599  0.52438  0.49760  1.0000
  H   H1948     1.0  0.97805  0.63977  0.84694  1.0000
  H   H1949     1.0  0.57929  0.54864  0.49888  1.0000
  C   C2429     1.0  0.61171  0.54347  0.75780  1.0000
  H   H1950     1.0  0.63496  0.58360  0.49521  1.0000
  C   C2430     1.0  0.98381  0.56859  0.97003  1.0000
  C   C2431     1.0  0.99149  0.54537  0.84140  1.0000
  H   H1951     1.0  0.99200  0.72916  0.82100  1.0000
  H   H1952     1.0  0.60429  0.49710  0.83771  1.0000
  H   H1953     1.0  0.51375  0.59359  0.79981  1.0000
  C   C2432     1.0  0.50240  0.64598  0.89777  1.0000
  C   C2433     1.0  0.98918  0.52630  0.83007  1.0000
  Fe  Fe158     1.0  0.91559  0.86533  0.12465  1.0000
  S   S320      1.0  0.91416  0.84075  0.15555  1.0000
  S   S321      1.0  0.92743  0.89824  0.12905  1.0000
  Fe  Fe159     1.0  0.89711  0.83661  0.08381  1.0000
  S   S322      1.0  0.89445  0.81018  0.11273  1.0000
  S   S323      1.0  0.88443  0.83249  0.04300  1.0000
  Fe  Fe160     1.0  0.88246  0.83360  0.14121  1.0000
  S   S324      1.0  0.85496  0.83342  0.17035  1.0000
  Fe  Fe161     1.0  0.92610  0.81934  0.12454  1.0000
  S   S325      1.0  0.95593  0.80126  0.13038  1.0000
  S   S326      1.0  0.88336  0.85955  0.11168  1.0000
  S   S327      1.0  0.92918  0.84446  0.09424  1.0000
  Fe  Fe162     1.0  0.68343  0.93929  0.35530  1.0000
  S   S328      1.0  0.69422  0.96313  0.32636  1.0000
  S   S329      1.0  0.67725  0.90589  0.34580  1.0000
  Fe  Fe163     1.0  0.67373  0.97141  0.39721  1.0000
  H   H1954     1.0  0.95545  0.96239  0.30432  1.0000
  Fe  Fe164     1.0  0.66592  0.98076  0.33922  1.0000
  H   H1955     1.0  0.70276  0.86779  0.37156  1.0000
  C   C2434     1.0  0.91211  0.96963  0.26978  1.0000
  S   S330      1.0  0.65461  0.95648  0.36703  1.0000
  S   S331      1.0  0.70159  0.95223  0.38785  1.0000
  H   H1956     1.0  0.70975  0.83152  0.36211  1.0000
  H   H1957     1.0  0.50285  0.79388  0.01965  1.0000
  H   H1958     1.0  0.77244  0.84630  0.34172  1.0000
  C   C2435     1.0  0.58135  0.86941  0.07016  1.0000
  H   H1959     1.0  0.76505  0.88261  0.35147  1.0000
  C   C2436     1.0  0.87471  0.94984  0.31140  1.0000
  Fe  Fe165     1.0  0.51095  0.81679  0.13580  1.0000
  S   S332      1.0  0.53753  0.79808  0.12146  1.0000
  Fe  Fe166     1.0  0.53610  0.85640  0.13430  1.0000
  S   S333      1.0  0.56417  0.83977  0.11836  1.0000
  S   S334      1.0  0.54314  0.88968  0.14436  1.0000
  Fe  Fe167     1.0  0.54250  0.82366  0.09213  1.0000
  S   S335      1.0  0.54782  0.80978  0.05193  1.0000
  Fe  Fe168     1.0  0.55685  0.81578  0.14842  1.0000
  S   S336      1.0  0.57915  0.80051  0.17630  1.0000
  S   S337      1.0  0.52975  0.83265  0.16541  1.0000
  Fe  Fe169     1.0  0.74243  0.78778  0.21494  1.0000
  S   S338      1.0  0.73630  0.78721  0.25821  1.0000
  S   S339      1.0  0.77353  0.78077  0.19446  1.0000
  Fe  Fe170     1.0  0.69700  0.79933  0.20389  1.0000
  S   S340      1.0  0.68850  0.80023  0.24608  1.0000
  S   S341      1.0  0.67612  0.81083  0.17172  1.0000
  Fe  Fe171     1.0  0.71824  0.81655  0.25110  1.0000
  S   S342      1.0  0.72588  0.84775  0.26746  1.0000
  Fe  Fe172     1.0  0.70699  0.77054  0.24960  1.0000
  S   S343      1.0  0.72562  0.81739  0.20849  1.0000
  S   S344      1.0  0.71416  0.76923  0.20659  1.0000
  H   H1960     1.0  0.93032  0.83348  0.22564  1.0000
  C   C2437     1.0  0.61082  0.84695  0.06286  1.0000
  C   C2438     1.0  0.58766  0.77014  0.06252  1.0000
  C   C2439     1.0  0.54875  0.82044  0.01996  1.0000
  C   C2440     1.0  0.57643  0.85267  0.24589  1.0000
  H   H1961     1.0  0.73727  0.76831  0.14092  1.0000
  C   C2441     1.0  0.98024  0.74736  0.05057  1.0000
  C   C2442     1.0  0.60595  0.80478  0.17592  1.0000
  C   C2443     1.0  0.61827  0.79357  0.19324  1.0000
  C   C2444     1.0  0.63973  0.79574  0.19270  1.0000
  C   C2445     1.0  0.64909  0.80901  0.17459  1.0000
  C   C2446     1.0  0.63674  0.82064  0.15768  1.0000
  C   C2447     1.0  0.61525  0.81870  0.15854  1.0000
  H   H1962     1.0  0.61121  0.78289  0.20691  1.0000
  H   H1963     1.0  0.64906  0.78673  0.20584  1.0000
  H   H1964     1.0  0.64382  0.83115  0.14384  1.0000
  H   H1965     1.0  0.60588  0.82792  0.14574  1.0000
  H   H1966     1.0  0.77026  0.77416  0.32512  1.0000
  C   C2448     1.0  0.52777  0.90717  0.16282  1.0000
  C   C2449     1.0  0.53644  0.92559  0.17090  1.0000
  C   C2450     1.0  0.52462  0.94025  0.18465  1.0000
  H   H1967     1.0  0.55237  0.92863  0.16630  1.0000
  C   C2451     1.0  0.89308  0.89808  0.18515  1.0000
  H   H1968     1.0  0.88970  0.87790  0.24621  1.0000
  C   C2452     1.0  0.67242  0.96905  0.46745  1.0000
  C   C2453     1.0  0.68299  0.95028  0.46789  1.0000
  H   H1969     1.0  0.68585  0.94228  0.44998  1.0000
  S   S345      1.0  0.98014  0.94302  0.21487  1.0000
  C   C2454     1.0  0.92081  0.99014  0.15474  1.0000
  H   H1970     1.0  0.62502  0.89223  0.08872  1.0000
  C   C2455     1.0  0.89383  0.90998  0.23683  1.0000
  C   C2456     1.0  0.50716  0.90347  0.16903  1.0000
  H   H1971     1.0  0.73316  0.76727  0.35218  1.0000
  C   C2457     1.0  0.68994  0.89084  0.32198  1.0000
  C   C2458     1.0  0.68151  0.87197  0.31532  1.0000
  C   C2459     1.0  0.69183  0.85891  0.29778  1.0000
  C   C2460     1.0  0.71101  0.86437  0.28737  1.0000
  C   C2461     1.0  0.71915  0.88348  0.29349  1.0000
  C   C2462     1.0  0.70859  0.89677  0.31048  1.0000
  H   H1972     1.0  0.66700  0.86734  0.32397  1.0000
  H   H1973     1.0  0.68515  0.84446  0.29281  1.0000
  H   H1974     1.0  0.73392  0.88789  0.28543  1.0000
  H   H1975     1.0  0.71522  0.91124  0.31544  1.0000
  C   C2463     1.0  0.94224  0.91026  0.15314  1.0000
  C   C2464     1.0  0.94698  0.90060  0.17674  1.0000
  C   C2465     1.0  0.95828  0.91102  0.19538  1.0000
  C   C2466     1.0  0.96529  0.93112  0.19070  1.0000
  C   C2467     1.0  0.96068  0.94071  0.16705  1.0000
  C   C2468     1.0  0.94910  0.93043  0.14856  1.0000
  H   H1976     1.0  0.94168  0.88520  0.18073  1.0000
  C   C2469     1.0  0.92651  0.97228  0.28903  1.0000
  H   H1977     1.0  0.96617  0.95599  0.16287  1.0000
  H   H1978     1.0  0.94555  0.93812  0.13043  1.0000
  C   C2470     1.0  0.89603  0.83600  0.01154  1.0000
  Fe  Fe173     1.0  0.49740  0.98460  0.22551  1.0000
  C   C2471     1.0  0.61997  0.99071  0.30325  1.0000
  P   P82       1.0  0.95369  0.77163  0.02090  1.0000
  H   H1979     1.0  0.92618  0.84307  0.02453  1.0000
  C   C2472     1.0  0.96243  0.77500  0.12604  1.0000
  C   C2473     1.0  0.94788  0.76034  0.12017  1.0000
  H   H1980     1.0  0.53148  0.95439  0.19048  1.0000
  H   H1981     1.0  0.79792  0.79600  0.25381  1.0000
  H   H1982     1.0  0.93205  0.76494  0.11773  1.0000
  H   H1983     1.0  0.58745  0.89861  0.08673  1.0000
  C   C2474     1.0  0.58652  0.91555  0.28537  1.0000
  C   C2475     1.0  0.83258  0.81826  0.17672  1.0000
  C   C2476     1.0  0.82897  0.79987  0.16411  1.0000
  C   C2477     1.0  0.81090  0.78866  0.16976  1.0000
  C   C2478     1.0  0.79596  0.79576  0.18773  1.0000
  C   C2479     1.0  0.79953  0.81418  0.20016  1.0000
  C   C2480     1.0  0.81767  0.82528  0.19477  1.0000
  H   H1984     1.0  0.84016  0.79419  0.15015  1.0000
  H   H1985     1.0  0.80848  0.77436  0.16011  1.0000
  H   H1986     1.0  0.78840  0.81972  0.21420  1.0000
  H   H1987     1.0  0.82014  0.83948  0.20461  1.0000
  H   H1988     1.0  0.89769  0.92959  0.17513  1.0000
  H   H1989     1.0  0.70340  0.81732  0.08744  1.0000
  C   C2481     1.0  0.59220  0.94149  0.19270  1.0000
  C   C2482     1.0  0.87239  0.96185  0.23407  1.0000
  H   H1990     1.0  0.55193  0.75481  0.15159  1.0000
  H   H1991     1.0  0.60421  0.81562  0.10400  1.0000
  H   H1992     1.0  0.57954  0.83908  0.05516  1.0000
  C   C2483     1.0  0.91670  0.84105  0.00786  1.0000
  C   C2484     1.0  0.57702  0.98732  0.29755  1.0000
  H   H1993     1.0  0.88467  0.75038  0.08480  1.0000
  C   C2485     1.0  0.59917  0.78597  0.05104  1.0000
  C   C2486     1.0  0.53119  0.75357  0.06647  1.0000
  C   C2487     1.0  0.72126  0.77565  0.34208  1.0000
  H   H1994     1.0  0.66062  0.83515  0.02886  1.0000
  C   C2488     1.0  0.95541  0.85470  0.22291  1.0000
  C   C2489     1.0  0.95320  0.82408  0.19752  1.0000
  C   C2490     1.0  0.68373  0.82683  0.05623  1.0000
  H   H1995     1.0  0.74206  0.78237  0.43257  1.0000
  S   S346      1.0  0.99108  0.97984  0.26782  1.0000
  H   H1996     1.0  0.63968  0.80549  0.10004  1.0000
  C   C2491     1.0  0.59995  0.80286  0.09233  1.0000
  H   H1997     1.0  0.79225  0.76817  0.28634  1.0000
  C   C2492     1.0  0.60786  0.98221  0.32329  1.0000
  H   H1998     1.0  0.67490  0.80397  0.11516  1.0000
  C   C2493     1.0  0.58270  0.77048  0.08898  1.0000
  H   H1999     1.0  0.76322  0.97082  0.31146  1.0000
  C   C2494     1.0  0.52732  0.76496  0.17641  1.0000
  H   H2000     1.0  0.67435  0.76767  0.31686  1.0000
  C   C2495     1.0  0.94695  0.94438  0.27173  1.0000
  C   C2496     1.0  0.90686  0.96658  0.19753  1.0000
  H   H2001     1.0  0.71475  0.86452  0.06661  1.0000
  H   H2002     1.0  0.56492  0.87207  0.06960  1.0000
  C   C2497     1.0  0.89147  0.94990  0.32778  1.0000
  C   C2498     1.0  0.97951  0.86538  0.13295  1.0000
  H   H2003     1.0  0.60255  0.78547  0.03047  1.0000
  P   P83       1.0  0.62122  0.82269  0.05203  1.0000
  Fe  Fe174     1.0  0.99108  0.97555  0.22463  1.0000
  H   H2004     1.0  0.99434  0.77995  0.13349  1.0000
  C   C2499     1.0  0.92704  0.97387  0.19646  1.0000
  H   H2005     1.0  0.84391  0.83468  0.11087  1.0000
  H   H2006     1.0  0.55065  0.79073  0.00246  1.0000
  C   C2500     1.0  0.78654  0.78852  0.39778  1.0000
  C   C2501     1.0  0.89090  0.88341  0.20501  1.0000
  H   H2007     1.0  0.85799  0.93232  0.24021  1.0000
  H   H2008     1.0  0.94503  0.81049  0.19204  1.0000
  H   H2009     1.0  0.72781  0.79668  0.39209  1.0000
  H   H2010     1.0  0.59657  0.84400  0.01170  1.0000
  C   C2502     1.0  0.66872  0.97915  0.49101  1.0000
  H   H2011     1.0  0.75948  0.83631  0.29857  1.0000
  H   H2012     1.0  0.78151  0.83010  0.26023  1.0000
  C   C2503     1.0  0.69067  0.79617  0.31435  1.0000
  H   H2013     1.0  0.88881  0.86745  0.20024  1.0000
  H   H2014     1.0  0.88136  0.99356  0.22912  1.0000
  C   C2504     1.0  0.86140  0.98093  0.33122  1.0000
  H   H2015     1.0  0.90655  0.96578  0.35806  1.0000
  C   C2505     1.0  0.56554  0.85008  0.22322  1.0000
  P   P84       1.0  0.56864  0.91443  0.25905  1.0000
  C   C2506     1.0  0.56810  0.88917  0.24495  1.0000
  H   H2016     1.0  0.54715  0.85204  0.03095  1.0000
  C   C2507     1.0  0.96178  0.79687  0.02956  1.0000
  C   C2508     1.0  0.50379  0.93686  0.19002  1.0000
  H   H2017     1.0  0.77079  0.99224  0.46707  1.0000
  H   H2018     1.0  0.88786  0.78558  0.06611  1.0000
  C   C2509     1.0  0.89335  0.96552  0.34569  1.0000
  C   C2510     1.0  0.83680  0.95692  0.24760  1.0000
  H   H2019     1.0  0.58642  0.87358  0.27407  1.0000
  C   C2511     1.0  0.50638  0.92347  0.26690  1.0000
  C   C2512     1.0  0.85978  0.96533  0.31304  1.0000
  C   C2513     1.0  0.90073  0.98295  0.15565  1.0000
  C   C2514     1.0  0.66358  0.82794  0.04750  1.0000
  C   C2515     1.0  0.57560  0.93294  0.23406  1.0000
  C   C2516     1.0  0.70343  0.76540  0.33564  1.0000
  H   H2020     1.0  0.58394  0.83959  0.25498  1.0000
  H   H2021     1.0  0.93767  0.97041  0.21179  1.0000
  C   C2517     1.0  0.89780  0.75429  0.07256  1.0000
  H   H2022     1.0  0.52049  0.94650  0.32213  1.0000
  H   H2023     1.0  0.98589  0.89693  0.08021  1.0000
  C   C2518     1.0  0.54847  0.84158  0.01500  1.0000
  H   H2024     1.0  0.90321  0.93807  0.32627  1.0000
  C   C2519     1.0  0.79202  0.96496  0.32998  1.0000
  C   C2520     1.0  0.58966  0.85071  0.06200  1.0000
  H   H2025     1.0  0.78690  0.95079  0.33912  1.0000
  H   H2026     1.0  0.93557  0.93025  0.23786  1.0000
  S   S347      1.0  0.55000  0.98531  0.29552  1.0000
  C   C2521     1.0  0.68784  0.81814  0.08055  1.0000
  H   H2027     1.0  0.64374  0.79703  0.01499  1.0000
  H   H2028     1.0  0.70706  0.89866  0.08501  1.0000
  H   H2029     1.0  0.97150  0.82434  0.08337  1.0000
  C   C2522     1.0  0.94393  0.95971  0.29000  1.0000
  C   C2523     1.0  0.57773  0.87211  0.25673  1.0000
  C   C2524     1.0  0.64738  0.81990  0.06280  1.0000
  C   C2525     1.0  0.97360  0.83102  0.01779  1.0000
  C   C2526     1.0  0.94494  0.83704  0.21637  1.0000
  C   C2527     1.0  0.55630  0.86701  0.21112  1.0000
  H   H2030     1.0  0.97768  0.81886  0.17005  1.0000
  C   C2528     1.0  0.98220  0.84676  0.19105  1.0000
  H   H2031     1.0  0.52667  0.91051  0.23871  1.0000
  H   H2032     1.0  0.57032  0.98382  0.21961  1.0000
  H   H2033     1.0  0.96091  0.93523  0.27173  1.0000
  H   H2034     1.0  0.95974  0.79036  0.07090  1.0000
  C   C2529     1.0  0.98297  0.76872  0.12900  1.0000
  H   H2035     1.0  0.58481  0.78721  0.12430  1.0000
  H   H2036     1.0  0.61485  0.97730  0.34120  1.0000
  C   C2530     1.0  0.98975  0.88827  0.09759  1.0000
  S   S348      1.0  0.51491  0.84204  0.10560  1.0000
  H   H2037     1.0  0.73011  0.89340  0.36614  1.0000
  H   H2038     1.0  0.89063  0.98629  0.13970  1.0000
  H   H2039     1.0  0.55109  0.89933  0.21135  1.0000
  H   H2040     1.0  0.87342  0.93793  0.29723  1.0000
  C   C2531     1.0  0.93216  0.76470  0.04162  1.0000
  C   C2532     1.0  0.55782  0.88643  0.22168  1.0000
  C   C2533     1.0  0.61568  0.93101  0.30573  1.0000
  C   C2534     1.0  0.60247  0.92985  0.28483  1.0000
  H   H2041     1.0  0.62762  0.94240  0.30562  1.0000
  H   H2042     1.0  0.60450  0.94048  0.26870  1.0000
  H   H2043     1.0  0.60060  0.93675  0.17548  1.0000
  H   H2044     1.0  0.59207  0.91129  0.20973  1.0000
  C   C2535     1.0  0.73082  0.80073  0.14065  1.0000
  C   C2536     1.0  0.74337  0.78348  0.13728  1.0000
  C   C2537     1.0  0.76403  0.78581  0.13036  1.0000
  C   C2538     1.0  0.77226  0.80539  0.12708  1.0000
  C   C2539     1.0  0.75976  0.82284  0.13038  1.0000
  C   C2540     1.0  0.73895  0.82033  0.13728  1.0000
  P   P85       1.0  0.77035  0.84828  0.12738  1.0000
  C   C2541     1.0  0.77675  0.85758  0.15894  1.0000
  C   C2542     1.0  0.79327  0.84771  0.10704  1.0000
  C   C2543     1.0  0.79294  0.85366  0.08074  1.0000
  C   C2544     1.0  0.81094  0.85281  0.06546  1.0000
  C   C2545     1.0  0.82931  0.84597  0.07626  1.0000
  C   C2546     1.0  0.82971  0.84005  0.10238  1.0000
  C   C2547     1.0  0.81183  0.84101  0.11769  1.0000
  C   C2548     1.0  0.79142  0.87297  0.16126  1.0000
  C   C2549     1.0  0.79554  0.88091  0.18557  1.0000
  C   C2550     1.0  0.78481  0.87381  0.20764  1.0000
  C   C2551     1.0  0.77016  0.85856  0.20546  1.0000
  C   C2552     1.0  0.76642  0.85027  0.18126  1.0000
  C   C2553     1.0  0.75095  0.86474  0.11330  1.0000
  C   C2554     1.0  0.74653  0.88412  0.12356  1.0000
  C   C2555     1.0  0.73074  0.89627  0.11336  1.0000
  C   C2556     1.0  0.71929  0.88921  0.09286  1.0000
  C   C2557     1.0  0.72363  0.86998  0.08249  1.0000
  C   C2558     1.0  0.73939  0.85777  0.09267  1.0000
  H   H2045     1.0  0.71492  0.79889  0.14671  1.0000
  C   C2559     1.0  0.87841  0.98101  0.34740  1.0000
  H   H2046     1.0  0.77394  0.77243  0.12881  1.0000
  H   H2047     1.0  0.78847  0.80671  0.12268  1.0000
  H   H2048     1.0  0.72907  0.83346  0.14073  1.0000
  H   H2049     1.0  0.77894  0.85898  0.07194  1.0000
  H   H2050     1.0  0.81073  0.85742  0.04519  1.0000
  H   H2051     1.0  0.84327  0.84527  0.06445  1.0000
  H   H2052     1.0  0.67898  0.80398  0.30321  1.0000
  H   H2053     1.0  0.81243  0.83642  0.13787  1.0000
  H   H2054     1.0  0.79972  0.87880  0.14433  1.0000
  H   H2055     1.0  0.80715  0.89249  0.18728  1.0000
  H   H2056     1.0  0.78799  0.87992  0.22648  1.0000
  H   H2057     1.0  0.76194  0.85282  0.22258  1.0000
  H   H2058     1.0  0.75563  0.83800  0.18006  1.0000
  H   H2059     1.0  0.75508  0.88987  0.13954  1.0000
  H   H2060     1.0  0.72735  0.91116  0.12145  1.0000
  H   H2061     1.0  0.82148  0.96378  0.34759  1.0000
  H   H2062     1.0  0.95966  0.87563  0.10241  1.0000
  H   H2063     1.0  0.74250  0.84282  0.08458  1.0000
  C   C2560     1.0  0.60035  0.87009  0.17570  1.0000
  C   C2561     1.0  0.60249  0.88429  0.15533  1.0000
  C   C2562     1.0  0.61875  0.89803  0.15499  1.0000
  C   C2563     1.0  0.63268  0.89771  0.17523  1.0000
  C   C2564     1.0  0.63009  0.88408  0.19644  1.0000
  C   C2565     1.0  0.61394  0.87004  0.19629  1.0000
  P   P86       1.0  0.64886  0.88314  0.22186  1.0000
  C   C2566     1.0  0.67329  0.87629  0.20685  1.0000
  C   C2567     1.0  0.65085  0.90727  0.23861  1.0000
  C   C2568     1.0  0.66183  0.90808  0.26170  1.0000
  C   C2569     1.0  0.66420  0.92664  0.27430  1.0000
  C   C2570     1.0  0.65548  0.94460  0.26415  1.0000
  C   C2571     1.0  0.64395  0.94392  0.24172  1.0000
  C   C2572     1.0  0.64156  0.92535  0.22905  1.0000
  C   C2573     1.0  0.67395  0.86614  0.18304  1.0000
  C   C2574     1.0  0.69273  0.86116  0.17108  1.0000
  C   C2575     1.0  0.71102  0.86591  0.18296  1.0000
  C   C2576     1.0  0.71057  0.87529  0.20704  1.0000
  C   C2577     1.0  0.69182  0.88047  0.21896  1.0000
  C   C2578     1.0  0.64230  0.86303  0.24500  1.0000
  C   C2579     1.0  0.63226  0.86763  0.26860  1.0000
  C   C2580     1.0  0.62698  0.85193  0.28621  1.0000
  C   C2581     1.0  0.63114  0.83151  0.28010  1.0000
  C   C2582     1.0  0.64064  0.82679  0.25640  1.0000
  C   C2583     1.0  0.64638  0.84247  0.23899  1.0000
  H   H2064     1.0  0.58816  0.85898  0.17537  1.0000
  H   H2065     1.0  0.59155  0.88446  0.13978  1.0000
  H   H2066     1.0  0.62058  0.90881  0.13893  1.0000
  H   H2067     1.0  0.64558  0.90801  0.17432  1.0000
  H   H2068     1.0  0.61190  0.85874  0.21168  1.0000
  H   H2069     1.0  0.66851  0.89432  0.27017  1.0000
  H   H2070     1.0  0.67264  0.92706  0.29217  1.0000
  H   H2071     1.0  0.65723  0.95896  0.27409  1.0000
  H   H2072     1.0  0.63666  0.95780  0.23440  1.0000
  H   H2073     1.0  0.63234  0.92532  0.21202  1.0000
  H   H2074     1.0  0.66002  0.86154  0.17388  1.0000
  H   H2075     1.0  0.69302  0.85293  0.15304  1.0000
  H   H2076     1.0  0.72551  0.86172  0.17391  1.0000
  H   H2077     1.0  0.72474  0.87809  0.21691  1.0000
  H   H2078     1.0  0.69207  0.88732  0.23779  1.0000
  H   H2079     1.0  0.62845  0.88329  0.27353  1.0000
  H   H2080     1.0  0.61964  0.85561  0.30461  1.0000
  H   H2081     1.0  0.62698  0.81932  0.29369  1.0000
  H   H2082     1.0  0.64360  0.81094  0.25147  1.0000
  H   H2083     1.0  0.65379  0.83844  0.22074  1.0000
  C   C2584     1.0  0.77855  0.79655  0.37474  1.0000
  C   C2585     1.0  0.89566  0.91871  0.19101  1.0000
  C   C2586     1.0  0.52574  0.91756  0.25741  1.0000
  H   H2084     1.0  0.57377  0.75832  0.09792  1.0000
  C   C2587     1.0  0.72368  0.79641  0.33514  1.0000
  C   C2588     1.0  0.70865  0.80630  0.32029  1.0000
  P   P87       1.0  0.74676  0.80971  0.34283  1.0000
  C   C2589     1.0  0.75729  0.79913  0.37225  1.0000
  C   C2590     1.0  0.76404  0.80602  0.31546  1.0000
  C   C2591     1.0  0.77316  0.78669  0.31153  1.0000
  C   C2592     1.0  0.78558  0.78321  0.28957  1.0000
  C   C2593     1.0  0.78879  0.79891  0.27121  1.0000
  C   C2594     1.0  0.77958  0.81811  0.27483  1.0000
  C   C2595     1.0  0.76715  0.82163  0.29676  1.0000
  C   C2596     1.0  0.75225  0.78626  0.41640  1.0000
  H   H2085     1.0  0.57730  0.97389  0.33602  1.0000
  C   C2597     1.0  0.74143  0.83630  0.34995  1.0000
  C   C2598     1.0  0.72196  0.84245  0.35931  1.0000
  C   C2599     1.0  0.71798  0.86297  0.36512  1.0000
  C   C2600     1.0  0.73346  0.87744  0.36210  1.0000
  C   C2601     1.0  0.75306  0.87136  0.35366  1.0000
  C   C2602     1.0  0.75711  0.85082  0.34790  1.0000
  H   H2086     1.0  0.96147  0.90357  0.21372  1.0000
  C   C2603     1.0  0.91684  0.77940  0.04706  1.0000
  H   H2087     1.0  0.97982  0.85075  0.04968  1.0000
  H   H2088     1.0  0.84706  0.96525  0.29997  1.0000
  H   H2089     1.0  0.71089  0.82185  0.31330  1.0000
  C   C2604     1.0  0.97507  0.83567  0.04402  1.0000
  H   H2090     1.0  0.54819  0.86526  0.19324  1.0000
  C   C2605     1.0  0.62065  0.82111  0.01705  1.0000
  S   S349      1.0  0.49742  0.98141  0.26882  1.0000
  C   C2606     1.0  0.61327  0.91787  0.32718  1.0000
  C   C2607     1.0  0.58364  0.90304  0.30759  1.0000
  H   H2091     1.0  0.56455  0.83504  0.21474  1.0000
  C   C2608     1.0  0.68802  0.77575  0.32215  1.0000
  H   H2092     1.0  0.62371  0.91877  0.34320  1.0000
  H   H2093     1.0  0.50022  0.88942  0.16298  1.0000
  C   C2609     1.0  0.58886  0.78682  0.10386  1.0000
  C   C2610     1.0  0.67180  0.81051  0.09612  1.0000
  Fe  Fe175     1.0  0.70999  0.97797  0.35971  1.0000
  C   C2611     1.0  0.58714  0.92704  0.21209  1.0000
  H   H2094     1.0  0.57081  0.89268  0.30905  1.0000
  C   C2612     1.0  0.57501  0.96798  0.21740  1.0000
  C   C2613     1.0  0.59716  0.90396  0.32819  1.0000
  H   H2095     1.0  0.56086  0.95848  0.25346  1.0000
  C   C2614     1.0  0.74422  0.79428  0.39339  1.0000
  C   C2615     1.0  0.81153  0.97245  0.33483  1.0000
  H   H2096     1.0  0.80294  0.78639  0.39955  1.0000
  C   C2616     1.0  0.65168  0.81138  0.08735  1.0000
  C   C2617     1.0  0.86905  0.98316  0.23432  1.0000
  C   C2618     1.0  0.96358  0.80157  0.05584  1.0000
  C   C2619     1.0  0.58613  0.96195  0.19535  1.0000
  C   C2620     1.0  0.56966  0.95354  0.23663  1.0000
  H   H2097     1.0  0.59499  0.89416  0.34518  1.0000
  C   C2621     1.0  0.77339  0.78330  0.41856  1.0000
  H   H2098     1.0  0.58988  0.97311  0.18026  1.0000
  H   H2099     1.0  0.55454  0.93654  0.30562  1.0000
  H   H2100     1.0  0.87813  0.96579  0.17739  1.0000
  H   H2101     1.0  0.89295  0.89342  0.16509  1.0000
  C   C2622     1.0  0.97404  0.85950  0.21040  1.0000
  H   H2102     1.0  0.52907  0.76989  0.06280  1.0000
  H   H2103     1.0  0.63993  0.85961  0.07369  1.0000
  H   H2104     1.0  0.91804  0.79496  0.03948  1.0000
  C   C2623     1.0  0.60566  0.80237  0.06600  1.0000
  C   C2624     1.0  0.54340  0.92141  0.27161  1.0000
  C   C2625     1.0  0.89967  0.77414  0.06228  1.0000
  C   C2626     1.0  0.97173  0.82890  0.18495  1.0000
  C   C2627     1.0  0.52187  0.93780  0.30449  1.0000
  C   C2628     1.0  0.81779  0.99137  0.32409  1.0000
  C   C2629     1.0  0.91499  0.95424  0.25137  1.0000
  C   C2630     1.0  0.97029  0.82085  0.06300  1.0000
  C   C2631     1.0  0.61518  0.88068  0.08107  1.0000
  C   C2632     1.0  0.59407  0.88434  0.07988  1.0000
  H   H2105     1.0  0.53493  0.77904  0.18119  1.0000
  C   C2633     1.0  0.54127  0.93200  0.29501  1.0000
  H   H2106     1.0  0.96762  0.85630  0.14235  1.0000
  C   C2634     1.0  0.93254  0.94163  0.25250  1.0000
  C   C2635     1.0  0.62357  0.86209  0.07252  1.0000
  C   C2636     1.0  0.85605  0.94877  0.24063  1.0000
  H   H2107     1.0  0.81882  0.98442  0.25364  1.0000
  C   C2637     1.0  0.83372  0.97813  0.24813  1.0000
  C   C2638     1.0  0.89586  0.92488  0.21695  1.0000
  H   H2108     1.0  0.53178  0.75687  0.10754  1.0000
  C   C2639     1.0  0.89138  0.88934  0.23086  1.0000
  H   H2109     1.0  0.58226  0.75783  0.05080  1.0000
  H   H2110     1.0  0.82424  0.94677  0.25259  1.0000
  H   H2111     1.0  0.78898  0.80079  0.35899  1.0000
  H   H2112     1.0  0.49855  0.77301  0.11075  1.0000
  H   H2113     1.0  0.89397  0.91437  0.25695  1.0000
  C   C2640     1.0  0.89372  0.97131  0.17701  1.0000
  H   H2114     1.0  0.98178  0.87329  0.21561  1.0000
  P   P88       1.0  0.89744  0.95168  0.22507  1.0000
  H   H2115     1.0  0.77958  0.77705  0.43639  1.0000
  C   C2641     1.0  0.50441  0.93333  0.29061  1.0000
  C   C2642     1.0  0.58654  0.98037  0.32032  1.0000
  C   C2643     1.0  0.49823  0.78834  0.00098  1.0000
  H   H2116     1.0  0.69615  0.83277  0.04413  1.0000
  H   H2117     1.0  0.94890  0.86489  0.23731  1.0000
  C   C2644     1.0  0.97583  0.75512  0.02571  1.0000
  C   C2645     1.0  0.97493  0.87620  0.11012  1.0000
  H   H2118     1.0  0.97038  0.75091  0.06707  1.0000
  S   S350      1.0  0.66285  0.98001  0.43821  1.0000
  H   H2119     1.0  0.89912  0.97997  0.26913  1.0000
  H   H2120     1.0  0.70167  0.74928  0.34057  1.0000
  C   C2646     1.0  0.77868  0.97618  0.31424  1.0000
  H   H2121     1.0  0.62148  0.97942  0.47057  1.0000
  C   C2647     1.0  0.53690  0.75113  0.15957  1.0000
  C   C2648     1.0  0.61205  0.98857  0.48368  1.0000
  C   C2649     1.0  0.63340  0.80688  0.00417  1.0000
  C   C2650     1.0  0.98891  0.74800  0.12646  1.0000
  H   H2122     1.0  0.94952  0.99112  0.17441  1.0000
  S   S351      1.0  0.74321  0.98884  0.36258  1.0000
  C   C2651     1.0  0.93389  0.98568  0.17519  1.0000
  H   H2123     1.0  0.49995  0.77214  0.19864  1.0000
  C   C2652     1.0  0.96719  0.81161  0.01055  1.0000
  C   C2653     1.0  0.55036  0.80711  0.99888  1.0000
  H   H2124     1.0  0.92456  0.98462  0.30268  1.0000
  C   C2654     1.0  0.50771  0.76098  0.18646  1.0000
  C   C2655     1.0  0.84982  0.99123  0.24143  1.0000
  C   C2656     1.0  0.60695  0.83322  0.00253  1.0000
  H   H2125     1.0  0.88038  0.99311  0.36112  1.0000
  C   C2657     1.0  0.53275  0.74615  0.09194  1.0000
  H   H2126     1.0  0.66066  0.99371  0.49090  1.0000
  C   C2658     1.0  0.98995  0.75158  0.00526  1.0000
  H   H2127     1.0  0.97724  0.84252  0.00306  1.0000
  C   C2659     1.0  0.68934  0.94153  0.49163  1.0000
  H   H2128     1.0  0.69716  0.92682  0.49172  1.0000
  C   C2660     1.0  0.49524  0.91829  0.18233  1.0000
  H   H2129     1.0  0.53156  0.74598  0.02611  1.0000
  H   H2130     1.0  0.73716  0.98443  0.49329  1.0000
  Fe  Fe176     1.0  0.91375  0.83992  0.88720  1.0000
  S   S352      1.0  0.90175  0.81023  0.87214  1.0000
  S   S353      1.0  0.92488  0.84337  0.92899  1.0000
  Fe  Fe177     1.0  0.91649  0.86038  0.83198  1.0000
  S   S354      1.0  0.90448  0.83176  0.81387  1.0000
  S   S355      1.0  0.92276  0.88670  0.80217  1.0000
  Fe  Fe178     1.0  0.88137  0.83017  0.84672  1.0000
  S   S356      1.0  0.84638  0.82580  0.84419  1.0000
  Fe  Fe179     1.0  0.92570  0.81411  0.84037  1.0000
  S   S357      1.0  0.94752  0.79038  0.82252  1.0000
  S   S358      1.0  0.89204  0.85986  0.86382  1.0000
  S   S359      1.0  0.93895  0.84270  0.85640  1.0000
  Fe  Fe180     1.0  0.65992  0.96342  0.62957  1.0000
  S   S360      1.0  0.67477  0.93361  0.61728  1.0000
  S   S361      1.0  0.62611  0.96032  0.64199  1.0000
  H   H2131     1.0  0.59543  0.84048  0.96457  1.0000
  S   S362      1.0  0.71798  0.95859  0.60909  1.0000
  Fe  Fe181     1.0  0.69021  0.95220  0.58530  1.0000
  S   S363      1.0  0.69401  0.93969  0.54450  1.0000
  Fe  Fe182     1.0  0.70105  0.94220  0.64183  1.0000
  S   S364      1.0  0.71615  0.92212  0.67290  1.0000
  S   S365      1.0  0.68546  0.97094  0.65606  1.0000
  H   H2132     1.0  0.65521  0.85994  0.67491  1.0000
  C   C2661     1.0  0.93133  0.78662  0.97892  1.0000
  C   C2662     1.0  0.67788  0.75669  0.66828  1.0000
  C   C2663     1.0  0.87462  0.76801  0.93851  1.0000
  Fe  Fe183     1.0  0.52176  0.84506  0.85107  1.0000
  S   S366      1.0  0.55489  0.84862  0.86070  1.0000
  C   C2664     1.0  0.61279  0.98492  0.51042  1.0000
  H   H2133     1.0  0.67292  0.97873  0.53254  1.0000
  S   S367      1.0  0.55466  0.80075  0.88148  1.0000
  Fe  Fe184     1.0  0.54685  0.83164  0.89817  1.0000
  S   S368      1.0  0.55551  0.84631  0.93637  1.0000
  Fe  Fe185     1.0  0.55978  0.81744  0.84327  1.0000
  S   S369      1.0  0.58267  0.80896  0.81061  1.0000
  S   S370      1.0  0.52675  0.81478  0.83132  1.0000
  Fe  Fe186     1.0  0.74738  0.78896  0.75595  1.0000
  S   S371      1.0  0.73934  0.77884  0.71566  1.0000
  S   S372      1.0  0.78208  0.79056  0.76396  1.0000
  Fe  Fe187     1.0  0.70155  0.79338  0.77156  1.0000
  S   S373      1.0  0.69077  0.78380  0.73283  1.0000
  S   S374      1.0  0.68064  0.80246  0.80573  1.0000
  C   C2665     1.0  0.63688  0.94093  0.57027  1.0000
  Fe  Fe188     1.0  0.71569  0.80436  0.71663  1.0000
  S   S375      1.0  0.70942  0.82464  0.68101  1.0000
  S   S376      1.0  0.72454  0.76741  0.77490  1.0000
  S   S377      1.0  0.72504  0.81561  0.75534  1.0000
  Fe  Fe189     1.0  0.71507  0.75888  0.73454  1.0000
  C   C2666     1.0  0.53069  0.93000  0.89204  1.0000
  C   C2667     1.0  0.53801  0.93497  0.91650  1.0000
  C   C2668     1.0  0.60991  0.80717  0.80980  1.0000
  C   C2669     1.0  0.62166  0.81163  0.83127  1.0000
  C   C2670     1.0  0.64325  0.81014  0.82960  1.0000
  C   C2671     1.0  0.65337  0.80420  0.80653  1.0000
  C   C2672     1.0  0.64162  0.79991  0.78496  1.0000
  C   C2673     1.0  0.62004  0.80135  0.78665  1.0000
  H   H2134     1.0  0.61412  0.81614  0.84918  1.0000
  H   H2135     1.0  0.65217  0.81352  0.84638  1.0000
  H   H2136     1.0  0.64914  0.79551  0.76700  1.0000
  H   H2137     1.0  0.61109  0.79790  0.76994  1.0000
  H   H2138     1.0  0.89758  0.90862  0.74915  1.0000
  C   C2674     1.0  0.55170  0.83588  0.96819  1.0000
  C   C2675     1.0  0.55162  0.81475  0.97314  1.0000
  H   H2139     1.0  0.55298  0.80429  0.95716  1.0000
  C   C2676     1.0  0.50441  0.92129  0.77334  1.0000
  H   H2140     1.0  0.64692  0.75942  0.74656  1.0000
  H   H2141     1.0  0.65321  0.88500  0.63916  1.0000
  C   C2677     1.0  0.74475  0.97911  0.51064  1.0000
  C   C2678     1.0  0.51403  0.88731  0.79087  1.0000
  C   C2679     1.0  0.51386  0.90192  0.77031  1.0000
  H   H2142     1.0  0.61844  0.92605  0.68744  1.0000
  C   C2680     1.0  0.60619  0.83124  0.97564  1.0000
  H   H2143     1.0  0.52142  0.87256  0.78828  1.0000
  H   H2144     1.0  0.52135  0.89829  0.75204  1.0000
  C   C2681     1.0  0.60729  0.97652  0.65681  1.0000
  C   C2682     1.0  0.97828  0.83004  0.79794  1.0000
  H   H2145     1.0  0.63441  0.91780  0.64497  1.0000
  C   C2683     1.0  0.57198  0.98098  0.67314  1.0000
  C   C2684     1.0  0.58743  0.96889  0.66124  1.0000
  H   H2146     1.0  0.55666  0.97508  0.67580  1.0000
  H   H2147     1.0  0.58392  0.95355  0.65529  1.0000
  C   C2685     1.0  0.71286  0.89515  0.67536  1.0000
  C   C2686     1.0  0.70576  0.88385  0.65469  1.0000
  C   C2687     1.0  0.70458  0.86231  0.65683  1.0000
  C   C2688     1.0  0.71013  0.85186  0.67976  1.0000
  C   C2689     1.0  0.71652  0.86323  0.70073  1.0000
  C   C2690     1.0  0.71821  0.88470  0.69837  1.0000
  H   H2148     1.0  0.70161  0.89163  0.63685  1.0000
  H   H2149     1.0  0.69952  0.85367  0.64052  1.0000
  H   H2150     1.0  0.72031  0.85543  0.71868  1.0000
  H   H2151     1.0  0.72360  0.89325  0.71452  1.0000
  C   C2691     1.0  0.68559  0.95155  0.51519  1.0000
  C   C2692     1.0  0.67550  0.97060  0.51471  1.0000
  C   C2693     1.0  0.60281  0.94840  0.80599  1.0000
  H   H2152     1.0  0.97090  0.81065  0.86317  1.0000
  C   C2694     1.0  0.94151  0.90655  0.79930  1.0000
  C   C2695     1.0  0.95403  0.91179  0.81979  1.0000
  C   C2696     1.0  0.96795  0.92818  0.81685  1.0000
  C   C2697     1.0  0.96970  0.93959  0.79343  1.0000
  C   C2698     1.0  0.95736  0.93421  0.77284  1.0000
  C   C2699     1.0  0.94346  0.91781  0.77579  1.0000
  H   H2153     1.0  0.95279  0.90340  0.83802  1.0000
  H   H2154     1.0  0.97738  0.93213  0.83295  1.0000
  H   H2155     1.0  0.95857  0.94263  0.75464  1.0000
  H   H2156     1.0  0.93428  0.91372  0.75959  1.0000
  C   C2700     1.0  0.95845  0.76799  0.83693  1.0000
  S   S378      1.0  0.51346  0.82966  0.88946  1.0000
  H   H2157     1.0  0.62101  0.90130  0.72432  1.0000
  C   C2701     1.0  0.55577  0.94958  0.72159  1.0000
  C   C2702     1.0  0.76106  0.96542  0.55758  1.0000
  S   S379      1.0  0.50532  0.93922  0.74688  1.0000
  H   H2158     1.0  0.94181  0.76987  0.87323  1.0000
  C   C2703     1.0  0.82889  0.81601  0.82136  1.0000
  C   C2704     1.0  0.83533  0.80776  0.79765  1.0000
  C   C2705     1.0  0.82078  0.80031  0.78033  1.0000
  C   C2706     1.0  0.79958  0.80124  0.78615  1.0000
  C   C2707     1.0  0.79316  0.80977  0.80968  1.0000
  C   C2708     1.0  0.80769  0.81699  0.82716  1.0000
  H   H2159     1.0  0.85149  0.80704  0.79267  1.0000
  H   H2160     1.0  0.82601  0.79366  0.76228  1.0000
  H   H2161     1.0  0.77703  0.81021  0.81477  1.0000
  H   H2162     1.0  0.80245  0.82332  0.84538  1.0000
  C   C2709     1.0  0.89245  0.83591  0.96417  1.0000
  C   C2710     1.0  0.91312  0.84087  0.96048  1.0000
  H   H2163     1.0  0.67315  0.74969  0.70848  1.0000
  H   H2164     1.0  0.88296  0.83410  0.94748  1.0000
  C   C2711     1.0  0.80031  0.81848  0.71242  1.0000
  C   C2712     1.0  0.78195  0.81695  0.69925  1.0000
  C   C2713     1.0  0.76630  0.83137  0.70332  1.0000
  C   C2714     1.0  0.76893  0.84722  0.72071  1.0000
  C   C2715     1.0  0.78740  0.84900  0.73392  1.0000
  C   C2716     1.0  0.80302  0.83436  0.72980  1.0000
  P   P89       1.0  0.79044  0.86918  0.75708  1.0000
  C   C2717     1.0  0.81753  0.87319  0.76112  1.0000
  C   C2718     1.0  0.77814  0.89244  0.74534  1.0000
  C   C2719     1.0  0.77570  0.89598  0.71864  1.0000
  C   C2720     1.0  0.76348  0.91230  0.70987  1.0000
  C   C2721     1.0  0.75425  0.92567  0.72755  1.0000
  C   C2722     1.0  0.75756  0.92296  0.75403  1.0000
  C   C2723     1.0  0.76941  0.90638  0.76294  1.0000
  C   C2724     1.0  0.82829  0.86125  0.77930  1.0000
  C   C2725     1.0  0.84940  0.86347  0.78185  1.0000
  C   C2726     1.0  0.86006  0.87737  0.76589  1.0000
  C   C2727     1.0  0.84954  0.88913  0.74741  1.0000
  C   C2728     1.0  0.82831  0.88710  0.74503  1.0000
  C   C2729     1.0  0.77814  0.86197  0.78764  1.0000
  C   C2730     1.0  0.76074  0.84957  0.78805  1.0000
  C   C2731     1.0  0.75067  0.84456  0.81147  1.0000
  C   C2732     1.0  0.75804  0.85176  0.83477  1.0000
  C   C2733     1.0  0.77530  0.86423  0.83459  1.0000
  C   C2734     1.0  0.78520  0.86950  0.81113  1.0000
  H   H2165     1.0  0.81210  0.80680  0.71006  1.0000
  H   H2166     1.0  0.77960  0.80426  0.68645  1.0000
  H   H2167     1.0  0.75193  0.82994  0.69343  1.0000
  H   H2168     1.0  0.75643  0.85791  0.72410  1.0000
  H   H2169     1.0  0.81709  0.83471  0.74043  1.0000
  H   H2170     1.0  0.78239  0.88561  0.70460  1.0000
  H   H2171     1.0  0.76031  0.91404  0.68942  1.0000
  H   H2172     1.0  0.74419  0.93785  0.72068  1.0000
  H   H2173     1.0  0.75038  0.93334  0.76773  1.0000
  H   H2174     1.0  0.77119  0.90417  0.78359  1.0000
  H   H2175     1.0  0.82042  0.84995  0.79128  1.0000
  H   H2176     1.0  0.85752  0.85415  0.79605  1.0000
  H   H2177     1.0  0.87652  0.87876  0.76778  1.0000
  H   H2178     1.0  0.85791  0.89959  0.73470  1.0000
  H   H2179     1.0  0.82044  0.89607  0.73038  1.0000
  H   H2180     1.0  0.75504  0.84354  0.77035  1.0000
  H   H2181     1.0  0.73745  0.83463  0.81157  1.0000
  H   H2182     1.0  0.75050  0.84747  0.85295  1.0000
  H   H2183     1.0  0.78116  0.86963  0.85268  1.0000
  H   H2184     1.0  0.79842  0.87934  0.81142  1.0000
  H   H2185     1.0  0.55216  0.91818  0.71102  1.0000
  H   H2186     1.0  0.58422  0.90653  0.73180  1.0000
  C   C2735     1.0  0.56521  0.90457  0.82226  1.0000
  C   C2736     1.0  0.56173  0.91094  0.79676  1.0000
  C   C2737     1.0  0.55035  0.92877  0.79186  1.0000
  C   C2738     1.0  0.54189  0.93994  0.81231  1.0000
  C   C2739     1.0  0.54464  0.93329  0.83800  1.0000
  C   C2740     1.0  0.55695  0.91583  0.84283  1.0000
  C   C2741     1.0  0.80766  0.75600  0.81688  1.0000
  H   H2187     1.0  0.57790  0.95247  0.85885  1.0000
  H   H2188     1.0  0.76657  0.96045  0.57629  1.0000
  H   H2189     1.0  0.50697  0.81609  0.98052  1.0000
  C   C2742     1.0  0.95287  0.76116  0.86192  1.0000
  H   H2190     1.0  0.76038  0.94729  0.62577  1.0000
  C   C2743     1.0  0.90718  0.76138  0.81078  1.0000
  C   C2744     1.0  0.79131  0.76316  0.83223  1.0000
  H   H2191     1.0  0.63916  0.78010  0.68714  1.0000
  H   H2192     1.0  0.60893  0.79253  0.71238  1.0000
  C   C2745     1.0  0.80751  0.96343  0.60504  1.0000
  C   C2746     1.0  0.52994  0.90080  0.93273  1.0000
  H   H2193     1.0  0.55049  0.86560  0.98572  1.0000
  H   H2194     1.0  0.81490  0.76519  0.89011  1.0000
  H   H2195     1.0  0.55984  0.91053  0.86242  1.0000
  S   S380      1.0  0.50226  0.87336  0.84048  1.0000
  H   H2196     1.0  0.67025  0.80160  0.68282  1.0000
  H   H2197     1.0  0.57390  0.89065  0.82617  1.0000
  H   H2198     1.0  0.56758  0.90200  0.78079  1.0000
  H   H2199     1.0  0.54726  0.93359  0.77215  1.0000
  H   H2200     1.0  0.53266  0.95330  0.80768  1.0000
  H   H2201     1.0  0.62282  0.97283  0.51727  1.0000
  C   C2747     1.0  0.58184  0.75987  0.70199  1.0000
  H   H2202     1.0  0.84539  0.79208  0.88060  1.0000
  H   H2203     1.0  0.69575  0.84159  0.78744  1.0000
  H   H2204     1.0  0.88068  0.91488  0.79163  1.0000
  H   H2205     1.0  0.86802  0.82959  0.99205  1.0000
  C   C2748     1.0  0.85324  0.78510  0.89686  1.0000
  H   H2206     1.0  0.58160  0.76040  0.76789  1.0000
  C   C2749     1.0  0.89692  0.94040  0.73695  1.0000
  C   C2750     1.0  0.94697  0.75314  0.97330  1.0000
  C   C2751     1.0  0.55025  0.84923  0.98929  1.0000
  C   C2752     1.0  0.60328  0.93433  0.58901  1.0000
  H   H2207     1.0  0.62220  0.95696  0.71873  1.0000
  C   C2753     1.0  0.78555  0.89546  0.64589  1.0000
  H   H2208     1.0  0.94648  0.99341  0.79728  1.0000
  H   H2209     1.0  0.64205  0.97145  0.55589  1.0000
  H   H2210     1.0  0.54345  0.92411  0.95555  1.0000
  H   H2211     1.0  0.72510  0.97317  0.68722  1.0000
  C   C2754     1.0  0.79456  0.91382  0.65299  1.0000
  C   C2755     1.0  0.78531  0.93271  0.64641  1.0000
  C   C2756     1.0  0.81212  0.95134  0.68440  1.0000
  H   H2212     1.0  0.87048  0.95020  0.80373  1.0000
  C   C2757     1.0  0.67126  0.75374  0.64311  1.0000
  H   H2213     1.0  0.87818  0.97936  0.77400  1.0000
  C   C2758     1.0  0.50778  0.97524  0.83871  1.0000
  H   H2214     1.0  0.61801  0.81546  0.94219  1.0000
  H   H2215     1.0  0.51657  0.88066  0.90530  1.0000
  C   C2759     1.0  0.80366  0.95056  0.70965  1.0000
  C   C2760     1.0  0.81603  0.94577  0.73075  1.0000
  C   C2761     1.0  0.83694  0.94177  0.72683  1.0000
  C   C2762     1.0  0.84548  0.94242  0.70175  1.0000
  C   C2763     1.0  0.83312  0.94707  0.68057  1.0000
  H   H2216     1.0  0.69179  0.76513  0.67147  1.0000
  C   C2764     1.0  0.99425  0.79997  0.93059  1.0000
  H   H2217     1.0  0.62777  0.91192  0.58695  1.0000
  C   C2765     1.0  0.58565  0.95717  0.74682  1.0000
  H   H2218     1.0  0.91485  0.95531  0.63703  1.0000
  H   H2219     1.0  0.59567  0.86768  0.72032  1.0000
  H   H2220     1.0  0.79244  0.88088  0.65143  1.0000
  C   C2766     1.0  0.56170  0.92901  0.72071  1.0000
  C   C2767     1.0  0.59166  0.93645  0.74568  1.0000
  S   S381      1.0  0.50639  0.76879  0.88074  1.0000
  H   H2221     1.0  0.80845  0.91314  0.66402  1.0000
  C   C2768     1.0  0.74812  0.95280  0.54400  1.0000
  C   C2769     1.0  0.50402  0.89162  0.81443  1.0000
  H   H2222     1.0  0.87171  0.79778  0.95554  1.0000
  Fe  Fe190     1.0  0.52133  0.79970  0.87049  1.0000
  S   S382      1.0  0.50315  0.98589  0.70150  1.0000
  H   H2223     1.0  0.60453  0.74528  0.67788  1.0000
  H   H2224     1.0  0.80937  0.94510  0.75017  1.0000
  H   H2225     1.0  0.84650  0.93813  0.74323  1.0000
  H   H2226     1.0  0.86169  0.93926  0.69871  1.0000
  H   H2227     1.0  0.83993  0.94718  0.66123  1.0000
  H   H2228     1.0  0.95252  0.95365  0.64255  1.0000
  C   C2770     1.0  0.56784  0.96365  0.73421  1.0000
  C   C2771     1.0  0.52232  0.89591  0.90859  1.0000
  C   C2772     1.0  0.92514  0.84346  0.98251  1.0000
  H   H2229     1.0  0.63413  0.85557  0.78601  1.0000
  H   H2230     1.0  0.96300  0.80051  0.94482  1.0000
  C   C2773     1.0  0.89166  0.96054  0.74388  1.0000
  H   H2231     1.0  0.60867  0.82661  0.73104  1.0000
  C   C2774     1.0  0.87037  0.75604  0.91713  1.0000
  C   C2775     1.0  0.66530  0.74568  0.77623  1.0000
  C   C2776     1.0  0.57972  0.92247  0.73256  1.0000
  H   H2232     1.0  0.66685  0.89565  0.72969  1.0000
  C   C2777     1.0  0.86826  0.78851  0.93904  1.0000
  C   C2778     1.0  0.79405  0.76660  0.85856  1.0000
  H   H2233     1.0  0.52162  0.98260  0.83151  1.0000
  H   H2234     1.0  0.60558  0.93112  0.75476  1.0000
  H   H2235     1.0  0.67075  0.83555  0.70283  1.0000
  H   H2236     1.0  0.71349  0.87475  0.78135  1.0000
  H   H2237     1.0  0.69876  0.90173  0.75242  1.0000
  C   C2779     1.0  0.97710  0.85123  0.80100  1.0000
  H   H2238     1.0  0.79708  0.95144  0.60027  1.0000
  H   H2239     1.0  0.92768  0.79976  0.99072  1.0000
  H   H2240     1.0  0.88311  0.76150  0.95457  1.0000
  H   H2241     1.0  0.96637  0.80825  0.99020  1.0000
  C   C2780     1.0  0.61893  0.81710  0.96301  1.0000
  H   H2242     1.0  0.92777  0.97227  0.76723  1.0000
  C   C2781     1.0  0.52257  0.91046  0.88840  1.0000
  C   C2782     1.0  0.96475  0.80564  0.90367  1.0000
  C   C2783     1.0  0.87387  0.77067  0.82878  1.0000
  H   H2243     1.0  0.76003  0.88162  0.62722  1.0000
  H   H2244     1.0  0.54170  0.95464  0.71254  1.0000
  H   H2245     1.0  0.90525  0.93730  0.71907  1.0000
  H   H2246     1.0  0.59268  0.92406  0.59891  1.0000
  H   H2247     1.0  0.98735  0.87686  0.82256  1.0000
  H   H2248     1.0  0.66808  0.76012  0.78553  1.0000
  C   C2784     1.0  0.91704  0.97324  0.69858  1.0000
  C   C2785     1.0  0.77544  0.97368  0.66778  1.0000
  C   C2786     1.0  0.57143  0.96646  0.86656  1.0000
  Fe  Fe191     1.0  0.50152  0.97417  0.74315  1.0000
  C   C2787     1.0  0.88304  0.92754  0.77798  1.0000
  H   H2249     1.0  0.88909  0.78710  0.79744  1.0000
  H   H2250     1.0  0.86075  0.78099  0.82902  1.0000
  C   C2788     1.0  0.90861  0.96693  0.67526  1.0000
  H   H2251     1.0  0.51694  0.90627  0.86967  1.0000
  H   H2252     1.0  0.66407  0.83490  0.76421  1.0000
  C   C2789     1.0  0.75849  0.91455  0.62468  1.0000
  H   H2253     1.0  0.94538  0.97706  0.71914  1.0000
  C   C2790     1.0  0.58027  0.86437  0.75729  1.0000
  C   C2791     1.0  0.58241  0.86027  0.78375  1.0000
  C   C2792     1.0  0.60192  0.85777  0.79401  1.0000
  C   C2793     1.0  0.61933  0.85881  0.77776  1.0000
  C   C2794     1.0  0.61735  0.86279  0.75108  1.0000
  C   C2795     1.0  0.59765  0.86559  0.74099  1.0000
  P   P90       1.0  0.63917  0.86011  0.72912  1.0000
  C   C2796     1.0  0.66279  0.86486  0.74551  1.0000
  C   C2797     1.0  0.63952  0.83415  0.71746  1.0000
  C   C2798     1.0  0.62224  0.82160  0.72048  1.0000
  C   C2799     1.0  0.62227  0.80208  0.70987  1.0000
  C   C2800     1.0  0.63939  0.79499  0.69593  1.0000
  C   C2801     1.0  0.65680  0.80713  0.69338  1.0000
  C   C2802     1.0  0.65703  0.82645  0.70460  1.0000
  C   C2803     1.0  0.67136  0.84964  0.76164  1.0000
  C   C2804     1.0  0.68940  0.85336  0.77479  1.0000
  C   C2805     1.0  0.69930  0.87210  0.77150  1.0000
  C   C2806     1.0  0.69098  0.88729  0.75532  1.0000
  C   C2807     1.0  0.67280  0.88372  0.74236  1.0000
  C   C2808     1.0  0.63734  0.87822  0.70219  1.0000
  C   C2809     1.0  0.62747  0.89727  0.70562  1.0000
  C   C2810     1.0  0.62622  0.91141  0.68496  1.0000
  C   C2811     1.0  0.63526  0.90684  0.66094  1.0000
  C   C2812     1.0  0.64571  0.88827  0.65760  1.0000
  C   C2813     1.0  0.64676  0.87401  0.67808  1.0000
  H   H2254     1.0  0.56507  0.86586  0.74934  1.0000
  H   H2255     1.0  0.56892  0.85836  0.79622  1.0000
  H   H2256     1.0  0.60346  0.85381  0.81438  1.0000
  H   H2257     1.0  0.52615  0.98805  0.88691  1.0000
  H   H2258     1.0  0.92220  0.76867  0.91878  1.0000
  C   C2814     1.0  0.87742  0.94746  0.78483  1.0000
  C   C2815     1.0  0.89256  0.92401  0.75395  1.0000
  H   H2259     1.0  0.57299  0.76545  0.68573  1.0000
  C   C2816     1.0  0.92135  0.95981  0.65514  1.0000
  H   H2260     1.0  0.85337  0.81318  0.91807  1.0000
  S   S383      1.0  0.98737  0.96037  0.79125  1.0000
  C   C2817     1.0  0.99072  0.81799  0.81404  1.0000
  C   C2818     1.0  0.50876  0.95797  0.85536  1.0000
  C   C2819     1.0  0.99315  0.99075  0.84258  1.0000
  C   C2820     1.0  0.74016  0.95959  0.52044  1.0000
  C   C2821     1.0  0.60435  0.74511  0.74395  1.0000
  H   H2261     1.0  0.58192  0.95939  0.58875  1.0000
  H   H2262     1.0  0.60066  0.98147  0.86677  1.0000
  C   C2822     1.0  0.95101  0.96482  0.68148  1.0000
  P   P91       1.0  0.79590  0.95657  0.65707  1.0000
  H   H2263     1.0  0.67996  0.76002  0.62675  1.0000
  H   H2264     1.0  0.52799  0.99130  0.57144  1.0000
  C   C2823     1.0  0.92637  0.98880  0.76553  1.0000
  C   C2824     1.0  0.94373  0.77057  0.98850  1.0000
  H   H2265     1.0  0.94110  0.84738  0.97993  1.0000
  C   C2825     1.0  0.93936  0.75252  0.94819  1.0000
  H   H2266     1.0  0.85522  0.98219  0.73313  1.0000
  H   H2267     1.0  0.58726  0.94457  0.80160  1.0000
  C   C2826     1.0  0.85912  0.76436  0.89648  1.0000
  C   C2827     1.0  0.97766  0.80792  0.88188  1.0000
  C   C2828     1.0  0.81316  0.76283  0.86959  1.0000
  C   C2829     1.0  0.97305  0.80187  0.92801  1.0000
  H   H2268     1.0  0.94829  0.80707  0.90171  1.0000
  P   P92       1.0  0.90040  0.98222  0.72448  1.0000
  P   P93       1.0  0.53343  0.94750  0.86462  1.0000
  C   C2830     1.0  0.63103  0.96120  0.56493  1.0000
  H   H2269     1.0  0.56129  0.98538  0.54898  1.0000
  C   C2831     1.0  0.59724  0.95451  0.58319  1.0000
  H   H2270     1.0  0.63980  0.93588  0.84915  1.0000
  H   H2271     1.0  0.57749  0.98238  0.81227  1.0000
  C   C2832     1.0  0.88990  0.77422  0.81093  1.0000
  C   C2833     1.0  0.76758  0.93291  0.63146  1.0000
  H   H2272     1.0  0.89222  0.96768  0.67253  1.0000
  H   H2273     1.0  0.74425  0.91482  0.61420  1.0000
  H   H2274     1.0  0.91464  0.79863  0.94625  1.0000
  P   P94       1.0  0.60092  0.97546  0.76359  1.0000
  C   C2834     1.0  0.85777  0.79711  0.91809  1.0000
  H   H2275     1.0  0.96890  0.82276  0.78378  1.0000
  C   C2835     1.0  0.81050  0.96873  0.63094  1.0000
  H   H2276     1.0  0.56157  0.77338  0.73071  1.0000
  C   C2836     1.0  0.76624  0.98475  0.54746  1.0000
  S   S384      1.0  0.67360  0.98120  0.59560  1.0000
  C   C2837     1.0  0.74012  0.97926  0.68245  1.0000
  H   H2277     1.0  0.72973  0.94996  0.51025  1.0000
  H   H2278     1.0  0.54433  0.94989  0.91988  1.0000
  C   C2838     1.0  0.62306  0.92751  0.58243  1.0000
  C   C2839     1.0  0.63237  0.94360  0.83305  1.0000
  H   H2279     1.0  0.75307  0.94976  0.67512  1.0000
  H   H2280     1.0  0.98769  0.75846  0.98629  1.0000
  Fe  Fe192     1.0  0.70034  0.98662  0.62140  1.0000
  H   H2281     1.0  0.96748  0.96454  0.68368  1.0000
  H   H2282     1.0  0.98214  0.97887  0.84730  1.0000
  H   H2283     1.0  0.78748  0.95352  0.71306  1.0000
  C   C2840     1.0  0.61106  0.96808  0.57083  1.0000
  C   C2841     1.0  0.94256  0.95881  0.65824  1.0000
  H   H2284     1.0  0.99064  0.80151  0.81206  1.0000
  C   C2842     1.0  0.56088  0.99321  0.56730  1.0000
  C   C2843     1.0  0.57534  0.76427  0.72728  1.0000
  C   C2844     1.0  0.55030  0.96824  0.87180  1.0000
  C   C2845     1.0  0.92367  0.78592  0.95384  1.0000
  C   C2846     1.0  0.82979  0.75602  0.85416  1.0000
  C   C2847     1.0  0.76736  0.89583  0.63208  1.0000
  C   C2848     1.0  0.75611  0.96597  0.67525  1.0000
  C   C2849     1.0  0.66709  0.74804  0.68940  1.0000
  H   H2285     1.0  0.80550  0.75367  0.79636  1.0000
  H   H2286     1.0  0.74364  0.93800  0.55201  1.0000
  C   C2850     1.0  0.93834  0.97203  0.70160  1.0000
  H   H2287     1.0  0.97712  0.76148  0.80301  1.0000
  C   C2851     1.0  0.88174  0.96391  0.76790  1.0000
  H   H2288     1.0  0.65222  0.93567  0.56508  1.0000
  C   C2852     1.0  0.92793  0.76902  0.93833  1.0000
  C   C2853     1.0  0.61237  0.93850  0.82681  1.0000
  C   C2854     1.0  0.75830  0.99168  0.52372  1.0000
  H   H2289     1.0  0.60428  0.92683  0.83805  1.0000
  C   C2855     1.0  0.63256  0.80494  0.97725  1.0000
  P   P95       1.0  0.60352  0.99410  0.56243  1.0000
  C   C2856     1.0  0.54238  0.98643  0.88237  1.0000
  C   C2857     1.0  0.59984  0.74845  0.69761  1.0000
  C   C2858     1.0  0.64442  0.97860  0.70536  1.0000
  C   C2859     1.0  0.85899  0.99328  0.71805  1.0000
  C   C2860     1.0  0.88403  0.83341  0.98950  1.0000
  H   H2290     1.0  0.96694  0.86049  0.78908  1.0000
  H   H2291     1.0  0.64229  0.79384  0.96743  1.0000
  C   C2861     1.0  0.49492  0.79384  0.95478  1.0000
  C   C2862     1.0  0.58439  0.98286  0.87113  1.0000
  C   C2863     1.0  0.98855  0.86044  0.82001  1.0000
  C   C2864     1.0  0.62061  0.98468  0.74130  1.0000
  C   C2865     1.0  0.82678  0.75227  0.82781  1.0000
  C   C2866     1.0  0.87488  0.75400  0.84628  1.0000
  H   H2292     1.0  0.91968  0.76424  0.79706  1.0000
  H   H2293     1.0  0.77661  0.76635  0.82348  1.0000
  C   C2867     1.0  0.58660  0.75690  0.74824  1.0000
  H   H2294     1.0  0.53009  0.88928  0.94817  1.0000
  H   H2295     1.0  0.83917  0.74647  0.81562  1.0000
  H   H2296     1.0  0.82711  0.98859  0.65602  1.0000
  H   H2297     1.0  0.81519  0.97001  0.56490  1.0000
  C   C2868     1.0  0.82451  0.98418  0.63628  1.0000
  C   C2869     1.0  0.83139  0.98955  0.59038  1.0000
  C   C2870     1.0  0.64277  0.95862  0.81850  1.0000
  C   C2871     1.0  0.97274  0.75638  0.82240  1.0000
  C   C2872     1.0  0.53758  0.92039  0.93677  1.0000
  C   C2873     1.0  0.81786  0.97387  0.58486  1.0000
  C   C2874     1.0  0.61330  0.96311  0.79084  1.0000
  H   H2298     1.0  0.65827  0.96262  0.82337  1.0000
  H   H2299     1.0  0.56327  0.97961  0.73378  1.0000
  C   C2875     1.0  0.50058  0.80091  0.97893  1.0000
  C   C2876     1.0  0.63329  0.96839  0.79750  1.0000
  H   H2300     1.0  0.49700  0.80348  0.93759  1.0000
  H   H2301     1.0  0.78135  0.77225  0.87036  1.0000
  P   P96       1.0  0.85386  0.74910  0.86868  1.0000
  H   H2302     1.0  0.64996  0.96876  0.69001  1.0000
  C   C2877     1.0  0.62844  0.97196  0.72172  1.0000
  C   C2878     1.0  0.65332  0.74521  0.75415  1.0000
  H   H2303     1.0  0.64168  0.97991  0.78647  1.0000
  C   C2879     1.0  0.90876  0.74540  0.82903  1.0000
  H   H2304     1.0  0.77581  0.99451  0.55865  1.0000
  C   C2880     1.0  0.83485  0.99456  0.61609  1.0000
