data_image0
_chemical_formula_structural       HCFeCSFeHCS2FeS2FeS2FeSFeS4HSHCSCFeS2FeS2FeSFeS3C6H3C6H4C6H4C2HC6H4C8H3C6H4CH2C3PC17H14C2H2CH2C2H2CHC4HC5H5C2HFeCH3C3HCHFeC3HPC7HSCHCH12C3HCH2C3H2CFeC7PC7HC3HC6H11CHCH4CPHCHC6H2CHCH2PHCHC5HC4HC5H2CH8CH4CPCHC3HC2HC2H4C4H2C2H2CHCH2CHC2HC3H4CHCSC4HCHPCHCH4C3HCH5SH2CHC6H3C2HCH2C3HCFeH2CHCSHFeS2FeS2FeSFeS3H3SFeCFeHSPFeHS2FeS2FeS2FeCFeS3C6H4C2H2C6H3C7H3C7H4C6H4C6H4C2HC3PC11HC8PH3CH6C2H8C2FeCH2PC7H3SH3CH3C5HCHC4HCHCH2C4H2CH3C4HC3H2C3HCHCHCH3CHCH2CHSC4HCH4C4HC2H3C3H3C4HSH2C3HC2H2CH2CH3SHC2H6C2HC2HCHCH2CH9C2HC8PC8HC3H2C2HC2H5CH2SHCHC2SH2SC2SC2SC2FeSCH3C2SHCHCFeS2FeS2FeS2FeSFeS3CH3PSHSHFe2SHCFeS2FeS2FeSFeS3H2C6H4CH3C6H2C5H5C6H4C6H4C6H2C3HCHC2H2CHCH4CHCHC3HC6PC17H2CH8CHCH2CHC6H2CH5CHC7H3CH3C3HC2H6CHC2H2C6PC2HCHSPCPC9H5C3H6CH2C2HCHC4HC2SC10HCH3CHCH9C3H2CH3C2H2C5H4CH4C3H2C2H2CH2C4HC2H3C6H2CHC5HCH3FeC3FeH2C2HCH2C2H2CPHC3HSFeS2FeS2FeSFeS3C2SFeHSH4S3FeS2FeS2FeSFeS4C7H3C8H5C5H4C6H4C6H4C6H4C2HC2HSCHCHC2FeC4H2C8H2CHCH2CSH2FeH6SHCHC2SHPH2C3H5PCHCHCFeC4HC4H3C6HC5H2CH3C2HC5H5C6PC18H20C6PC9FeH8SH3C3H6FeH3C2H2CHC3HCHCH2CSC3H2C2H2C2H3CHCHCHSCH2C4HFeC2H2C5H2C3HC3HC3HCHC2H5C2HCHFeS2FeS2FeSFeS3FeS2FeS2FeSFeS4HSCFeS2C5HC5H5C6H6C6H4C6H4C6H7C3H2CHC4HCH3C9HCHCH4C2H2CH5CHCH2CH2C2H2C3HC3HCHCP2HCPH2C2HC4H5C3HC2H2C4HC2HC11H2C2H2C4PCHCHC4HC2SC2PCHCHFeHCHCH2C3H2C6HC2HC2H2CHC2H4PCHCH8C3HC2HC3HC4H3C2H6C2P2H3C3H2C2HCHCHC3HSHCHSFeS2FeS2FeHFeS3FeSCFeS2FeSFeS3CH2CHC6H4C6H4C6H4C8H2CHC6H4C3H2C2H2C2H2CH2C3HCHC2HC5HC2HCSC2H3C5HC2FeH2CHC2HCH2C2H2CH2CHC2H3C2H2C6H4C2PCH2CHFeH3C3HC3HC5HSCHC6PC18H20C2HCH2C3H7C2H2C3PH3C2H2CH4C4HCHCHCPH3C7HC2H2C2HCSHPC2H5C3HCH2C2H3C2HC2SCHC2HC2SHS2FeS2FeS2FeSFeS3FeS2FeS2FeSFeS3C3HC2HC3HC2H2CHC6H4C6H4C6H4C6H4CH4CPCH3C2HC7H4C4HCHCHCH3C2H5CHSC4HC5HCHCHC3H2CH3C4HC6HCH2PC5HC2HCH2CH3C3H4C3HC2HSHCH5CPC2HC2H2C3H2CH2C2HSCFeH3CHCHC3HPH2CH2CPCH2CH2CHFeCHC2HC3H2C3HCPHCHC3HC3H2C2H4C2FeH4CH3CHCPC8HC2HC2H4CH2SCHSFeS2FeS2FeSFeS3FeS2FeSCFeSFeS4HC4HC2H2CHC6H4C6H4C6H4C6H5C6PC8HPC8H10C5H3CH2CHSHCH2C2H6CHCHC3HC2H2C2HCH3C3HC7HCH3C2H2FeH2CSCHCHCHC4HC2H3C6PC18H20CH3CHCHCHCHC2HC2H2CPCHCFeH3C2HCHCH3CHCHC2HCSCH4CHCH3CH3C2PCHSPCSFeS2FeS2FeSFeS3FeS2FeS2FeSFeS4C2H2C2HC2HC6H4C6H4C6H4C6H4C3HCHFeCHC2HC2H3C2HC3HC2HCH3CH4CHCH2CH3C3PHCPCHC2HC2HC3PC5HC2HC3H2C2H2CHCH2PCH2CH6C3H5C3HC2H3C2HC4H2CH3C7H3C2HCHCHC2H2CH2C4H2C8PC3SC14H4CH12SCHPC6SHCH2C6HC2HCH2CFeCH2C2HC3H3CH3CHCHCHC3HCHFeHPHC3HC2HC3FeHC2HSFeSCFeS2FeSFeS3FeSHFeS2FeSFeS3HC2HC3HC2HC6H4C6H4C6H4C6H4C2HCH2CHCH2CHSHCH3C2H2CHCH9CHC8PHCH2CH3C2H2CH5C4HC2HC5HPCHC2H2C3H2CHCH2CH2CH4C4HCHC2HSH3CHCH2CHCHC2HC2H2CHC2HC2H2CH4C3SCHCH2C5HC2HC3HC6PCSC2HPHC2H2CFeC3H2CH3C2HCH2CHC2H2C4H2FeS2FeS2FeSFeS3FeSPFeS2FeSFeS4FeS2FeS2C2H3CH3C6H4C6H4C6H4C6H4C3HC4HC2HCHC3HCHCH2CH2C4HC3HCH2CHCPC3H2CH4C3HC3HC6PC10HC7H7CH4C2H6C5H2PC2HCH3C5H4CHC2H3CH2CHC2H2CH2CHCHC3PHCH2CH2C4HCHC2H2CH3CSC2H2C2HCH3PC2H2CHCHCH2CH2C3H2C3H3C2HCHC2HC3HC3H2C3H2C3H3CH2C2SC2HSHCSHFeS2FeS2FeSFeS3FeS2FeS2FeHFeS3C4HC2HCH2C6H4C6H4C6H4C6H4CH2C2HCHCH4C2HCHCH2CH2C4PH2CSHC2H2C2HCHPHCH2CHC2H2CHC2H2C6HCH2CH2C2H4C5PC3SHC5H2C6H3CHC4H2CH2CH5C6PC9H2C3HC4H3FeH8C2HC3HCSH3CHC3H4C8HC2PCH2C2HC5HCFeC2H4CHC4H2C2HPCH7C7H2SHC3HC2H3CH2CFeCHPHSC2H2CHCHC3HCHSFeS2FeS2FeSFeS3FeS3CSC2SFeSHC2FeS2FeS2FeCFeS3C6H4C7H2C6H4C6H4C6H4PC3H2C5H2CH2CHCH3C2HC3HCH2CHSCH6C2H2C2H5C4HC2H3CH2C3H2PC2H3SH2PH3C3H2C5HC4H2CHC2HC4H3C2H7C6HCFeC2H6C3H2C2HC2H4C8HCHCH3CH2CHCHC2HCPHC2H3CHC2HCHC3HCH4CHCH2CHCHCHFeHC3HC2HCH2CH2CHSCHC6H3CH3C8H5CHC4HC2HC4H2CH4CHC3SFeS2FeS2FeSFeS3HC2HSH2SFe2SCHFeS2FeS2FeSFeS4C6H2CH2C6H4C6H4C6H2CHC6H4CH2C6H4CHC6FeC5HCH4C4HPC11H5CH4C2HCH2CH2CH2CH4C2H5C2HCSC3H6C2HC3HC2HC2H2FeH3C4H5CHCPH2CHC2H3CH4C3H4CPSCH2C2SC2H2C2HC2SCHC3HC2PC2HC14H2CH2C2HPH8C2H3C2HCH4CPCH3C7H2C2HCSCHCHCFeC6H3C4H2C2FeC2H5C2HCSC2HC5H3C2SHCSCFeSCHFeS2FeS2FeSFeS4FeS2FeS2FeSFeS3FeSH2CSC6H4C6H4C6H4C6HFeH2C7H8C6H3CH6CH2CHC2H2CHCHC7PC18H21CHCH2PC2H2C14H2CHCFeHCHCSCH7C6PC9HSC4PCH6CH6C2H3CH2C3H3C2SCH3C3HCH5CH2C4SHC2HC3HCHC9H3CHCHPCHC2H4CHC4HC5H2CHC8HC2H3CH3CHFeCH7CHCH2CFeC4HCHCHC2H2C4HCH3PCSCHCPC2HC2HFeCH5C2FeS2FeS2FeSFeS3H2C2HSC2SFeSFeH2FeS2FeS2FeSFeCS2C6H4C6H3C6H4C6H4C6H4CHCH4FeC5H3C2H4CHC2HCH4C4HSC3HC2HC3H3CH2FeC3H2C2HC6PC3HCHC3PC2H2C3H7CPH2CHCH4C8PC3SH2C12HC2H4C2H10CHC2H4C7PC18H20SHCHSC2HCH2C2HCH3SHCHCHSC2H3CHC2HSC2H2CH3CHC2HC2HC2HCHPC4HC2HC2HC2HC2HCHCHFeH2C4HCH2C5PHC4SCHCSCH2C8HC2HCHCH
_chemical_formula_sum              "H2304 C2880 Fe192 S384 P96"
_cell_length_a       53.9707
_cell_length_b       37.1364
_cell_length_c       104.138
_cell_angle_alpha    88.7361
_cell_angle_beta     96.5734
_cell_angle_gamma    88.0177

_space_group_name_H-M_alt    "P 1"
_space_group_IT_number       1

loop_
  _space_group_symop_operation_xyz
  'x, y, z'

loop_
  _atom_site_type_symbol
  _atom_site_label
  _atom_site_symmetry_multiplicity
  _atom_site_fract_x
  _atom_site_fract_y
  _atom_site_fract_z
  _atom_site_occupancy
  H   H1        1.0  0.25828  0.23299  0.21644  1.0000
  C   C1        1.0  0.27669  0.37313  0.99891  1.0000
  Fe  Fe1       1.0  0.34027  0.09177  0.20868  1.0000
  C   C2        1.0  0.45147  0.16925  0.99807  1.0000
  S   S1        1.0  0.31095  0.13343  0.19915  1.0000
  Fe  Fe2       1.0  0.23261  0.48114  0.99369  1.0000
  H   H2        1.0  0.16938  0.26465  0.20163  1.0000
  C   C3        1.0  0.24692  0.22569  0.00336  1.0000
  S   S2        1.0  0.37537  0.06675  0.20234  1.0000
  S   S3        1.0  0.32598  0.03737  0.21384  1.0000
  Fe  Fe3       1.0  0.28529  0.41506  0.16213  1.0000
  S   S4        1.0  0.24316  0.41433  0.16151  1.0000
  S   S5        1.0  0.31041  0.46238  0.15786  1.0000
  Fe  Fe4       1.0  0.29028  0.33180  0.16671  1.0000
  S   S6        1.0  0.24912  0.32617  0.16650  1.0000
  S   S7        1.0  0.31875  0.28438  0.16926  1.0000
  Fe  Fe5       1.0  0.24491  0.36455  0.14928  1.0000
  S   S8        1.0  0.21392  0.35638  0.13250  1.0000
  Fe  Fe6       1.0  0.25040  0.37557  0.17861  1.0000
  S   S9        1.0  0.23334  0.37075  0.19758  1.0000
  S   S10       1.0  0.28634  0.36775  0.14874  1.0000
  S   S11       1.0  0.29232  0.37890  0.17994  1.0000
  S   S12       1.0  0.12726  0.43416  0.20927  1.0000
  H   H3        1.0  0.26254  0.36665  0.00510  1.0000
  S   S13       1.0  0.23376  0.44130  0.01081  1.0000
  H   H4        1.0  0.42992  0.21716  0.00165  1.0000
  C   C4        1.0  0.43650  0.20005  0.99436  1.0000
  S   S14       1.0  0.23451  0.06009  0.00882  1.0000
  C   C5        1.0  0.46249  0.47798  0.20432  1.0000
  Fe  Fe7       1.0  0.16723  0.26483  0.06325  1.0000
  S   S15       1.0  0.13391  0.30341  0.05968  1.0000
  S   S16       1.0  0.19913  0.26711  0.08001  1.0000
  Fe  Fe8       1.0  0.15223  0.22344  0.03802  1.0000
  S   S17       1.0  0.11815  0.26016  0.03303  1.0000
  S   S18       1.0  0.15445  0.18094  0.02238  1.0000
  Fe  Fe9       1.0  0.14326  0.30539  0.03907  1.0000
  S   S19       1.0  0.14038  0.35650  0.02640  1.0000
  Fe  Fe10      1.0  0.11135  0.25495  0.05382  1.0000
  S   S20       1.0  0.07444  0.24014  0.06155  1.0000
  S   S21       1.0  0.17762  0.26940  0.04276  1.0000
  S   S22       1.0  0.14431  0.21566  0.05872  1.0000
  C   C6        1.0  0.04234  0.24557  0.05496  1.0000
  C   C7        1.0  0.03428  0.26961  0.04469  1.0000
  C   C8        1.0  0.00857  0.27424  0.04024  1.0000
  C   C9        1.0  0.43718  0.46978  0.20403  1.0000
  C   C10       1.0  0.42997  0.20881  0.98125  1.0000
  C   C11       1.0  0.02424  0.22604  0.06062  1.0000
  H   H5        1.0  0.04782  0.28511  0.04030  1.0000
  H   H6        1.0  0.28139  0.32489  0.20080  1.0000
  H   H7        1.0  0.03018  0.20747  0.06860  1.0000
  C   C12       1.0  0.21227  0.09443  0.01204  1.0000
  C   C13       1.0  0.21779  0.11631  0.02280  1.0000
  C   C14       1.0  0.20054  0.14314  0.02605  1.0000
  C   C15       1.0  0.17741  0.14839  0.01857  1.0000
  C   C16       1.0  0.17206  0.12700  0.00765  1.0000
  C   C17       1.0  0.18937  0.10027  0.00437  1.0000
  H   H8        1.0  0.23543  0.11209  0.02879  1.0000
  H   H9        1.0  0.20498  0.15933  0.03445  1.0000
  H   H10       1.0  0.15429  0.13088  0.00175  1.0000
  H   H11       1.0  0.18485  0.08381  0.99604  1.0000
  C   C18       1.0  0.20764  0.41677  0.01436  1.0000
  C   C19       1.0  0.21147  0.38576  0.02246  1.0000
  C   C20       1.0  0.19113  0.36688  0.02618  1.0000
  C   C21       1.0  0.16668  0.37890  0.02185  1.0000
  C   C22       1.0  0.16286  0.40970  0.01366  1.0000
  C   C23       1.0  0.18321  0.42848  0.00989  1.0000
  H   H12       1.0  0.23028  0.37639  0.02592  1.0000
  H   H13       1.0  0.19436  0.34329  0.03250  1.0000
  H   H14       1.0  0.14402  0.41918  0.01025  1.0000
  H   H15       1.0  0.17999  0.45234  0.00369  1.0000
  C   C24       1.0  0.25153  0.48439  0.04230  1.0000
  C   C25       1.0  0.02176  0.33242  0.21212  1.0000
  H   H16       1.0  0.04165  0.33019  0.21489  1.0000
  C   C26       1.0  0.21037  0.33097  0.11801  1.0000
  C   C27       1.0  0.22961  0.30896  0.11413  1.0000
  C   C28       1.0  0.22589  0.29006  0.10246  1.0000
  C   C29       1.0  0.20282  0.29229  0.09455  1.0000
  C   C30       1.0  0.18353  0.31404  0.09850  1.0000
  C   C31       1.0  0.18734  0.33331  0.11008  1.0000
  H   H17       1.0  0.24747  0.30689  0.12002  1.0000
  H   H18       1.0  0.24108  0.27368  0.09950  1.0000
  H   H19       1.0  0.16566  0.31602  0.09261  1.0000
  H   H20       1.0  0.17229  0.35022  0.11292  1.0000
  C   C32       1.0  0.20403  0.38946  0.20070  1.0000
  C   C33       1.0  0.19488  0.38029  0.21240  1.0000
  C   C34       1.0  0.17147  0.39392  0.21518  1.0000
  C   C35       1.0  0.15692  0.41676  0.20623  1.0000
  C   C36       1.0  0.16607  0.42597  0.19454  1.0000
  C   C37       1.0  0.18957  0.41252  0.19179  1.0000
  C   C38       1.0  0.42937  0.43510  0.20105  1.0000
  C   C39       1.0  0.36629  0.34235  0.18923  1.0000
  H   H21       1.0  0.15493  0.44364  0.18757  1.0000
  H   H22       1.0  0.19644  0.41991  0.18277  1.0000
  H   H23       1.0  0.08949  0.16582  0.01854  1.0000
  C   C40       1.0  0.31624  0.24286  0.17779  1.0000
  C   C41       1.0  0.29477  0.23437  0.18341  1.0000
  C   C42       1.0  0.29351  0.20082  0.18991  1.0000
  C   C43       1.0  0.31389  0.17574  0.19118  1.0000
  C   C44       1.0  0.33535  0.18426  0.18556  1.0000
  C   C45       1.0  0.33641  0.21749  0.17883  1.0000
  H   H24       1.0  0.27906  0.25350  0.18263  1.0000
  H   H25       1.0  0.27657  0.19424  0.19393  1.0000
  H   H26       1.0  0.35101  0.16505  0.18623  1.0000
  H   H27       1.0  0.35301  0.22360  0.17441  1.0000
  C   C46       1.0  0.15899  0.41990  0.05036  1.0000
  H   H28       1.0  0.99524  0.42409  0.20054  1.0000
  H   H29       1.0  0.25398  0.06448  0.14558  1.0000
  C   C47       1.0  0.28420  0.15210  0.15821  1.0000
  C   C48       1.0  0.26433  0.15429  0.14821  1.0000
  C   C49       1.0  0.25329  0.12248  0.14379  1.0000
  P   P1        1.0  0.25401  0.19775  0.14099  1.0000
  C   C50       1.0  0.23596  0.22296  0.15158  1.0000
  C   C51       1.0  0.28154  0.22118  0.13786  1.0000
  C   C52       1.0  0.28252  0.25871  0.13891  1.0000
  C   C53       1.0  0.21930  0.25091  0.14642  1.0000
  C   C54       1.0  0.20439  0.26957  0.15437  1.0000
  C   C55       1.0  0.20629  0.26094  0.16759  1.0000
  C   C56       1.0  0.22319  0.23372  0.17286  1.0000
  C   C57       1.0  0.23787  0.21461  0.16489  1.0000
  C   C58       1.0  0.23445  0.19279  0.12586  1.0000
  C   C59       1.0  0.20924  0.18455  0.12597  1.0000
  C   C60       1.0  0.19345  0.18315  0.11437  1.0000
  C   C61       1.0  0.20271  0.18979  0.10259  1.0000
  C   C62       1.0  0.22783  0.19731  0.10238  1.0000
  C   C63       1.0  0.24367  0.19889  0.11395  1.0000
  C   C64       1.0  0.04656  0.15481  0.00033  1.0000
  C   C65       1.0  0.99691  0.19193  0.08938  1.0000
  C   C66       1.0  0.23304  0.14010  0.20734  1.0000
  H   H30       1.0  0.29306  0.17630  0.16177  1.0000
  H   H31       1.0  0.23810  0.12328  0.13604  1.0000
  H   H32       1.0  0.26703  0.27443  0.14191  1.0000
  H   H33       1.0  0.21788  0.25855  0.13623  1.0000
  H   H34       1.0  0.19190  0.29140  0.15027  1.0000
  H   H35       1.0  0.19517  0.27601  0.17379  1.0000
  H   H36       1.0  0.22525  0.22781  0.18317  1.0000
  H   H37       1.0  0.25079  0.19371  0.16922  1.0000
  H   H38       1.0  0.20168  0.17999  0.13504  1.0000
  H   H39       1.0  0.17390  0.17765  0.11449  1.0000
  H   H40       1.0  0.19037  0.18989  0.09359  1.0000
  H   H41       1.0  0.28085  0.17774  0.21658  1.0000
  H   H42       1.0  0.26284  0.20582  0.11349  1.0000
  H   H43       1.0  0.99473  0.29387  0.99872  1.0000
  C   C67       1.0  0.38551  0.28261  0.18834  1.0000
  C   C68       1.0  0.37834  0.32081  0.16899  1.0000
  H   H44       1.0  0.99406  0.00845  0.19390  1.0000
  H   H45       1.0  0.20595  0.36252  0.21936  1.0000
  C   C69       1.0  0.04705  0.16087  0.04039  1.0000
  H   H46       1.0  0.35128  0.23485  0.20496  1.0000
  H   H47       1.0  0.39817  0.46174  0.12913  1.0000
  C   C70       1.0  0.05516  0.24453  0.01496  1.0000
  C   C71       1.0  0.05603  0.16517  0.02834  1.0000
  H   H48       1.0  0.36052  0.37279  0.17121  1.0000
  H   H49       1.0  0.10218  0.14541  0.05942  1.0000
  C   C72       1.0  0.37465  0.30943  0.19542  1.0000
  H   H50       1.0  0.40980  0.42904  0.20077  1.0000
  C   C73       1.0  0.28053  0.28155  0.00546  1.0000
  C   C74       1.0  0.28329  0.25264  0.01443  1.0000
  C   C75       1.0  0.26645  0.22478  0.01340  1.0000
  C   C76       1.0  0.28264  0.14879  0.98704  1.0000
  H   H51       1.0  0.35785  0.36342  0.19451  1.0000
  C   C77       1.0  0.38726  0.28831  0.17515  1.0000
  C   C78       1.0  0.12729  0.32366  0.20778  1.0000
  C   C79       1.0  0.29235  0.40153  0.00216  1.0000
  C   C80       1.0  0.01057  0.31197  0.20194  1.0000
  C   C81       1.0  0.00708  0.35509  0.21895  1.0000
  H   H52       1.0  0.23472  0.20325  0.09321  1.0000
  H   H53       1.0  0.37895  0.32474  0.15870  1.0000
  H   H54       1.0  0.37170  0.43773  0.11045  1.0000
  H   H55       1.0  0.27368  0.39212  0.05020  1.0000
  H   H56       1.0  0.17461  0.21799  0.00170  1.0000
  C   C82       1.0  0.99492  0.12961  0.01012  1.0000
  C   C83       1.0  0.08188  0.16179  0.02764  1.0000
  H   H57       1.0  0.39494  0.26714  0.16963  1.0000
  Fe  Fe11      1.0  0.36267  0.01255  0.20910  1.0000
  C   C84       1.0  0.22952  0.41548  0.09219  1.0000
  H   H58       1.0  0.29326  0.20092  0.98052  1.0000
  H   H59       1.0  0.29860  0.25166  0.02214  1.0000
  H   H60       1.0  0.26857  0.20227  0.02030  1.0000
  C   C85       1.0  0.98405  0.46442  0.22005  1.0000
  C   C86       1.0  0.01167  0.28005  0.00316  1.0000
  C   C87       1.0  0.24416  0.25448  0.99436  1.0000
  H   H61       1.0  0.26672  0.09853  0.99195  1.0000
  C   C88       1.0  0.03398  0.22461  0.01127  1.0000
  H   H62       1.0  0.19457  0.43492  0.04546  1.0000
  Fe  Fe12      1.0  0.39229  0.07319  0.22303  1.0000
  C   C89       1.0  0.15878  0.38361  0.06990  1.0000
  C   C90       1.0  0.18479  0.38439  0.07205  1.0000
  C   C91       1.0  0.19813  0.40378  0.06353  1.0000
  H   H63       1.0  0.19383  0.17272  0.98855  1.0000
  P   P2        1.0  0.23188  0.40294  0.06600  1.0000
  C   C92       1.0  0.11065  0.26842  0.19906  1.0000
  C   C93       1.0  0.24303  0.36485  0.05749  1.0000
  C   C94       1.0  0.26383  0.36733  0.05057  1.0000
  C   C95       1.0  0.27208  0.33759  0.04398  1.0000
  C   C96       1.0  0.26010  0.30492  0.04455  1.0000
  C   C97       1.0  0.24001  0.30189  0.05180  1.0000
  C   C98       1.0  0.23139  0.33173  0.05818  1.0000
  H   H64       1.0  0.02207  0.29440  0.19675  1.0000
  S   S23       1.0  0.26996  0.01379  0.98300  1.0000
  C   C99       1.0  0.32443  0.25682  0.13262  1.0000
  H   H65       1.0  0.27194  0.35789  0.08070  1.0000
  C   C100      1.0  0.37287  0.46658  0.11157  1.0000
  H   H66       1.0  0.32157  0.43418  0.99636  1.0000
  H   H67       1.0  0.98505  0.21447  0.06037  1.0000
  H   H68       1.0  0.14869  0.36842  0.07647  1.0000
  H   H69       1.0  0.19443  0.36920  0.08023  1.0000
  H   H70       1.0  0.00269  0.29312  0.03233  1.0000
  H   H71       1.0  0.02738  0.16429  0.04134  1.0000
  H   H72       1.0  0.28773  0.33993  0.03841  1.0000
  H   H73       1.0  0.26640  0.28185  0.03945  1.0000
  H   H74       1.0  0.23099  0.27640  0.05250  1.0000
  H   H75       1.0  0.21571  0.32872  0.06369  1.0000
  H   H76       1.0  0.11831  0.15228  0.03820  1.0000
  H   H77       1.0  0.25112  0.48938  0.03197  1.0000
  C   C101      1.0  0.36674  0.22911  0.21239  1.0000
  C   C102      1.0  0.23879  0.23926  0.21335  1.0000
  C   C103      1.0  0.25231  0.47126  0.06889  1.0000
  H   H78       1.0  0.07091  0.29707  0.01585  1.0000
  C   C104      1.0  0.09838  0.15420  0.03879  1.0000
  H   H79       1.0  0.05951  0.10583  0.01109  1.0000
  H   H80       1.0  0.07558  0.07651  0.99252  1.0000
  C   C105      1.0  0.29148  0.32565  0.22141  1.0000
  C   C106      1.0  0.37295  0.19333  0.21628  1.0000
  C   C107      1.0  0.22584  0.12814  0.18437  1.0000
  H   H81       1.0  0.30171  0.17280  0.13298  1.0000
  H   H82       1.0  0.39238  0.25715  0.19287  1.0000
  C   C108      1.0  0.08929  0.15009  0.05074  1.0000
  Fe  Fe13      1.0  0.23461  0.01863  0.99275  1.0000
  C   C109      1.0  0.18872  0.25748  0.20492  1.0000
  C   C110      1.0  0.06860  0.25666  0.15837  1.0000
  C   C111      1.0  0.04334  0.26189  0.15993  1.0000
  C   C112      1.0  0.03598  0.28797  0.16832  1.0000
  C   C113      1.0  0.05381  0.30905  0.17509  1.0000
  C   C114      1.0  0.07924  0.30425  0.17351  1.0000
  C   C115      1.0  0.08652  0.27753  0.16521  1.0000
  P   P3        1.0  0.10263  0.33001  0.18277  1.0000
  C   C116      1.0  0.11451  0.30543  0.19753  1.0000
  C   C117      1.0  0.12772  0.33942  0.17317  1.0000
  C   C118      1.0  0.15253  0.34068  0.17894  1.0000
  C   C119      1.0  0.17166  0.34855  0.17144  1.0000
  C   C120      1.0  0.16621  0.35576  0.15819  1.0000
  C   C121      1.0  0.14163  0.35461  0.15236  1.0000
  C   C122      1.0  0.12244  0.34655  0.15980  1.0000
  H   H83       1.0  0.21684  0.13536  0.17478  1.0000
  C   C123      1.0  0.11934  0.25016  0.21072  1.0000
  C   C124      1.0  0.05766  0.11996  0.00179  1.0000
  C   C125      1.0  0.20700  0.28256  0.20371  1.0000
  H   H84       1.0  0.99924  0.30429  0.11937  1.0000
  C   C126      1.0  0.08813  0.37205  0.18701  1.0000
  C   C127      1.0  0.07376  0.37255  0.19741  1.0000
  C   C128      1.0  0.06141  0.40430  0.20054  1.0000
  C   C129      1.0  0.06369  0.43607  0.19342  1.0000
  C   C130      1.0  0.07817  0.43598  0.18311  1.0000
  C   C131      1.0  0.09032  0.40409  0.17988  1.0000
  H   H85       1.0  0.07432  0.23618  0.15195  1.0000
  H   H86       1.0  0.02946  0.24553  0.15474  1.0000
  H   H87       1.0  0.01643  0.29160  0.16975  1.0000
  H   H88       1.0  0.04751  0.32877  0.18158  1.0000
  H   H89       1.0  0.10605  0.27270  0.16407  1.0000
  H   H90       1.0  0.15724  0.33645  0.18924  1.0000
  H   H91       1.0  0.19075  0.34990  0.17594  1.0000
  H   H92       1.0  0.18103  0.36262  0.15246  1.0000
  H   H93       1.0  0.13752  0.36046  0.14207  1.0000
  H   H94       1.0  0.10343  0.34651  0.15516  1.0000
  H   H95       1.0  0.25935  0.10257  0.21847  1.0000
  C   C132      1.0  0.38049  0.25732  0.21799  1.0000
  H   H96       1.0  0.32395  0.31086  0.19590  1.0000
  C   C133      1.0  0.22679  0.34051  0.98209  1.0000
  H   H97       1.0  0.10059  0.25368  0.19141  1.0000
  H   H98       1.0  0.07214  0.34825  0.20310  1.0000
  H   H99       1.0  0.08048  0.46084  0.17783  1.0000
  H   H100      1.0  0.10168  0.40486  0.17199  1.0000
  C   C134      1.0  0.34054  0.31152  0.21590  1.0000
  P   P4        1.0  0.03482  0.17623  0.01394  1.0000
  H   H101      1.0  0.14906  0.43230  0.04165  1.0000
  C   C135      1.0  0.26215  0.37293  0.08747  1.0000
  H   H102      1.0  0.07214  0.23146  0.01958  1.0000
  C   C136      1.0  0.00380  0.16136  0.01580  1.0000
  C   C137      1.0  0.06669  0.10319  0.99128  1.0000
  C   C138      1.0  0.99046  0.25475  0.04589  1.0000
  C   C139      1.0  0.01231  0.24265  0.00518  1.0000
  C   C140      1.0  0.06364  0.15325  0.05152  1.0000
  C   C141      1.0  0.28045  0.17013  0.22664  1.0000
  H   H103      1.0  0.27257  0.33202  0.22345  1.0000
  H   H104      1.0  0.12990  0.35235  0.20691  1.0000
  C   C142      1.0  0.22049  0.21392  0.21475  1.0000
  H   H105      1.0  0.30023  0.14275  0.99292  1.0000
  C   C143      1.0  0.01411  0.27031  0.09648  1.0000
  H   H106      1.0  0.21564  0.31555  0.99949  1.0000
  H   H107      1.0  0.20794  0.17165  0.19332  1.0000
  P   P5        1.0  0.37224  0.30312  0.21246  1.0000
  H   H108      1.0  0.28481  0.34903  0.10409  1.0000
  C   C144      1.0  0.24198  0.39671  0.08310  1.0000
  H   H109      1.0  0.21384  0.43381  0.08905  1.0000
  C   C145      1.0  0.03265  0.25854  0.10643  1.0000
  C   C146      1.0  0.05786  0.26389  0.10528  1.0000
  C   C147      1.0  0.06476  0.28070  0.09415  1.0000
  C   C148      1.0  0.04647  0.29248  0.08425  1.0000
  C   C149      1.0  0.02128  0.28723  0.08535  1.0000
  H   H110      1.0  0.29400  0.30252  0.00631  1.0000
  C   C150      1.0  0.26961  0.36793  0.10073  1.0000
  C   C151      1.0  0.30994  0.41149  0.99401  1.0000
  C   C152      1.0  0.98389  0.41731  0.19177  1.0000
  C   C153      1.0  0.24280  0.09867  0.18612  1.0000
  H   H111      1.0  0.34733  0.47978  0.09454  1.0000
  C   C154      1.0  0.44669  0.40832  0.19834  1.0000
  C   C155      1.0  0.31162  0.39337  0.98250  1.0000
  C   C156      1.0  0.17794  0.22496  0.99189  1.0000
  C   C157      1.0  0.28223  0.08709  0.15902  1.0000
  C   C158      1.0  0.26075  0.28282  0.99542  1.0000
  H   H112      1.0  0.05042  0.40437  0.20864  1.0000
  H   H113      1.0  0.05472  0.46089  0.19610  1.0000
  C   C159      1.0  0.29642  0.32176  0.20863  1.0000
  H   H114      1.0  0.02772  0.24425  0.11489  1.0000
  H   H115      1.0  0.07213  0.25424  0.11284  1.0000
  H   H116      1.0  0.08429  0.28384  0.09301  1.0000
  H   H117      1.0  0.05192  0.30442  0.07544  1.0000
  H   H118      1.0  0.00774  0.29541  0.07727  1.0000
  H   H119      1.0  0.12583  0.39927  0.05702  1.0000
  H   H120      1.0  0.16465  0.38674  0.22424  1.0000
  H   H121      1.0  0.05671  0.15126  0.06085  1.0000
  C   C160      1.0  0.26383  0.12378  0.98644  1.0000
  H   H122      1.0  0.30844  0.11723  0.17129  1.0000
  H   H123      1.0  0.29009  0.41676  0.01074  1.0000
  H   H124      1.0  0.34110  0.27063  0.13083  1.0000
  H   H125      1.0  0.30483  0.30518  0.13728  1.0000
  C   C161      1.0  0.25459  0.08951  0.19846  1.0000
  P   P6        1.0  0.25741  0.31880  0.98331  1.0000
  C   C162      1.0  0.32353  0.21949  0.13148  1.0000
  H   H126      1.0  0.03224  0.32868  0.00553  1.0000
  C   C163      1.0  0.30214  0.20173  0.13402  1.0000
  C   C164      1.0  0.47188  0.41618  0.19861  1.0000
  C   C165      1.0  0.39275  0.18549  0.22591  1.0000
  H   H127      1.0  0.98680  0.17581  0.22059  1.0000
  C   C166      1.0  0.36795  0.34789  0.17604  1.0000
  C   C167      1.0  0.30390  0.27637  0.13623  1.0000
  H   H128      1.0  0.26841  0.06749  0.19984  1.0000
  C   C168      1.0  0.27866  0.35424  0.98751  1.0000
  C   C169      1.0  0.03277  0.29967  0.00700  1.0000
  H   H129      1.0  0.23406  0.20381  0.00251  1.0000
  H   H130      1.0  0.18094  0.20405  0.21106  1.0000
  H   H131      1.0  0.33947  0.20429  0.12870  1.0000
  H   H132      1.0  0.24705  0.08322  0.17792  1.0000
  C   C170      1.0  0.29304  0.11865  0.16360  1.0000
  C   C171      1.0  0.05454  0.28188  0.01282  1.0000
  C   C172      1.0  0.98457  0.31390  0.19853  1.0000
  C   C173      1.0  0.35915  0.49027  0.10262  1.0000
  H   H133      1.0  0.17490  0.34799  0.99785  1.0000
  H   H134      1.0  0.45649  0.16247  0.00824  1.0000
  C   C174      1.0  0.24317  0.44506  0.06020  1.0000
  C   C175      1.0  0.26228  0.08900  0.14917  1.0000
  H   H135      1.0  0.41836  0.23273  0.97859  1.0000
  H   H136      1.0  0.22686  0.42390  0.11244  1.0000
  C   C176      1.0  0.45993  0.14716  0.98867  1.0000
  H   H137      1.0  0.36247  0.17162  0.21179  1.0000
  C   C177      1.0  0.21048  0.33413  0.99141  1.0000
  H   H138      1.0  0.03518  0.19883  0.98668  1.0000
  H   H139      1.0  0.28944  0.06120  0.16311  1.0000
  C   C178      1.0  0.06439  0.12086  0.97919  1.0000
  H   H140      1.0  0.42646  0.30678  0.21524  1.0000
  C   C179      1.0  0.14589  0.40113  0.05900  1.0000
  C   C180      1.0  0.22091  0.14877  0.19493  1.0000
  H   H141      1.0  0.26235  0.38210  0.11997  1.0000
  C   C181      1.0  0.24288  0.45202  0.04687  1.0000
  C   C182      1.0  0.27872  0.18148  0.98006  1.0000
  C   C183      1.0  0.24960  0.10988  0.20904  1.0000
  H   H142      1.0  0.20187  0.30913  0.19953  1.0000
  H   H143      1.0  0.99418  0.06925  0.20312  1.0000
  H   H144      1.0  0.23602  0.43241  0.03994  1.0000
  H   H145      1.0  0.98817  0.36526  0.16558  1.0000
  C   C184      1.0  0.32077  0.31432  0.20587  1.0000
  H   H146      1.0  0.01592  0.19916  0.09229  1.0000
  C   C185      1.0  0.99856  0.23016  0.05602  1.0000
  S   S24       1.0  0.43215  0.09252  0.22688  1.0000
  C   C186      1.0  0.13621  0.30527  0.21934  1.0000
  C   C187      1.0  0.04397  0.17219  0.98811  1.0000
  C   C188      1.0  0.25703  0.38661  0.10969  1.0000
  C   C189      1.0  0.23696  0.41026  0.10542  1.0000
  H   H147      1.0  0.11586  0.22181  0.21198  1.0000
  C   C190      1.0  0.00298  0.48300  0.22704  1.0000
  H   H148      1.0  0.22685  0.11136  0.97858  1.0000
  P   P7        1.0  0.22877  0.16851  0.22086  1.0000
  C   C191      1.0  0.38782  0.48012  0.12209  1.0000
  H   H149      1.0  0.99455  0.20650  0.02731  1.0000
  C   C192      1.0  0.18498  0.42117  0.05257  1.0000
  H   H150      1.0  0.22915  0.25465  0.98653  1.0000
  H   H151      1.0  0.98837  0.22232  0.20348  1.0000
  H   H152      1.0  0.47152  0.12326  0.99153  1.0000
  H   H153      1.0  0.44055  0.38151  0.19600  1.0000
  C   C193      1.0  0.18734  0.35271  0.99057  1.0000
  C   C194      1.0  0.13204  0.26861  0.22087  1.0000
  C   C195      1.0  0.23197  0.27342  0.20787  1.0000
  H   H154      1.0  0.24602  0.29300  0.20678  1.0000
  C   C196      1.0  0.19539  0.22328  0.21036  1.0000
  H   H155      1.0  0.27375  0.01697  0.18069  1.0000
  H   H156      1.0  0.20520  0.09841  0.22272  1.0000
  H   H157      1.0  0.16312  0.27928  0.99269  1.0000
  H   H158      1.0  0.16299  0.39352  0.98029  1.0000
  H   H159      1.0  0.00844  0.13983  0.08297  1.0000
  S   S25       1.0  0.26708  0.47956  0.98329  1.0000
  H   H160      1.0  0.25283  0.46694  0.07921  1.0000
  H   H161      1.0  0.98839  0.30714  0.14176  1.0000
  C   C197      1.0  0.98811  0.18198  0.02288  1.0000
  H   H162      1.0  0.42328  0.49000  0.20593  1.0000
  C   C198      1.0  0.18058  0.37834  0.98066  1.0000
  C   C199      1.0  0.99278  0.15807  0.08409  1.0000
  C   C200      1.0  0.41905  0.33041  0.21965  1.0000
  C   C201      1.0  0.39321  0.33541  0.21999  1.0000
  C   C202      1.0  0.17152  0.25957  0.98681  1.0000
  C   C203      1.0  0.47974  0.45088  0.20153  1.0000
  H   H163      1.0  0.45545  0.35150  0.22489  1.0000
  H   H164      1.0  0.00655  0.11307  0.00464  1.0000
  H   H165      1.0  0.46884  0.47163  0.02816  1.0000
  C   C204      1.0  0.99447  0.39456  0.18319  1.0000
  C   C205      1.0  0.43550  0.35581  0.22500  1.0000
  H   H166      1.0  0.23821  0.00443  0.19313  1.0000
  C   C206      1.0  0.47789  0.48744  0.03585  1.0000
  H   H167      1.0  0.01352  0.38425  0.18548  1.0000
  H   H168      1.0  0.99581  0.22796  0.00205  1.0000
  C   C207      1.0  0.18870  0.19934  0.98438  1.0000
  C   C208      1.0  0.98618  0.28554  0.12260  1.0000
  C   C209      1.0  0.29587  0.36508  0.97917  1.0000
  H   H169      1.0  0.01041  0.06180  0.22706  1.0000
  C   C210      1.0  0.24118  0.13113  0.97874  1.0000
  Fe  Fe14      1.0  0.10979  0.41927  0.22745  1.0000
  H   H170      1.0  0.16610  0.46740  0.22761  1.0000
  H   H171      1.0  0.36415  0.37270  0.22494  1.0000
  C   C211      1.0  0.38402  0.36718  0.22514  1.0000
  H   H172      1.0  0.14567  0.31976  0.22730  1.0000
  C   C212      1.0  0.31089  0.32135  0.23150  1.0000
  S   S26       1.0  0.20866  0.44112  0.46876  1.0000
  H   H173      1.0  0.47124  0.17854  0.39070  1.0000
  Fe  Fe15      1.0  0.29874  0.24799  0.41341  1.0000
  S   S27       1.0  0.32054  0.20574  0.42625  1.0000
  S   S28       1.0  0.28408  0.30409  0.41833  1.0000
  Fe  Fe16      1.0  0.29193  0.19717  0.38989  1.0000
  S   S29       1.0  0.31348  0.15146  0.40114  1.0000
  S   S30       1.0  0.26889  0.19990  0.36985  1.0000
  Fe  Fe17      1.0  0.29237  0.16684  0.41776  1.0000
  S   S31       1.0  0.26639  0.13130  0.42765  1.0000
  Fe  Fe18      1.0  0.34068  0.19370  0.40876  1.0000
  S   S32       1.0  0.38271  0.17765  0.41095  1.0000
  S   S33       1.0  0.26936  0.21004  0.40609  1.0000
  S   S34       1.0  0.32039  0.23846  0.39632  1.0000
  H   H174      1.0  0.22820  0.24044  0.28112  1.0000
  H   H175      1.0  0.44131  0.29105  0.43283  1.0000
  H   H176      1.0  0.33316  0.03655  0.40601  1.0000
  S   S35       1.0  0.33037  0.03583  0.25258  1.0000
  Fe  Fe19      1.0  0.09267  0.44874  0.25259  1.0000
  C   C213      1.0  0.39347  0.33141  0.41105  1.0000
  Fe  Fe20      1.0  0.11268  0.36856  0.25099  1.0000
  H   H177      1.0  0.34124  0.31297  0.42528  1.0000
  S   S36       1.0  0.14151  0.32456  0.25937  1.0000
  P   P8        1.0  0.28517  0.18813  0.47508  1.0000
  Fe  Fe21      1.0  0.06165  0.39349  0.23673  1.0000
  H   H178      1.0  0.13834  0.25478  0.23001  1.0000
  S   S37       1.0  0.12890  0.42292  0.24764  1.0000
  S   S38       1.0  0.07801  0.39434  0.25768  1.0000
  Fe  Fe22      1.0  0.20001  0.07179  0.27900  1.0000
  S   S39       1.0  0.15798  0.07172  0.27750  1.0000
  S   S40       1.0  0.21605  0.06436  0.25990  1.0000
  Fe  Fe23      1.0  0.20512  0.08849  0.30775  1.0000
  S   S41       1.0  0.16347  0.09004  0.30815  1.0000
  S   S42       1.0  0.23468  0.08871  0.32553  1.0000
  Fe  Fe24      1.0  0.16295  0.03970  0.29627  1.0000
  C   C214      1.0  0.98387  0.29682  0.46964  1.0000
  Fe  Fe25      1.0  0.16126  0.12175  0.28922  1.0000
  S   S43       1.0  0.13146  0.16680  0.28403  1.0000
  S   S44       1.0  0.20486  0.03610  0.29696  1.0000
  S   S45       1.0  0.20296  0.12387  0.28965  1.0000
  C   C215      1.0  0.13787  0.28015  0.26559  1.0000
  C   C216      1.0  0.15893  0.25632  0.26767  1.0000
  C   C217      1.0  0.15744  0.22177  0.27342  1.0000
  C   C218      1.0  0.13463  0.21021  0.27687  1.0000
  C   C219      1.0  0.11349  0.23375  0.27455  1.0000
  C   C220      1.0  0.11506  0.26850  0.26897  1.0000
  H   H179      1.0  0.17660  0.26483  0.26494  1.0000
  H   H180      1.0  0.17389  0.20408  0.27518  1.0000
  H   H181      1.0  0.09575  0.22515  0.27717  1.0000
  H   H182      1.0  0.09870  0.28641  0.26744  1.0000
  C   C221      1.0  0.43172  0.12063  0.25142  1.0000
  C   C222      1.0  0.44295  0.13751  0.26250  1.0000
  H   H183      1.0  0.41223  0.11416  0.25070  1.0000
  H   H184      1.0  0.43191  0.14392  0.27024  1.0000
  C   C223      1.0  0.29874  0.04585  0.25447  1.0000
  C   C224      1.0  0.28088  0.05318  0.24382  1.0000
  C   C225      1.0  0.25565  0.05925  0.24567  1.0000
  C   C226      1.0  0.24813  0.05862  0.25816  1.0000
  C   C227      1.0  0.26605  0.05203  0.26882  1.0000
  C   C228      1.0  0.29122  0.04541  0.26696  1.0000
  H   H185      1.0  0.28647  0.05363  0.23418  1.0000
  H   H186      1.0  0.24187  0.06425  0.23739  1.0000
  H   H187      1.0  0.26044  0.05122  0.27847  1.0000
  C   C229      1.0  0.35716  0.32956  0.39513  1.0000
  C   C230      1.0  0.45765  0.23665  0.41249  1.0000
  C   C231      1.0  0.43475  0.25547  0.40872  1.0000
  C   C232      1.0  0.41170  0.23825  0.40846  1.0000
  C   C233      1.0  0.41119  0.20149  0.41165  1.0000
  C   C234      1.0  0.43413  0.18248  0.41521  1.0000
  C   C235      1.0  0.45714  0.19991  0.41573  1.0000
  H   H188      1.0  0.43493  0.28364  0.40597  1.0000
  H   H189      1.0  0.39436  0.25322  0.40555  1.0000
  H   H190      1.0  0.43410  0.15404  0.41767  1.0000
  C   C236      1.0  0.20551  0.33576  0.28038  1.0000
  C   C237      1.0  0.25914  0.16782  0.35795  1.0000
  C   C238      1.0  0.27061  0.13354  0.35766  1.0000
  C   C239      1.0  0.26287  0.10986  0.34766  1.0000
  C   C240      1.0  0.24321  0.11967  0.33800  1.0000
  C   C241      1.0  0.23138  0.15362  0.33846  1.0000
  C   C242      1.0  0.23970  0.17775  0.34818  1.0000
  H   H191      1.0  0.28580  0.12560  0.36497  1.0000
  H   H192      1.0  0.27231  0.08378  0.34736  1.0000
  H   H193      1.0  0.21607  0.16151  0.33122  1.0000
  H   H194      1.0  0.23083  0.20424  0.34821  1.0000
  C   C243      1.0  0.27975  0.04219  0.45907  1.0000
  C   C244      1.0  0.25580  0.05677  0.45517  1.0000
  C   C245      1.0  0.25233  0.08543  0.44605  1.0000
  C   C246      1.0  0.27267  0.09974  0.44067  1.0000
  C   C247      1.0  0.29674  0.08594  0.44483  1.0000
  C   C248      1.0  0.30025  0.05726  0.45402  1.0000
  H   H195      1.0  0.23989  0.04546  0.45895  1.0000
  H   H196      1.0  0.23369  0.09598  0.44291  1.0000
  H   H197      1.0  0.31251  0.09636  0.44063  1.0000
  H   H198      1.0  0.31886  0.04612  0.45700  1.0000
  C   C249      1.0  0.28107  0.32485  0.43336  1.0000
  C   C250      1.0  0.26507  0.35555  0.43357  1.0000
  C   C251      1.0  0.26263  0.37363  0.44517  1.0000
  C   C252      1.0  0.27639  0.36142  0.45673  1.0000
  C   C253      1.0  0.29231  0.33057  0.45653  1.0000
  C   C254      1.0  0.29470  0.31244  0.44494  1.0000
  H   H199      1.0  0.25457  0.36559  0.42466  1.0000
  H   H200      1.0  0.25040  0.39736  0.44512  1.0000
  H   H201      1.0  0.30329  0.32104  0.46533  1.0000
  H   H202      1.0  0.30751  0.28942  0.44490  1.0000
  C   C255      1.0  0.06453  0.03420  0.27586  1.0000
  C   C256      1.0  0.26814  0.22555  0.45217  1.0000
  H   H203      1.0  0.32082  0.14281  0.25282  1.0000
  C   C257      1.0  0.18788  0.04224  0.34338  1.0000
  C   C258      1.0  0.17892  0.03892  0.35547  1.0000
  C   C259      1.0  0.24843  0.18970  0.28138  1.0000
  P   P9        1.0  0.18496  0.07377  0.36719  1.0000
  C   C260      1.0  0.16555  0.06799  0.38007  1.0000
  C   C261      1.0  0.21718  0.07206  0.37431  1.0000
  C   C262      1.0  0.23580  0.05387  0.36830  1.0000
  C   C263      1.0  0.26074  0.05395  0.37373  1.0000
  C   C264      1.0  0.26731  0.07256  0.38505  1.0000
  C   C265      1.0  0.24891  0.09031  0.39118  1.0000
  C   C266      1.0  0.22392  0.08988  0.38589  1.0000
  C   C267      1.0  0.14294  0.08788  0.38003  1.0000
  C   C268      1.0  0.48152  0.24861  0.36464  1.0000
  C   C269      1.0  0.25986  0.16091  0.28898  1.0000
  C   C270      1.0  0.46826  0.14630  0.26363  1.0000
  H   H204      1.0  0.39332  0.41706  0.23441  1.0000
  C   C271      1.0  0.17721  0.11698  0.35904  1.0000
  C   C272      1.0  0.15848  0.11984  0.34846  1.0000
  C   C273      1.0  0.15248  0.15307  0.34208  1.0000
  C   C274      1.0  0.16483  0.18384  0.34631  1.0000
  C   C275      1.0  0.18313  0.18139  0.35695  1.0000
  C   C276      1.0  0.18949  0.14811  0.36323  1.0000
  C   C277      1.0  0.27685  0.03228  0.41759  1.0000
  C   C278      1.0  0.21528  0.04362  0.41938  1.0000
  P   P10       1.0  0.46985  0.20366  0.36356  1.0000
  H   H205      1.0  0.19885  0.06499  0.34120  1.0000
  H   H206      1.0  0.17702  0.39612  0.29420  1.0000
  H   H207      1.0  0.23141  0.04054  0.35925  1.0000
  C   C279      1.0  0.20997  0.99851  0.43590  1.0000
  H   H208      1.0  0.28675  0.07402  0.38890  1.0000
  H   H209      1.0  0.25411  0.10513  0.39990  1.0000
  H   H210      1.0  0.20997  0.10440  0.39067  1.0000
  H   H211      1.0  0.13681  0.10745  0.37237  1.0000
  H   H212      1.0  0.37553  0.19018  0.43733  1.0000
  H   H213      1.0  0.34874  0.33179  0.38518  1.0000
  C   C280      1.0  0.24376  0.32013  0.30041  1.0000
  C   C281      1.0  0.17754  0.10549  0.23576  1.0000
  H   H214      1.0  0.14857  0.09640  0.34504  1.0000
  H   H215      1.0  0.13834  0.15489  0.33380  1.0000
  H   H216      1.0  0.16036  0.20953  0.34129  1.0000
  H   H217      1.0  0.19291  0.20515  0.36019  1.0000
  H   H218      1.0  0.20426  0.14699  0.37118  1.0000
  H   H219      1.0  0.26842  0.13843  0.30832  1.0000
  H   H220      1.0  0.18926  0.28735  0.28640  1.0000
  H   H221      1.0  0.26506  0.04819  0.42314  1.0000
  C   C282      1.0  0.15624  0.46875  0.27502  1.0000
  C   C283      1.0  0.43940  0.20399  0.36928  1.0000
  Fe  Fe26      1.0  0.34592  0.04603  0.23356  1.0000
  C   C284      1.0  0.24450  0.35102  0.29252  1.0000
  H   H222      1.0  0.30493  0.03963  0.27523  1.0000
  H   H223      1.0  0.17691  0.30035  0.30972  1.0000
  P   P11       1.0  0.39238  0.32052  0.43769  1.0000
  C   C285      1.0  0.25268  0.23180  0.44057  1.0000
  C   C286      1.0  0.42558  0.23654  0.36996  1.0000
  C   C287      1.0  0.40236  0.23676  0.37470  1.0000
  C   C288      1.0  0.39275  0.20458  0.37881  1.0000
  C   C289      1.0  0.40633  0.17211  0.37816  1.0000
  C   C290      1.0  0.42948  0.17170  0.37334  1.0000
  C   C291      1.0  0.15621  0.43500  0.28122  1.0000
  H   H224      1.0  0.25998  0.36881  0.29414  1.0000
  H   H225      1.0  0.16515  0.18272  0.25114  1.0000
  H   H226      1.0  0.13315  0.28426  0.31054  1.0000
  S   S46       1.0  0.08781  0.49475  0.26691  1.0000
  H   H227      1.0  0.21425  0.43369  0.29784  1.0000
  H   H228      1.0  0.24095  0.14672  0.24854  1.0000
  H   H229      1.0  0.17249  0.07751  0.23549  1.0000
  C   C292      1.0  0.00793  0.13579  0.25260  1.0000
  H   H230      1.0  0.38089  0.31171  0.46466  1.0000
  H   H231      1.0  0.22593  0.38264  0.27635  1.0000
  H   H232      1.0  0.39909  0.14740  0.38172  1.0000
  C   C293      1.0  0.38231  0.24696  0.43758  1.0000
  C   C294      1.0  0.20376  0.15314  0.22948  1.0000
  C   C295      1.0  0.47865  0.02658  0.23892  1.0000
  C   C296      1.0  0.31559  0.02572  0.40806  1.0000
  C   C297      1.0  0.41725  0.22970  0.45900  1.0000
  H   H233      1.0  0.26772  0.13780  0.28447  1.0000
  C   C298      1.0  0.25801  0.15260  0.24450  1.0000
  H   H234      1.0  0.12203  0.22001  0.31120  1.0000
  C   C299      1.0  0.19809  0.44349  0.29142  1.0000
  C   C300      1.0  0.38588  0.21131  0.44223  1.0000
  C   C301      1.0  0.44705  0.16877  0.34186  1.0000
  C   C302      1.0  0.22539  0.35881  0.28250  1.0000
  H   H235      1.0  0.18875  0.02011  0.32449  1.0000
  C   C303      1.0  0.02899  0.08469  0.24402  1.0000
  H   H236      1.0  0.15495  0.17193  0.31135  1.0000
  C   C304      1.0  0.34184  0.14732  0.45590  1.0000
  H   H237      1.0  0.34588  0.14531  0.44597  1.0000
  H   H238      1.0  0.28345  0.24314  0.45460  1.0000
  C   C305      1.0  0.42630  0.37526  0.44272  1.0000
  C   C306      1.0  0.35796  0.37563  0.44195  1.0000
  C   C307      1.0  0.46440  0.16465  0.32143  1.0000
  C   C308      1.0  0.48234  0.13769  0.25357  1.0000
  H   H239      1.0  0.43985  0.14632  0.37300  1.0000
  H   H240      1.0  0.05874  0.06053  0.27896  1.0000
  C   C309      1.0  0.20609  0.32598  0.47654  1.0000
  H   H241      1.0  0.15674  0.00647  0.36707  1.0000
  H   H242      1.0  0.35025  0.31076  0.23665  1.0000
  H   H243      1.0  0.48272  0.31701  0.43377  1.0000
  C   C310      1.0  0.37216  0.34539  0.44734  1.0000
  C   C311      1.0  0.21332  0.31561  0.46467  1.0000
  C   C312      1.0  0.21030  0.28013  0.46071  1.0000
  C   C313      1.0  0.20067  0.25467  0.46876  1.0000
  H   H244      1.0  0.29616  0.25676  0.34166  1.0000
  C   C314      1.0  0.08959  0.02690  0.27440  1.0000
  C   C315      1.0  0.18211  0.01690  0.33388  1.0000
  C   C316      1.0  0.01365  0.24727  0.46820  1.0000
  H   H245      1.0  0.04375  0.11335  0.26081  1.0000
  H   H246      1.0  0.35899  0.38440  0.43204  1.0000
  C   C317      1.0  0.44567  0.11254  0.24127  1.0000
  C   C318      1.0  0.46182  0.00270  0.25776  1.0000
  C   C319      1.0  0.04718  0.00722  0.27376  1.0000
  H   H247      1.0  0.19013  0.02704  0.39034  1.0000
  C   C320      1.0  0.35310  0.31881  0.41782  1.0000
  H   H248      1.0  0.41072  0.39203  0.44505  1.0000
  C   C321      1.0  0.38272  0.33412  0.39818  1.0000
  H   H249      1.0  0.11055  0.09815  0.38993  1.0000
  C   C322      1.0  0.22172  0.00960  0.42519  1.0000
  H   H250      1.0  0.22092  0.33528  0.45847  1.0000
  H   H251      1.0  0.21526  0.27259  0.45133  1.0000
  H   H252      1.0  0.19794  0.22771  0.46532  1.0000
  C   C323      1.0  0.23818  0.21972  0.30073  1.0000
  H   H253      1.0  0.37508  0.20487  0.38283  1.0000
  C   C324      1.0  0.28074  0.14501  0.25213  1.0000
  H   H254      1.0  0.19837  0.20413  0.23873  1.0000
  H   H255      1.0  0.24971  0.18985  0.31866  1.0000
  C   C325      1.0  0.17713  0.42233  0.28942  1.0000
  H   H256      1.0  0.20481  0.28076  0.33243  1.0000
  S   S47       1.0  0.48110  0.16827  0.27774  1.0000
  C   C326      1.0  0.31957  0.16440  0.45858  1.0000
  C   C327      1.0  0.18695  0.05581  0.43532  1.0000
  C   C328      1.0  0.30310  0.16285  0.23433  1.0000
  C   C329      1.0  0.16425  0.00954  0.35794  1.0000
  H   H257      1.0  0.42940  0.14272  0.32507  1.0000
  C   C330      1.0  0.17722  0.49010  0.27689  1.0000
  H   H258      1.0  0.39424  0.33984  0.39058  1.0000
  H   H259      1.0  0.28022  0.10996  0.47546  1.0000
  H   H260      1.0  0.35274  0.34574  0.47741  1.0000
  H   H261      1.0  0.09783  0.27451  0.47264  1.0000
  C   C331      1.0  0.35851  0.13193  0.46593  1.0000
  C   C332      1.0  0.24451  0.17358  0.45688  1.0000
  C   C333      1.0  0.22875  0.18031  0.44538  1.0000
  C   C334      1.0  0.23297  0.20920  0.43718  1.0000
  H   H262      1.0  0.13982  0.47827  0.26873  1.0000
  C   C335      1.0  0.30326  0.15001  0.24704  1.0000
  C   C336      1.0  0.19268  0.02157  0.44092  1.0000
  H   H263      1.0  0.27550  0.24915  0.31953  1.0000
  H   H264      1.0  0.30661  0.17501  0.45061  1.0000
  H   H265      1.0  0.47448  0.18493  0.41869  1.0000
  C   C337      1.0  0.45846  0.01415  0.24479  1.0000
  C   C338      1.0  0.42625  0.38689  0.23041  1.0000
  C   C339      1.0  0.17369  0.16467  0.24475  1.0000
  H   H266      1.0  0.46974  0.26402  0.34461  1.0000
  H   H267      1.0  0.21398  0.16213  0.44253  1.0000
  H   H268      1.0  0.22141  0.21358  0.42803  1.0000
  C   C340      1.0  0.31394  0.16653  0.47138  1.0000
  C   C341      1.0  0.15770  0.03727  0.40000  1.0000
  C   C342      1.0  0.44997  0.38985  0.44328  1.0000
  C   C343      1.0  0.40051  0.39268  0.23040  1.0000
  H   H269      1.0  0.41322  0.33555  0.41315  1.0000
  S   S48       1.0  0.09512  0.36422  0.23043  1.0000
  H   H270      1.0  0.10322  0.04741  0.27643  1.0000
  H   H271      1.0  0.16343  0.01768  0.40775  1.0000
  C   C344      1.0  0.16635  0.12904  0.24386  1.0000
  C   C345      1.0  0.42295  0.33939  0.43912  1.0000
  C   C346      1.0  0.02835  0.11138  0.25323  1.0000
  H   H272      1.0  0.39200  0.26196  0.37549  1.0000
  C   C347      1.0  0.19245  0.17668  0.23766  1.0000
  C   C348      1.0  0.23750  0.21892  0.28721  1.0000
  H   H273      1.0  0.27158  0.27670  0.35904  1.0000
  H   H274      1.0  0.44008  0.01445  0.23934  1.0000
  C   C349      1.0  0.26032  0.16128  0.30242  1.0000
  H   H275      1.0  0.47571  0.03655  0.22897  1.0000
  H   H276      1.0  0.25882  0.31443  0.30804  1.0000
  C   C350      1.0  0.19822  0.06682  0.42453  1.0000
  H   H277      1.0  0.24160  0.15014  0.46274  1.0000
  H   H278      1.0  0.99015  0.27119  0.45188  1.0000
  H   H279      1.0  0.32246  0.31924  0.40261  1.0000
  S   S49       1.0  0.27521  0.38437  0.47154  1.0000
  H   H280      1.0  0.02794  0.01304  0.27528  1.0000
  C   C351      1.0  0.24955  0.19051  0.30827  1.0000
  C   C352      1.0  0.13531  0.05733  0.39995  1.0000
  H   H281      1.0  0.28090  0.13360  0.26180  1.0000
  H   H282      1.0  0.36911  0.25270  0.42911  1.0000
  H   H283      1.0  0.21463  0.49310  0.28683  1.0000
  H   H284      1.0  0.18402  0.47655  0.25010  1.0000
  H   H285      1.0  0.19846  0.18712  0.31005  1.0000
  H   H286      1.0  0.43278  0.26187  0.36701  1.0000
  C   C353      1.0  0.40338  0.20263  0.45288  1.0000
  C   C354      1.0  0.29941  0.04623  0.41479  1.0000
  H   H287      1.0  0.42473  0.28601  0.45925  1.0000
  C   C355      1.0  0.34236  0.32228  0.40496  1.0000
  C   C356      1.0  0.33535  0.31409  0.22876  1.0000
  H   H288      1.0  0.43203  0.16288  0.34751  1.0000
  C   C357      1.0  0.26428  0.19627  0.46038  1.0000
  H   H289      1.0  0.25617  0.25393  0.43412  1.0000
  C   C358      1.0  0.37879  0.32332  0.42097  1.0000
  H   H290      1.0  0.19388  0.09340  0.42018  1.0000
  H   H291      1.0  0.17376  0.07372  0.43936  1.0000
  C   C359      1.0  0.39619  0.27434  0.44367  1.0000
  H   H292      1.0  0.15243  0.11945  0.24971  1.0000
  H   H293      1.0  0.22354  0.05229  0.41090  1.0000
  H   H294      1.0  0.19062  0.34171  0.27261  1.0000
  H   H295      1.0  0.24756  0.18896  0.27095  1.0000
  H   H296      1.0  0.43902  0.40665  0.23449  1.0000
  H   H297      1.0  0.22610  0.28921  0.35432  1.0000
  H   H298      1.0  0.00749  0.15662  0.25972  1.0000
  H   H299      1.0  0.30436  0.07298  0.41791  1.0000
  H   H300      1.0  0.40644  0.17485  0.45623  1.0000
  C   C360      1.0  0.41366  0.26541  0.45444  1.0000
  C   C361      1.0  0.19623  0.11741  0.22860  1.0000
  H   H301      1.0  0.02250  0.22768  0.46247  1.0000
  C   C362      1.0  0.19820  0.47727  0.28517  1.0000
  C   C363      1.0  0.44546  0.15720  0.32909  1.0000
  C   C364      1.0  0.15991  0.19993  0.31120  1.0000
  C   C365      1.0  0.14134  0.22708  0.31116  1.0000
  C   C366      1.0  0.14761  0.26322  0.31068  1.0000
  C   C367      1.0  0.17240  0.27219  0.31005  1.0000
  C   C368      1.0  0.19101  0.24498  0.30952  1.0000
  C   C369      1.0  0.18462  0.20875  0.31034  1.0000
  P   P12       1.0  0.22296  0.25648  0.30831  1.0000
  C   C370      1.0  0.22379  0.29687  0.29835  1.0000
  C   C371      1.0  0.23849  0.26389  0.32431  1.0000
  C   C372      1.0  0.26444  0.25797  0.32700  1.0000
  C   C373      1.0  0.27630  0.26267  0.33948  1.0000
  C   C374      1.0  0.26247  0.27406  0.34928  1.0000
  C   C375      1.0  0.23677  0.28087  0.34663  1.0000
  C   C376      1.0  0.22477  0.27580  0.33420  1.0000
  C   C377      1.0  0.20475  0.30491  0.28824  1.0000
  H   H302      1.0  0.27513  0.04086  0.36884  1.0000
  C   C378      1.0  0.12794  0.08261  0.38997  1.0000
  C   C379      1.0  0.17281  0.04266  0.39013  1.0000
  C   C380      1.0  0.34195  0.39460  0.44926  1.0000
  H   H303      1.0  0.43106  0.22293  0.46716  1.0000
  H   H304      1.0  0.46305  0.15618  0.31147  1.0000
  C   C381      1.0  0.47868  0.27237  0.35384  1.0000
  C   C382      1.0  0.44349  0.31860  0.43588  1.0000
  H   H305      1.0  0.30699  0.32384  0.24142  1.0000
  C   C383      1.0  0.98876  0.10714  0.23333  1.0000
  C   C384      1.0  0.47105  0.12105  0.24243  1.0000
  H   H306      1.0  0.37552  0.11813  0.46379  1.0000
  H   H307      1.0  0.13986  0.41872  0.27963  1.0000
  H   H308      1.0  0.12368  0.05328  0.40765  1.0000
  H   H309      1.0  0.18368  0.01261  0.44917  1.0000
  H   H310      1.0  0.32051  0.16578  0.23022  1.0000
  C   C385      1.0  0.46767  0.18799  0.34709  1.0000
  H   H311      1.0  0.42101  0.20712  0.23952  1.0000
  H   H312      1.0  0.48201  0.11486  0.23464  1.0000
  S   S50       1.0  0.07468  0.44872  0.23203  1.0000
  H   H313      1.0  0.33047  0.41724  0.44495  1.0000
  C   C386      1.0  0.99541  0.27173  0.46224  1.0000
  H   H314      1.0  0.45251  0.41750  0.44610  1.0000
  C   C387      1.0  0.47033  0.36888  0.44012  1.0000
  C   C388      1.0  0.16053  0.49106  0.23263  1.0000
  S   S51       1.0  0.21328  0.00222  0.47611  1.0000
  H   H315      1.0  0.04487  0.06580  0.24452  1.0000
  H   H316      1.0  0.14002  0.24702  0.47214  1.0000
  S   S52       1.0  0.25686  0.49120  0.47721  1.0000
  C   C389      1.0  0.34026  0.38398  0.46206  1.0000
  C   C390      1.0  0.00934  0.08259  0.23408  1.0000
  S   S53       1.0  0.38181  0.01793  0.22932  1.0000
  C   C391      1.0  0.37031  0.33487  0.46023  1.0000
  C   C392      1.0  0.17060  0.49637  0.24539  1.0000
  S   S54       1.0  0.28461  0.00448  0.46984  1.0000
  C   C393      1.0  0.46705  0.33329  0.43639  1.0000
  C   C394      1.0  0.40592  0.21345  0.23190  1.0000
  Fe  Fe27      1.0  0.24927  0.43159  0.47630  1.0000
  S   S55       1.0  0.35803  0.10149  0.22887  1.0000
  C   C395      1.0  0.35444  0.35416  0.46755  1.0000
  H   H317      1.0  0.01534  0.46897  0.23465  1.0000
  H   H318      1.0  0.21601  0.11844  0.47644  1.0000
  H   H319      1.0  0.32752  0.39843  0.46763  1.0000
  C   C396      1.0  0.98818  0.13363  0.24274  1.0000
  C   C397      1.0  0.25766  0.16524  0.23163  1.0000
  S   S56       1.0  0.02038  0.38282  0.23138  1.0000
  H   H320      1.0  0.40983  0.27040  0.23307  1.0000
  C   C398      1.0  0.39968  0.24931  0.22807  1.0000
  H   H321      1.0  0.39786  0.15773  0.22878  1.0000
  C   C399      1.0  0.27006  0.99792  0.41351  1.0000
  Fe  Fe28      1.0  0.20236  0.44016  0.48985  1.0000
  S   S57       1.0  0.17052  0.40905  0.49698  1.0000
  S   S58       1.0  0.24235  0.42867  0.49726  1.0000
  Fe  Fe29      1.0  0.15132  0.25106  0.54812  1.0000
  S   S59       1.0  0.11638  0.23600  0.53591  1.0000
  S   S60       1.0  0.18198  0.28501  0.54107  1.0000
  Fe  Fe30      1.0  0.14111  0.20144  0.57102  1.0000
  S   S61       1.0  0.10548  0.18244  0.56007  1.0000
  S   S62       1.0  0.14902  0.17992  0.59200  1.0000
  Fe  Fe31      1.0  0.12726  0.17920  0.54287  1.0000
  S   S63       1.0  0.12208  0.13431  0.52835  1.0000
  Fe  Fe32      1.0  0.09730  0.24037  0.55404  1.0000
  S   S64       1.0  0.06038  0.27231  0.55483  1.0000
  S   S65       1.0  0.16328  0.19363  0.55416  1.0000
  S   S66       1.0  0.13174  0.26000  0.56588  1.0000
  C   C400      1.0  0.16721  0.44307  0.53018  1.0000
  H   H322      1.0  0.36946  0.00478  0.67975  1.0000
  H   H323      1.0  0.26803  0.23077  0.70166  1.0000
  H   H324      1.0  0.26404  0.08548  0.56086  1.0000
  P   P13       1.0  0.01736  0.27440  0.50637  1.0000
  S   S67       1.0  0.33787  0.43992  0.71569  1.0000
  H   H325      1.0  0.36574  0.12135  0.48646  1.0000
  S   S68       1.0  0.39003  0.40682  0.70748  1.0000
  H   H326      1.0  0.05454  0.28410  0.52838  1.0000
  Fe  Fe33      1.0  0.37512  0.46205  0.71227  1.0000
  Fe  Fe34      1.0  0.35405  0.38408  0.71251  1.0000
  S   S69       1.0  0.32746  0.34730  0.70038  1.0000
  H   H327      1.0  0.33079  0.22393  0.48615  1.0000
  C   C401      1.0  0.40067  0.01184  0.69446  1.0000
  Fe  Fe35      1.0  0.26180  0.12765  0.65077  1.0000
  S   S70       1.0  0.30353  0.11822  0.65518  1.0000
  S   S71       1.0  0.25005  0.14974  0.63005  1.0000
  Fe  Fe36      1.0  0.25413  0.10471  0.67830  1.0000
  S   S72       1.0  0.29512  0.09283  0.68407  1.0000
  S   S73       1.0  0.23225  0.10539  0.69571  1.0000
  Fe  Fe37      1.0  0.30048  0.14579  0.67401  1.0000
  S   S74       1.0  0.33029  0.18092  0.68452  1.0000
  Fe  Fe38      1.0  0.29510  0.06593  0.66494  1.0000
  S   S75       1.0  0.32060  0.01781  0.66024  1.0000
  S   S76       1.0  0.25952  0.15890  0.66900  1.0000
  S   S77       1.0  0.25332  0.07390  0.65968  1.0000
  H   H328      1.0  0.13846  0.32563  0.52794  1.0000
  H   H329      1.0  0.06360  0.14152  0.52670  1.0000
  C   C402      1.0  0.32851  0.30063  0.69645  1.0000
  C   C403      1.0  0.34902  0.27745  0.70057  1.0000
  C   C404      1.0  0.34909  0.24095  0.69695  1.0000
  C   C405      1.0  0.32867  0.22694  0.68921  1.0000
  C   C406      1.0  0.30800  0.24998  0.68527  1.0000
  C   C407      1.0  0.30799  0.28650  0.68884  1.0000
  H   H330      1.0  0.36498  0.28773  0.70641  1.0000
  H   H331      1.0  0.36522  0.22350  0.70005  1.0000
  H   H332      1.0  0.29219  0.23984  0.67928  1.0000
  H   H333      1.0  0.29206  0.30406  0.68550  1.0000
  C   C408      1.0  0.05585  0.24984  0.66895  1.0000
  H   H334      1.0  0.08670  0.18350  0.51413  1.0000
  H   H335      1.0  0.33747  0.28509  0.49421  1.0000
  H   H336      1.0  0.36948  0.10673  0.69821  1.0000
  C   C409      1.0  0.20427  0.08396  0.69795  1.0000
  C   C410      1.0  0.19186  0.06277  0.68850  1.0000
  C   C411      1.0  0.16997  0.04551  0.69099  1.0000
  C   C412      1.0  0.16039  0.04943  0.70290  1.0000
  C   C413      1.0  0.17280  0.07067  0.71229  1.0000
  C   C414      1.0  0.19455  0.08800  0.70980  1.0000
  H   H337      1.0  0.19922  0.05944  0.67935  1.0000
  H   H338      1.0  0.21981  0.34550  0.54866  1.0000
  C   C415      1.0  0.31482  0.24213  0.48650  1.0000
  C   C416      1.0  0.99980  0.20818  0.55114  1.0000
  C   C417      1.0  0.02461  0.21965  0.55228  1.0000
  C   C418      1.0  0.02944  0.25632  0.55313  1.0000
  C   C419      1.0  0.00912  0.28126  0.55290  1.0000
  H   H339      1.0  0.11669  0.09834  0.57057  1.0000
  H   H340      1.0  0.99633  0.17972  0.55056  1.0000
  H   H341      1.0  0.04000  0.20010  0.55259  1.0000
  H   H342      1.0  0.01262  0.30968  0.55367  1.0000
  H   H343      1.0  0.13470  0.37315  0.51050  1.0000
  C   C420      1.0  0.17733  0.17197  0.60246  1.0000
  C   C421      1.0  0.20042  0.18238  0.59908  1.0000
  C   C422      1.0  0.22229  0.17585  0.60775  1.0000
  C   C423      1.0  0.22148  0.15867  0.61989  1.0000
  C   C424      1.0  0.19839  0.14810  0.62326  1.0000
  C   C425      1.0  0.17648  0.15482  0.61461  1.0000
  H   H344      1.0  0.20136  0.19580  0.58985  1.0000
  H   H345      1.0  0.24002  0.18412  0.60503  1.0000
  H   H346      1.0  0.19744  0.13458  0.63249  1.0000
  H   H347      1.0  0.15873  0.14659  0.61733  1.0000
  C   C426      1.0  0.14708  0.10753  0.52359  1.0000
  C   C427      1.0  0.17175  0.11237  0.52875  1.0000
  C   C428      1.0  0.19110  0.08986  0.52508  1.0000
  C   C429      1.0  0.18601  0.06251  0.51613  1.0000
  C   C430      1.0  0.16138  0.05796  0.51081  1.0000
  C   C431      1.0  0.14198  0.08034  0.51458  1.0000
  H   H348      1.0  0.17583  0.13295  0.53577  1.0000
  H   H349      1.0  0.21010  0.09335  0.52932  1.0000
  H   H350      1.0  0.15724  0.03687  0.50398  1.0000
  H   H351      1.0  0.12290  0.07632  0.51059  1.0000
  C   C432      1.0  0.17419  0.37455  0.50924  1.0000
  C   C433      1.0  0.19764  0.35950  0.51407  1.0000
  C   C434      1.0  0.19960  0.33168  0.52361  1.0000
  C   C435      1.0  0.17830  0.31918  0.52868  1.0000
  C   C436      1.0  0.15492  0.33454  0.52398  1.0000
  C   C437      1.0  0.15287  0.36169  0.51418  1.0000
  H   H352      1.0  0.21420  0.36906  0.51037  1.0000
  H   H353      1.0  0.21773  0.31982  0.52710  1.0000
  C   C438      1.0  0.21900  0.02292  0.55871  1.0000
  C   C439      1.0  0.05446  0.16640  0.52267  1.0000
  C   C440      1.0  0.19433  0.41447  0.54790  1.0000
  H   H354      1.0  0.25515  0.03315  0.69003  1.0000
  C   C441      1.0  0.17033  0.42326  0.54184  1.0000
  H   H355      1.0  0.24266  0.15682  0.51342  1.0000
  C   C442      1.0  0.27216  0.12064  0.48374  1.0000
  C   C443      1.0  0.10273  0.28235  0.49318  1.0000
  H   H356      1.0  0.99513  0.20913  0.65614  1.0000
  H   H357      1.0  0.44994  0.42940  0.70366  1.0000
  C   C444      1.0  0.02581  0.12319  0.70986  1.0000
  H   H358      1.0  0.06609  0.06844  0.70097  1.0000
  C   C445      1.0  0.24046  0.33886  0.69197  1.0000
  H   H359      1.0  0.26084  0.19917  0.49886  1.0000
  H   H360      1.0  0.21113  0.30179  0.68732  1.0000
  H   H361      1.0  0.16549  0.07391  0.72145  1.0000
  H   H362      1.0  0.20291  0.18455  0.53638  1.0000
  C   C446      1.0  0.98580  0.10972  0.71666  1.0000
  H   H363      1.0  0.04589  0.12009  0.71116  1.0000
  C   C447      1.0  0.98748  0.15086  0.69831  1.0000
  H   H364      1.0  0.25168  0.24918  0.47897  1.0000
  C   C448      1.0  0.40031  0.06975  0.70493  1.0000
  C   C449      1.0  0.14998  0.09306  0.58411  1.0000
  C   C450      1.0  0.23255  0.05240  0.56347  1.0000
  H   H365      1.0  0.26246  0.06806  0.49037  1.0000
  C   C451      1.0  0.07796  0.07645  0.69376  1.0000
  C   C452      1.0  0.08377  0.05216  0.68440  1.0000
  C   C453      1.0  0.09989  0.06190  0.67543  1.0000
  C   C454      1.0  0.11012  0.09601  0.67575  1.0000
  C   C455      1.0  0.10438  0.12062  0.68513  1.0000
  C   C456      1.0  0.08828  0.11047  0.69415  1.0000
  P   P14       1.0  0.11675  0.16534  0.68545  1.0000
  C   C457      1.0  0.12666  0.17672  0.70201  1.0000
  C   C458      1.0  0.14314  0.16643  0.67620  1.0000
  C   C459      1.0  0.16767  0.16280  0.68238  1.0000
  C   C460      1.0  0.18791  0.16395  0.67512  1.0000
  C   C461      1.0  0.18390  0.16801  0.66166  1.0000
  C   C462      1.0  0.15956  0.17109  0.65542  1.0000
  C   C463      1.0  0.13924  0.17030  0.66265  1.0000
  C   C464      1.0  0.13536  0.14954  0.71116  1.0000
  C   C465      1.0  0.05613  0.22260  0.51066  1.0000
  C   C466      1.0  0.99055  0.29749  0.48301  1.0000
  C   C467      1.0  0.00889  0.27301  0.48909  1.0000
  C   C468      1.0  0.12571  0.21267  0.70592  1.0000
  C   C469      1.0  0.09281  0.19788  0.67862  1.0000
  C   C470      1.0  0.09945  0.23043  0.67303  1.0000
  C   C471      1.0  0.08102  0.25618  0.66815  1.0000
  C   C472      1.0  0.04908  0.21763  0.67454  1.0000
  C   C473      1.0  0.06745  0.19172  0.67931  1.0000
  H   H366      1.0  0.18559  0.46944  0.51551  1.0000
  H   H367      1.0  0.00468  0.33095  0.52441  1.0000
  C   C474      1.0  0.02039  0.24785  0.48158  1.0000
  H   H368      1.0  0.12287  0.10259  0.66884  1.0000
  H   H369      1.0  0.08393  0.12878  0.70159  1.0000
  H   H370      1.0  0.17136  0.15873  0.69276  1.0000
  H   H371      1.0  0.20679  0.16130  0.67993  1.0000
  H   H372      1.0  0.19968  0.16851  0.65607  1.0000
  H   H373      1.0  0.15653  0.17394  0.64496  1.0000
  H   H374      1.0  0.12049  0.17237  0.65765  1.0000
  H   H375      1.0  0.13620  0.12169  0.70838  1.0000
  C   C475      1.0  0.20842  0.20237  0.52895  1.0000
  H   H376      1.0  0.16049  0.02897  0.68370  1.0000
  C   C476      1.0  0.06753  0.19011  0.51560  1.0000
  H   H377      1.0  0.11930  0.23424  0.69908  1.0000
  H   H378      1.0  0.11890  0.23610  0.67257  1.0000
  C   C477      1.0  0.00136  0.04327  0.68717  1.0000
  H   H379      1.0  0.06169  0.16716  0.68362  1.0000
  C   C478      1.0  0.04030  0.30826  0.50983  1.0000
  C   C479      1.0  0.04262  0.33696  0.50108  1.0000
  C   C480      1.0  0.06093  0.36236  0.50390  1.0000
  C   C481      1.0  0.07682  0.35947  0.51550  1.0000
  C   C482      1.0  0.07434  0.33128  0.52431  1.0000
  C   C483      1.0  0.05619  0.30582  0.52147  1.0000
  H   H380      1.0  0.20773  0.35377  0.47947  1.0000
  H   H381      1.0  0.10504  0.04259  0.66847  1.0000
  C   C484      1.0  0.23128  0.31648  0.56644  1.0000
  H   H382      1.0  0.99641  0.34722  0.71165  1.0000
  H   H383      1.0  0.06283  0.38436  0.49711  1.0000
  H   H384      1.0  0.09097  0.37914  0.51769  1.0000
  H   H385      1.0  0.08643  0.32902  0.53339  1.0000
  H   H386      1.0  0.41476  0.01964  0.66979  1.0000
  C   C485      1.0  0.25995  0.04459  0.54667  1.0000
  H   H387      1.0  0.21914  0.29437  0.56396  1.0000
  C   C486      1.0  0.14253  0.15802  0.72405  1.0000
  C   C487      1.0  0.29338  0.38740  0.51637  1.0000
  C   C488      1.0  0.28110  0.35984  0.52211  1.0000
  C   C489      1.0  0.26735  0.36731  0.53242  1.0000
  C   C490      1.0  0.26587  0.40244  0.53708  1.0000
  C   C491      1.0  0.27378  0.21084  0.70923  1.0000
  C   C492      1.0  0.24677  0.37498  0.56091  1.0000
  H   H388      1.0  0.27183  0.37036  0.69895  1.0000
  H   H389      1.0  0.34994  0.06459  0.68226  1.0000
  H   H390      1.0  0.30351  0.38202  0.50818  1.0000
  C   C493      1.0  0.26133  0.34506  0.58157  1.0000
  H   H391      1.0  0.41065  0.01152  0.64630  1.0000
  H   H392      1.0  0.24477  0.07192  0.62420  1.0000
  H   H393      1.0  0.04160  0.26996  0.66531  1.0000
  C   C494      1.0  0.26171  0.37435  0.57290  1.0000
  C   C495      1.0  0.37822  0.02251  0.68690  1.0000
  C   C496      1.0  0.23715  0.24498  0.52179  1.0000
  H   H394      1.0  0.22791  0.45398  0.52592  1.0000
  C   C497      1.0  0.21208  0.44507  0.53049  1.0000
  C   C498      1.0  0.21542  0.42452  0.54209  1.0000
  H   H395      1.0  0.30168  0.00676  0.61536  1.0000
  H   H396      1.0  0.28183  0.33285  0.51842  1.0000
  H   H397      1.0  0.25764  0.34577  0.53656  1.0000
  H   H398      1.0  0.11307  0.28719  0.51360  1.0000
  H   H399      1.0  0.06674  0.24080  0.50539  1.0000
  H   H400      1.0  0.27270  0.34488  0.59085  1.0000
  C   C499      1.0  0.27393  0.21898  0.72234  1.0000
  H   H401      1.0  0.17683  0.19111  0.51539  1.0000
  C   C500      1.0  0.46742  0.46046  0.71915  1.0000
  C   C501      1.0  0.03139  0.23167  0.51265  1.0000
  H   H402      1.0  0.02776  0.22879  0.64268  1.0000
  H   H403      1.0  0.25385  0.26025  0.52370  1.0000
  C   C502      1.0  0.23178  0.18452  0.56871  1.0000
  C   C503      1.0  0.25472  0.19116  0.57574  1.0000
  C   C504      1.0  0.26820  0.16321  0.58293  1.0000
  C   C505      1.0  0.25859  0.12872  0.58322  1.0000
  C   C506      1.0  0.23515  0.12213  0.57653  1.0000
  C   C507      1.0  0.22212  0.15008  0.56903  1.0000
  P   P15       1.0  0.22257  0.07764  0.57675  1.0000
  C   C508      1.0  0.18889  0.08284  0.57485  1.0000
  C   C509      1.0  0.00510  0.22123  0.62457  1.0000
  H   H404      1.0  0.30053  0.44421  0.51615  1.0000
  C   C510      1.0  0.99278  0.07266  0.67910  1.0000
  H   H405      1.0  0.24548  0.29377  0.58515  1.0000
  S   S78       1.0  0.13319  0.02703  0.70591  1.0000
  P   P16       1.0  0.18186  0.23302  0.49179  1.0000
  C   C511      1.0  0.14291  0.26249  0.50441  1.0000
  P   P17       1.0  0.24657  0.41311  0.54970  1.0000
  C   C512      1.0  0.19441  0.26457  0.48096  1.0000
  C   C513      1.0  0.14944  0.08860  0.56096  1.0000
  C   C514      1.0  0.17540  0.08351  0.56246  1.0000
  C   C515      1.0  0.23232  0.05454  0.59209  1.0000
  C   C516      1.0  0.24620  0.01903  0.61610  1.0000
  C   C517      1.0  0.00983  0.22078  0.63809  1.0000
  C   C518      1.0  0.23611  0.01689  0.59283  1.0000
  C   C519      1.0  0.24240  0.05643  0.61545  1.0000
  C   C520      1.0  0.23534  0.07406  0.60353  1.0000
  H   H406      1.0  0.22116  0.20621  0.56322  1.0000
  H   H407      1.0  0.26197  0.21800  0.57571  1.0000
  H   H408      1.0  0.28591  0.16837  0.58847  1.0000
  H   H409      1.0  0.26933  0.10742  0.58883  1.0000
  H   H410      1.0  0.20433  0.14540  0.56358  1.0000
  C   C521      1.0  0.19647  0.30069  0.48458  1.0000
  C   C522      1.0  0.27043  0.25645  0.48248  1.0000
  C   C523      1.0  0.29182  0.42244  0.52088  1.0000
  H   H411      1.0  0.15415  0.41434  0.54612  1.0000
  H   H412      1.0  0.27617  0.45769  0.53401  1.0000
  H   H413      1.0  0.31424  0.48847  0.56898  1.0000
  H   H414      1.0  0.13919  0.08939  0.55137  1.0000
  H   H415      1.0  0.18488  0.08069  0.55391  1.0000
  H   H416      1.0  0.01983  0.15705  0.53039  1.0000
  C   C524      1.0  0.98531  0.02685  0.69496  1.0000
  H   H417      1.0  0.25156  0.00547  0.62539  1.0000
  H   H418      1.0  0.20402  0.10442  0.71713  1.0000
  C   C525      1.0  0.98931  0.28604  0.51356  1.0000
  C   C526      1.0  0.13421  0.25529  0.48128  1.0000
  H   H419      1.0  0.40891  0.08829  0.71183  1.0000
  C   C527      1.0  0.17596  0.08805  0.58566  1.0000
  H   H420      1.0  0.99959  0.21426  0.52191  1.0000
  C   C528      1.0  0.98430  0.26978  0.55168  1.0000
  C   C529      1.0  0.41162  0.03573  0.70353  1.0000
  C   C530      1.0  0.22568  0.00485  0.54791  1.0000
  C   C531      1.0  0.00469  0.21254  0.59399  1.0000
  H   H421      1.0  0.43480  0.48324  0.69008  1.0000
  C   C532      1.0  0.27442  0.29122  0.48695  1.0000
  C   C533      1.0  0.18807  0.45436  0.52462  1.0000
  S   S79       1.0  0.21113  0.03439  0.51230  1.0000
  C   C534      1.0  0.23435  0.28546  0.70484  1.0000
  C   C535      1.0  0.28466  0.45503  0.56110  1.0000
  C   C536      1.0  0.01713  0.18092  0.59058  1.0000
  C   C537      1.0  0.03974  0.18283  0.58527  1.0000
  C   C538      1.0  0.05005  0.21622  0.58332  1.0000
  C   C539      1.0  0.03779  0.24777  0.58666  1.0000
  C   C540      1.0  0.01528  0.24600  0.59206  1.0000
  C   C541      1.0  0.29060  0.23168  0.48212  1.0000
  C   C542      1.0  0.33081  0.15100  0.48142  1.0000
  C   C543      1.0  0.01364  0.14625  0.69999  1.0000
  H   H422      1.0  0.03050  0.33981  0.49208  1.0000
  C   C544      1.0  0.29053  0.15066  0.71518  1.0000
  H   H423      1.0  0.19056  0.30938  0.49367  1.0000
  H   H424      1.0  0.02452  0.16055  0.69361  1.0000
  H   H425      1.0  0.22387  0.26166  0.70635  1.0000
  C   C545      1.0  0.98834  0.31549  0.52175  1.0000
  H   H426      1.0  0.37701  0.48170  0.64850  1.0000
  C   C546      1.0  0.24315  0.01332  0.70780  1.0000
  H   H427      1.0  0.03441  0.22848  0.48595  1.0000
  H   H428      1.0  0.22865  0.26665  0.50258  1.0000
  H   H429      1.0  0.29699  0.12441  0.71231  1.0000
  H   H430      1.0  0.02060  0.03354  0.68757  1.0000
  H   H431      1.0  0.00941  0.15481  0.59196  1.0000
  H   H432      1.0  0.04920  0.15849  0.58250  1.0000
  H   H433      1.0  0.06733  0.21781  0.57896  1.0000
  H   H434      1.0  0.04560  0.27363  0.58479  1.0000
  H   H435      1.0  0.00608  0.27076  0.59461  1.0000
  C   C547      1.0  0.45432  0.45621  0.70696  1.0000
  C   C548      1.0  0.11894  0.27798  0.50461  1.0000
  C   C549      1.0  0.36705  0.05648  0.68830  1.0000
  H   H436      1.0  0.29745  0.43373  0.55872  1.0000
  H   H437      1.0  0.35552  0.47995  0.66833  1.0000
  C   C550      1.0  0.23005  0.22187  0.53137  1.0000
  H   H438      1.0  0.23202  0.10296  0.60330  1.0000
  H   H439      1.0  0.24114  0.21932  0.54071  1.0000
  H   H440      1.0  0.14869  0.44923  0.52529  1.0000
  C   C551      1.0  0.29856  0.30148  0.49120  1.0000
  C   C552      1.0  0.25539  0.29299  0.71346  1.0000
  H   H441      1.0  0.15532  0.26011  0.51335  1.0000
  H   H442      1.0  0.21683  0.18384  0.48061  1.0000
  C   C553      1.0  0.01835  0.20772  0.51979  1.0000
  C   C554      1.0  0.11031  0.27084  0.48152  1.0000
  C   C555      1.0  0.20027  0.16933  0.48197  1.0000
  C   C556      1.0  0.24606  0.31620  0.57836  1.0000
  C   C557      1.0  0.13674  0.09345  0.57177  1.0000
  H   H443      1.0  0.28196  0.17066  0.69561  1.0000
  H   H444      1.0  0.00538  0.08602  0.67333  1.0000
  H   H445      1.0  0.02959  0.21275  0.67535  1.0000
  H   H446      1.0  0.25895  0.31078  0.48669  1.0000
  C   C558      1.0  0.35299  0.13375  0.47869  1.0000
  H   H447      1.0  0.32664  0.15185  0.49135  1.0000
  H   H448      1.0  0.18579  0.08927  0.59528  1.0000
  H   H449      1.0  0.24774  0.03798  0.71268  1.0000
  H   H450      1.0  0.27561  0.05310  0.54187  1.0000
  C   C559      1.0  0.25877  0.45202  0.55808  1.0000
  C   C560      1.0  0.22704  0.30818  0.69409  1.0000
  C   C561      1.0  0.26850  0.32423  0.71138  1.0000
  H   H451      1.0  0.24360  0.09140  0.50932  1.0000
  H   H452      1.0  0.30161  0.32890  0.49417  1.0000
  C   C562      1.0  0.25107  0.14683  0.50516  1.0000
  C   C563      1.0  0.23169  0.34563  0.55775  1.0000
  H   H453      1.0  0.08632  0.28121  0.66386  1.0000
  H   H454      1.0  0.23510  0.35620  0.68354  1.0000
  C   C564      1.0  0.26106  0.34695  0.70066  1.0000
  H   H455      1.0  0.42898  0.02850  0.70941  1.0000
  H   H456      1.0  0.28469  0.33117  0.71784  1.0000
  C   C565      1.0  0.27173  0.15785  0.48597  1.0000
  C   C566      1.0  0.25153  0.10990  0.50285  1.0000
  C   C567      1.0  0.22252  0.24887  0.50983  1.0000
  C   C568      1.0  0.27794  0.43000  0.53108  1.0000
  H   H457      1.0  0.14024  0.09823  0.59246  1.0000
  C   C569      1.0  0.31873  0.27689  0.49106  1.0000
  C   C570      1.0  0.15069  0.25111  0.49271  1.0000
  H   H458      1.0  0.08441  0.29494  0.49337  1.0000
  H   H459      1.0  0.01956  0.22984  0.61893  1.0000
  H   H460      1.0  0.07661  0.02528  0.68445  1.0000
  C   C571      1.0  0.37809  0.08017  0.69728  1.0000
  C   C572      1.0  0.25325  0.06290  0.55743  1.0000
  C   C573      1.0  0.01190  0.10452  0.71818  1.0000
  C   C574      1.0  0.19363  0.20634  0.51703  1.0000
  C   C575      1.0  0.20043  0.22992  0.50740  1.0000
  C   C576      1.0  0.28186  0.17670  0.70572  1.0000
  H   H461      1.0  0.19625  0.39971  0.55705  1.0000
  H   H462      1.0  0.13170  0.24873  0.72187  1.0000
  C   C577      1.0  0.02985  0.17514  0.52471  1.0000
  H   H463      1.0  0.27349  0.39646  0.57569  1.0000
  C   C578      1.0  0.13280  0.22107  0.71883  1.0000
  C   C579      1.0  0.15900  0.12990  0.48682  1.0000
  C   C580      1.0  0.26130  0.17076  0.49682  1.0000
  C   C581      1.0  0.24736  0.01074  0.69484  1.0000
  C   C582      1.0  0.26213  0.09679  0.49216  1.0000
  H   H464      1.0  0.47331  0.43692  0.72521  1.0000
  C   C583      1.0  0.15916  0.16688  0.48904  1.0000
  H   H465      1.0  0.99558  0.28848  0.70089  1.0000
  H   H466      1.0  0.14360  0.17920  0.49326  1.0000
  H   H467      1.0  0.20288  0.01444  0.56314  1.0000
  Fe  Fe39      1.0  0.11581  0.03711  0.72445  1.0000
  C   C584      1.0  0.24610  0.01571  0.54188  1.0000
  C   C585      1.0  0.99156  0.20970  0.64566  1.0000
  C   C586      1.0  0.17972  0.18706  0.48651  1.0000
  Fe  Fe40      1.0  0.24675  0.48888  0.49753  1.0000
  H   H468      1.0  0.14336  0.11439  0.48912  1.0000
  H   H469      1.0  0.98616  0.02879  0.72286  1.0000
  C   C587      1.0  0.24294  0.99924  0.60480  1.0000
  C   C588      1.0  0.47184  0.49495  0.72376  1.0000
  H   H470      1.0  0.99244  0.00381  0.70094  1.0000
  C   C589      1.0  0.17945  0.11256  0.48221  1.0000
  H   H471      1.0  0.23357  0.00103  0.58423  1.0000
  H   H472      1.0  0.22261  0.47861  0.55897  1.0000
  C   C590      1.0  0.44597  0.48653  0.69928  1.0000
  C   C591      1.0  0.24263  0.48014  0.56121  1.0000
  H   H473      1.0  0.25084  0.00215  0.53331  1.0000
  H   H474      1.0  0.31579  0.26976  0.72200  1.0000
  C   C592      1.0  0.29424  0.48598  0.56693  1.0000
  P   P18       1.0  0.26444  0.26315  0.72726  1.0000
  H   H475      1.0  0.17968  0.08362  0.48096  1.0000
  C   C593      1.0  0.19998  0.13231  0.47970  1.0000
  C   C594      1.0  0.14103  0.19371  0.72791  1.0000
  C   C595      1.0  0.39523  0.14324  0.95631  1.0000
  H   H476      1.0  0.31961  0.35558  0.88324  1.0000
  S   S80       1.0  0.24000  0.43813  0.94922  1.0000
  Fe  Fe41      1.0  0.33143  0.30030  0.91971  1.0000
  S   S81       1.0  0.29647  0.27365  0.91174  1.0000
  S   S82       1.0  0.33383  0.34760  0.93334  1.0000
  Fe  Fe42      1.0  0.36651  0.24489  0.90804  1.0000
  S   S83       1.0  0.33345  0.21379  0.89960  1.0000
  S   S84       1.0  0.40534  0.22320  0.90388  1.0000
  Fe  Fe43      1.0  0.31508  0.26825  0.89337  1.0000
  S   S85       1.0  0.30238  0.28506  0.87209  1.0000
  Fe  Fe44      1.0  0.31735  0.22140  0.91855  1.0000
  S   S86       1.0  0.30570  0.18449  0.93468  1.0000
  S   S87       1.0  0.34901  0.29854  0.90110  1.0000
  S   S88       1.0  0.35156  0.24897  0.92720  1.0000
  C   C596      1.0  0.13728  0.49623  0.78937  1.0000
  C   C597      1.0  0.22553  0.10243  0.74621  1.0000
  S   S89       1.0  0.24807  0.04077  0.94537  1.0000
  Fe  Fe45      1.0  0.11781  0.08004  0.74920  1.0000
  H   H477      1.0  0.19712  0.36329  0.87860  1.0000
  S   S90       1.0  0.14529  0.11837  0.75986  1.0000
  H   H478      1.0  0.19451  0.39391  0.74923  1.0000
  H   H479      1.0  0.36689  0.10406  0.95759  1.0000
  H   H480      1.0  0.04421  0.45530  0.78602  1.0000
  H   H481      1.0  0.26605  0.04178  0.73505  1.0000
  S   S91       1.0  0.39089  0.45601  0.73322  1.0000
  S   S92       1.0  0.13604  0.02727  0.74427  1.0000
  S   S93       1.0  0.08494  0.05164  0.75579  1.0000
  Fe  Fe46      1.0  0.20081  0.33927  0.80785  1.0000
  S   S94       1.0  0.15967  0.35109  0.80206  1.0000
  S   S95       1.0  0.20902  0.31615  0.82873  1.0000
  Fe  Fe47      1.0  0.21245  0.36177  0.78059  1.0000
  S   S96       1.0  0.17199  0.37484  0.77345  1.0000
  S   S97       1.0  0.23873  0.35923  0.76489  1.0000
  Fe  Fe48      1.0  0.17062  0.40218  0.79242  1.0000
  S   S98       1.0  0.14850  0.45392  0.79681  1.0000
  Fe  Fe49      1.0  0.16440  0.32283  0.78354  1.0000
  S   S99       1.0  0.13534  0.28514  0.77391  1.0000
  S   S100      1.0  0.21176  0.39191  0.79919  1.0000
  S   S101      1.0  0.20459  0.30839  0.78973  1.0000
  S   S102      1.0  0.33413  0.44591  0.75346  1.0000
  C   C598      1.0  0.44966  0.35218  0.75875  1.0000
  C   C599      1.0  0.26439  0.38548  0.76183  1.0000
  C   C600      1.0  0.27499  0.38026  0.75027  1.0000
  C   C601      1.0  0.29641  0.39834  0.74770  1.0000
  C   C602      1.0  0.30718  0.42266  0.75653  1.0000
  C   C603      1.0  0.29606  0.42903  0.76790  1.0000
  C   C604      1.0  0.27480  0.41038  0.77059  1.0000
  H   H482      1.0  0.26688  0.36170  0.74329  1.0000
  H   H483      1.0  0.30417  0.44807  0.77473  1.0000
  H   H484      1.0  0.26672  0.41487  0.77948  1.0000
  C   C605      1.0  0.21127  0.48973  0.78597  1.0000
  C   C606      1.0  0.23296  0.18946  0.94086  1.0000
  C   C607      1.0  0.14199  0.16491  0.76339  1.0000
  C   C608      1.0  0.16335  0.18336  0.76815  1.0000
  C   C609      1.0  0.16167  0.22001  0.77136  1.0000
  C   C610      1.0  0.13855  0.23880  0.76994  1.0000
  C   C611      1.0  0.11726  0.22053  0.76495  1.0000
  C   C612      1.0  0.11893  0.18386  0.76167  1.0000
  H   H485      1.0  0.18135  0.16923  0.76933  1.0000
  H   H486      1.0  0.17831  0.23396  0.77468  1.0000
  H   H487      1.0  0.09928  0.23475  0.76370  1.0000
  H   H488      1.0  0.10234  0.17015  0.75797  1.0000
  H   H489      1.0  0.21856  0.47143  0.88017  1.0000
  C   C613      1.0  0.02425  0.42373  0.74142  1.0000
  C   C614      1.0  0.45666  0.21661  0.90456  1.0000
  C   C615      1.0  0.43648  0.23616  0.90889  1.0000
  C   C616      1.0  0.44165  0.26521  0.91695  1.0000
  C   C617      1.0  0.46662  0.27390  0.92091  1.0000
  H   H490      1.0  0.19343  0.08038  0.77836  1.0000
  H   H491      1.0  0.45295  0.19426  0.89822  1.0000
  H   H492      1.0  0.42637  0.28086  0.92018  1.0000
  H   H493      1.0  0.47033  0.29623  0.92726  1.0000
  C   C618      1.0  0.27593  0.29482  0.86040  1.0000
  C   C619      1.0  0.25142  0.28920  0.86293  1.0000
  C   C620      1.0  0.23131  0.29591  0.85312  1.0000
  C   C621      1.0  0.23527  0.30892  0.84073  1.0000
  C   C622      1.0  0.25974  0.31487  0.83824  1.0000
  C   C623      1.0  0.27988  0.30769  0.84799  1.0000
  H   H494      1.0  0.24799  0.27919  0.87237  1.0000
  H   H495      1.0  0.21249  0.29099  0.85516  1.0000
  H   H496      1.0  0.26318  0.32467  0.82877  1.0000
  H   H497      1.0  0.29873  0.31201  0.84588  1.0000
  C   C624      1.0  0.29076  0.14328  0.93723  1.0000
  C   C625      1.0  0.27815  0.12454  0.92711  1.0000
  C   C626      1.0  0.26531  0.09321  0.92979  1.0000
  C   C627      1.0  0.26504  0.08002  0.94257  1.0000
  C   C628      1.0  0.27783  0.09861  0.95266  1.0000
  C   C629      1.0  0.29059  0.12999  0.94999  1.0000
  H   H498      1.0  0.27799  0.13439  0.91726  1.0000
  H   H499      1.0  0.25546  0.07909  0.92191  1.0000
  H   H500      1.0  0.27784  0.08884  0.96252  1.0000
  H   H501      1.0  0.30022  0.14424  0.95790  1.0000
  C   C630      1.0  0.26626  0.41166  0.94570  1.0000
  C   C631      1.0  0.29063  0.42078  0.95009  1.0000
  C   C632      1.0  0.31107  0.40055  0.94636  1.0000
  C   C633      1.0  0.30740  0.37093  0.93826  1.0000
  C   C634      1.0  0.28301  0.36130  0.93410  1.0000
  C   C635      1.0  0.26255  0.38161  0.93779  1.0000
  H   H502      1.0  0.29372  0.44389  0.95613  1.0000
  H   H503      1.0  0.32986  0.40826  0.94959  1.0000
  H   H504      1.0  0.27991  0.33857  0.92789  1.0000
  H   H505      1.0  0.24378  0.37419  0.93439  1.0000
  C   C636      1.0  0.46363  0.33567  0.76975  1.0000
  C   C637      1.0  0.17633  0.49600  0.74690  1.0000
  H   H506      1.0  0.48080  0.49758  0.73351  1.0000
  C   C638      1.0  0.41918  0.24381  0.95243  1.0000
  C   C639      1.0  0.02020  0.36131  0.74766  1.0000
  H   H507      1.0  0.43814  0.32663  0.94369  1.0000
  S   S103      1.0  0.44472  0.38049  0.73347  1.0000
  C   C640      1.0  0.19880  0.48399  0.75415  1.0000
  H   H508      1.0  0.35011  0.31827  0.75624  1.0000
  C   C641      1.0  0.19801  0.10716  0.95257  1.0000
  H   H509      1.0  0.22467  0.12969  0.74968  1.0000
  C   C642      1.0  0.31438  0.27953  0.73165  1.0000
  C   C643      1.0  0.20426  0.08188  0.74536  1.0000
  Fe  Fe50      1.0  0.35455  0.43025  0.73632  1.0000
  C   C644      1.0  0.23713  0.26133  0.73577  1.0000
  C   C645      1.0  0.45106  0.49726  0.75653  1.0000
  C   C646      1.0  0.47475  0.17604  0.87128  1.0000
  C   C647      1.0  0.40460  0.16980  0.94853  1.0000
  H   H510      1.0  0.29677  0.35273  0.96992  1.0000
  H   H511      1.0  0.18696  0.09313  0.74817  1.0000
  C   C648      1.0  0.45939  0.29878  0.86630  1.0000
  C   C649      1.0  0.44730  0.28597  0.87666  1.0000
  C   C650      1.0  0.42343  0.29931  0.87843  1.0000
  C   C651      1.0  0.41166  0.32619  0.87006  1.0000
  C   C652      1.0  0.42394  0.34015  0.86003  1.0000
  C   C653      1.0  0.44784  0.32678  0.85823  1.0000
  C   C654      1.0  0.18953  0.21123  0.92494  1.0000
  C   C655      1.0  0.20484  0.44694  0.75519  1.0000
  H   H512      1.0  0.26420  0.10381  0.74306  1.0000
  H   H513      1.0  0.99447  0.44782  0.72845  1.0000
  C   C656      1.0  0.16219  0.07227  0.95601  1.0000
  H   H514      1.0  0.23295  0.42852  0.91933  1.0000
  C   C657      1.0  0.03369  0.39278  0.74843  1.0000
  H   H515      1.0  0.24385  0.46656  0.74386  1.0000
  H   H516      1.0  0.23290  0.37347  0.96540  1.0000
  C   C658      1.0  0.24866  0.05277  0.73785  1.0000
  S   S104      1.0  0.09936  0.09120  0.72892  1.0000
  H   H517      1.0  0.17026  0.20121  0.94154  1.0000
  H   H518      1.0  0.43925  0.15691  0.93126  1.0000
  Fe  Fe51      1.0  0.10167  0.99933  0.74922  1.0000
  H   H519      1.0  0.45538  0.22249  0.86185  1.0000
  H   H520      1.0  0.45624  0.26566  0.88343  1.0000
  H   H521      1.0  0.41408  0.28873  0.88633  1.0000
  H   H522      1.0  0.39308  0.33632  0.87144  1.0000
  H   H523      1.0  0.41492  0.36140  0.85368  1.0000
  H   H524      1.0  0.19181  0.48973  0.78209  1.0000
  S   S105      1.0  0.08253  0.00589  0.72888  1.0000
  H   H525      1.0  0.03475  0.44808  0.74197  1.0000
  C   C659      1.0  0.39436  0.25350  0.95410  1.0000
  H   H526      1.0  0.15198  0.04775  0.95461  1.0000
  C   C660      1.0  0.21834  0.48289  0.91708  1.0000
  C   C661      1.0  0.20280  0.22869  0.74309  1.0000
  S   S106      1.0  0.20593  0.47859  0.97564  1.0000
  H   H527      1.0  0.19210  0.40586  0.96399  1.0000
  P   P19       1.0  0.43007  0.19725  0.95477  1.0000
  H   H528      1.0  0.44295  0.44279  0.75118  1.0000
  H   H529      1.0  0.28399  0.19905  0.74198  1.0000
  C   C662      1.0  0.48164  0.22548  0.90844  1.0000
  C   C663      1.0  0.37224  0.15727  0.93116  1.0000
  C   C664      1.0  0.22674  0.45017  0.91245  1.0000
  H   H530      1.0  0.08006  0.41163  0.78970  1.0000
  H   H531      1.0  0.18472  0.35764  0.85518  1.0000
  H   H532      1.0  0.20737  0.38943  0.83931  1.0000
  H   H533      1.0  0.39391  0.34293  0.94622  1.0000
  H   H534      1.0  0.38167  0.23332  0.95671  1.0000
  P   P20       1.0  0.20750  0.17469  0.96229  1.0000
  C   C665      1.0  0.20713  0.37779  0.87183  1.0000
  H   H535      1.0  0.17157  0.29585  0.97040  1.0000
  C   C666      1.0  0.24008  0.41698  0.86705  1.0000
  H   H536      1.0  0.39957  0.19741  0.92985  1.0000
  C   C667      1.0  0.21274  0.39254  0.84958  1.0000
  Fe  Fe52      1.0  0.40379  0.39979  0.72875  1.0000
  C   C668      1.0  0.05296  0.15528  0.97760  1.0000
  C   C669      1.0  0.29148  0.27962  0.73684  1.0000
  C   C670      1.0  0.09466  0.45328  0.76234  1.0000
  C   C671      1.0  0.38545  0.28922  0.95202  1.0000
  H   H537      1.0  0.15468  0.41520  0.73666  1.0000
  C   C672      1.0  0.22669  0.29339  0.74007  1.0000
  C   C673      1.0  0.20474  0.29302  0.74599  1.0000
  C   C674      1.0  0.19267  0.26080  0.74739  1.0000
  C   C675      1.0  0.00066  0.49488  0.76201  1.0000
  H   H538      1.0  0.45875  0.15918  0.86966  1.0000
  H   H539      1.0  0.46773  0.28267  0.81655  1.0000
  H   H540      1.0  0.25583  0.43322  0.87018  1.0000
  C   C676      1.0  0.23283  0.41365  0.85381  1.0000
  C   C677      1.0  0.29149  0.26507  0.95587  1.0000
  C   C678      1.0  0.16035  0.47123  0.74072  1.0000
  C   C679      1.0  0.19281  0.20799  0.97161  1.0000
  C   C680      1.0  0.07809  0.42967  0.78129  1.0000
  C   C681      1.0  0.33546  0.29315  0.73867  1.0000
  H   H541      1.0  0.25195  0.19770  0.92399  1.0000
  C   C682      1.0  0.31134  0.30616  0.75633  1.0000
  C   C683      1.0  0.29020  0.29240  0.74934  1.0000
  C   C684      1.0  0.42600  0.30630  0.94678  1.0000
  C   C685      1.0  0.05578  0.47893  0.76855  1.0000
  C   C686      1.0  0.18827  0.20141  0.93790  1.0000
  H   H542      1.0  0.22190  0.43704  0.76086  1.0000
  H   H543      1.0  0.14946  0.48707  0.77073  1.0000
  C   C687      1.0  0.48197  0.44831  0.75753  1.0000
  H   H544      1.0  0.19708  0.31785  0.74949  1.0000
  H   H545      1.0  0.17537  0.26096  0.75173  1.0000
  H   H546      1.0  0.45411  0.26409  0.94740  1.0000
  C   C688      1.0  0.29131  0.15881  0.72825  1.0000
  C   C689      1.0  0.27251  0.26338  0.94564  1.0000
  H   H547      1.0  0.24299  0.42697  0.84680  1.0000
  C   C690      1.0  0.24303  0.47799  0.80408  1.0000
  C   C691      1.0  0.07447  0.47817  0.76017  1.0000
  C   C692      1.0  0.43501  0.27061  0.94889  1.0000
  C   C693      1.0  0.18925  0.42240  0.74865  1.0000
  C   C694      1.0  0.45760  0.18809  0.94676  1.0000
  H   H548      1.0  0.45727  0.33838  0.85058  1.0000
  H   H549      1.0  0.31003  0.31741  0.76575  1.0000
  H   H550      1.0  0.27288  0.29281  0.75361  1.0000
  H   H551      1.0  0.45461  0.33023  0.77831  1.0000
  H   H552      1.0  0.14598  0.20008  0.73796  1.0000
  C   C695      1.0  0.24481  0.24821  0.77818  1.0000
  C   C696      1.0  0.26134  0.27365  0.78337  1.0000
  C   C697      1.0  0.26676  0.27585  0.79676  1.0000
  C   C698      1.0  0.25575  0.25255  0.80500  1.0000
  C   C699      1.0  0.23937  0.22642  0.79992  1.0000
  C   C700      1.0  0.23368  0.22493  0.78640  1.0000
  P   P21       1.0  0.22469  0.19645  0.81055  1.0000
  C   C701      1.0  0.21532  0.15723  0.80140  1.0000
  C   C702      1.0  0.24668  0.18434  0.82461  1.0000
  C   C703      1.0  0.25837  0.14985  0.82610  1.0000
  C   C704      1.0  0.27558  0.14120  0.83692  1.0000
  C   C705      1.0  0.28121  0.16680  0.84636  1.0000
  C   C706      1.0  0.26948  0.20098  0.84504  1.0000
  C   C707      1.0  0.25222  0.20966  0.83427  1.0000
  C   C708      1.0  0.19051  0.14625  0.80040  1.0000
  C   C709      1.0  0.18283  0.11841  0.79220  1.0000
  C   C710      1.0  0.19978  0.10119  0.78498  1.0000
  C   C711      1.0  0.22458  0.11147  0.78606  1.0000
  C   C712      1.0  0.23235  0.13937  0.79423  1.0000
  C   C713      1.0  0.19718  0.21904  0.81544  1.0000
  C   C714      1.0  0.18067  0.23833  0.80620  1.0000
  C   C715      1.0  0.15885  0.25491  0.80964  1.0000
  C   C716      1.0  0.15338  0.25253  0.82241  1.0000
  C   C717      1.0  0.16944  0.23274  0.83166  1.0000
  C   C718      1.0  0.19109  0.21560  0.82817  1.0000
  H   H553      1.0  0.23995  0.24746  0.76781  1.0000
  H   H554      1.0  0.26922  0.29263  0.77705  1.0000
  H   H555      1.0  0.27899  0.29632  0.80077  1.0000
  H   H556      1.0  0.25981  0.25575  0.81528  1.0000
  H   H557      1.0  0.22026  0.20639  0.78214  1.0000
  H   H558      1.0  0.25424  0.12947  0.81901  1.0000
  H   H559      1.0  0.28457  0.11460  0.83802  1.0000
  H   H560      1.0  0.29461  0.16022  0.85472  1.0000
  H   H561      1.0  0.27380  0.22085  0.85237  1.0000
  H   H562      1.0  0.24308  0.23620  0.83354  1.0000
  H   H563      1.0  0.17678  0.15966  0.80562  1.0000
  H   H564      1.0  0.16344  0.11097  0.79107  1.0000
  H   H565      1.0  0.21347  0.21706  0.90985  1.0000
  H   H566      1.0  0.23762  0.09827  0.78036  1.0000
  H   H567      1.0  0.25146  0.14776  0.79471  1.0000
  H   H568      1.0  0.18456  0.24035  0.79631  1.0000
  H   H569      1.0  0.14626  0.26979  0.80239  1.0000
  H   H570      1.0  0.13672  0.26606  0.82510  1.0000
  H   H571      1.0  0.16518  0.23085  0.84155  1.0000
  H   H572      1.0  0.20289  0.19979  0.83544  1.0000
  C   C719      1.0  0.19153  0.34365  0.91353  1.0000
  C   C720      1.0  0.20501  0.31095  0.91599  1.0000
  C   C721      1.0  0.22828  0.30594  0.91149  1.0000
  C   C722      1.0  0.23816  0.33370  0.90459  1.0000
  C   C723      1.0  0.22495  0.36687  0.90230  1.0000
  C   C724      1.0  0.20135  0.37142  0.90661  1.0000
  P   P22       1.0  0.23744  0.40263  0.89324  1.0000
  C   C725      1.0  0.21794  0.47971  0.79894  1.0000
  C   C726      1.0  0.27112  0.39821  0.89577  1.0000
  C   C727      1.0  0.28396  0.37670  0.88755  1.0000
  C   C728      1.0  0.30994  0.37250  0.88958  1.0000
  C   C729      1.0  0.32331  0.38908  0.89996  1.0000
  C   C730      1.0  0.31070  0.41014  0.90826  1.0000
  C   C731      1.0  0.28472  0.41471  0.90620  1.0000
  C   C732      1.0  0.20508  0.04692  0.74068  1.0000
  C   C733      1.0  0.46100  0.35891  0.74755  1.0000
  Fe  Fe53      1.0  0.06767  0.05960  0.73500  1.0000
  H   H573      1.0  0.19082  0.25115  0.95709  1.0000
  H   H574      1.0  0.23548  0.31881  0.73881  1.0000
  H   H575      1.0  0.17347  0.34756  0.91699  1.0000
  H   H576      1.0  0.19738  0.28954  0.92136  1.0000
  H   H577      1.0  0.23879  0.28060  0.91334  1.0000
  H   H578      1.0  0.25614  0.32922  0.90112  1.0000
  H   H579      1.0  0.19055  0.39648  0.90469  1.0000
  H   H580      1.0  0.30462  0.39339  0.73886  1.0000
  S   S107      1.0  0.20866  0.01885  0.97426  1.0000
  H   H581      1.0  0.34338  0.38485  0.90180  1.0000
  H   H582      1.0  0.32104  0.42197  0.91656  1.0000
  H   H583      1.0  0.27549  0.43039  0.91300  1.0000
  C   C734      1.0  0.39289  0.17667  0.93594  1.0000
  C   C735      1.0  0.21004  0.19089  0.94601  1.0000
  C   C736      1.0  0.28300  0.19284  0.73183  1.0000
  H   H584      1.0  0.27625  0.25045  0.93681  1.0000
  H   H585      1.0  0.29874  0.13895  0.73556  1.0000
  H   H586      1.0  0.30985  0.25334  0.95486  1.0000
  H   H587      1.0  0.22536  0.30577  0.95893  1.0000
  H   H588      1.0  0.34635  0.11700  0.93537  1.0000
  H   H589      1.0  0.27399  0.36247  0.87969  1.0000
  Fe  Fe54      1.0  0.24391  0.01155  0.96463  1.0000
  H   H590      1.0  0.45841  0.27785  0.83923  1.0000
  H   H591      1.0  0.02765  0.33717  0.75301  1.0000
  H   H592      1.0  0.01036  0.44095  0.76982  1.0000
  C   C737      1.0  0.45728  0.46113  0.75470  1.0000
  C   C738      1.0  0.40118  0.31554  0.94824  1.0000
  H   H593      1.0  0.13666  0.09622  0.96809  1.0000
  H   H594      1.0  0.40357  0.13756  0.96611  1.0000
  C   C739      1.0  0.47287  0.21203  0.86693  1.0000
  H   H595      1.0  0.14879  0.13677  0.73111  1.0000
  C   C740      1.0  0.43845  0.18675  0.97175  1.0000
  C   C741      1.0  0.18429  0.07623  0.95042  1.0000
  C   C742      1.0  0.45659  0.16732  0.93561  1.0000
  H   H596      1.0  0.18827  0.03176  0.73999  1.0000
  C   C743      1.0  0.15363  0.09952  0.96364  1.0000
  H   H597      1.0  0.47730  0.14436  0.92109  1.0000
  C   C744      1.0  0.18690  0.24316  0.96667  1.0000
  H   H598      1.0  0.05152  0.39312  0.75441  1.0000
  H   H599      1.0  0.05112  0.16895  0.96822  1.0000
  C   C745      1.0  0.22711  0.44550  0.89912  1.0000
  S   S108      1.0  0.36871  0.37357  0.73347  1.0000
  C   C746      1.0  0.16711  0.13083  0.96563  1.0000
  C   C747      1.0  0.21249  0.21018  0.91995  1.0000
  C   C748      1.0  0.26313  0.29758  0.96844  1.0000
  H   H600      1.0  0.36606  0.29638  0.95288  1.0000
  H   H601      1.0  0.23402  0.27622  0.93896  1.0000
  C   C749      1.0  0.17615  0.26875  0.97423  1.0000
  C   C750      1.0  0.36286  0.13120  0.93898  1.0000
  H   H602      1.0  0.36312  0.16308  0.92148  1.0000
  H   H603      1.0  0.17262  0.21883  0.91869  1.0000
  C   C751      1.0  0.05780  0.45439  0.77913  1.0000
  C   C752      1.0  0.18954  0.13472  0.96017  1.0000
  H   H604      1.0  0.98727  0.33593  0.73927  1.0000
  H   H605      1.0  0.46005  0.13834  0.96836  1.0000
  H   H606      1.0  0.43013  0.35948  0.75891  1.0000
  C   C753      1.0  0.23417  0.19934  0.92791  1.0000
  H   H607      1.0  0.19334  0.20371  0.74418  1.0000
  C   C754      1.0  0.24398  0.29495  0.95821  1.0000
  H   H608      1.0  0.23195  0.20394  0.73362  1.0000
  C   C755      1.0  0.22006  0.36680  0.97230  1.0000
  H   H609      1.0  0.11272  0.41087  0.77490  1.0000
  S   S109      1.0  0.02610  0.07435  0.73056  1.0000
  C   C756      1.0  0.24874  0.27803  0.94684  1.0000
  H   H610      1.0  0.21537  0.10941  0.94834  1.0000
  H   H611      1.0  0.21825  0.48615  0.92741  1.0000
  C   C757      1.0  0.45345  0.15583  0.97555  1.0000
  C   C758      1.0  0.09654  0.42918  0.77292  1.0000
  C   C759      1.0  0.22720  0.03219  0.73674  1.0000
  C   C760      1.0  0.25475  0.49026  0.74530  1.0000
  H   H612      1.0  0.07146  0.10787  0.97106  1.0000
  Fe  Fe55      1.0  0.24023  0.47958  0.96517  1.0000
  C   C761      1.0  0.22731  0.39900  0.87617  1.0000
  C   C762      1.0  0.22489  0.22891  0.73723  1.0000
  H   H613      1.0  0.10944  0.45354  0.75612  1.0000
  H   H614      1.0  0.24987  0.17987  0.94665  1.0000
  C   C763      1.0  0.19991  0.37465  0.85857  1.0000
  C   C764      1.0  0.47751  0.28095  0.83728  1.0000
  C   C765      1.0  0.24774  0.08785  0.74247  1.0000
  C   C766      1.0  0.37440  0.12409  0.95153  1.0000
  C   C767      1.0  0.99593  0.45883  0.76495  1.0000
  H   H615      1.0  0.19128  0.05486  0.94471  1.0000
  H   H616      1.0  0.35287  0.29383  0.73441  1.0000
  C   C768      1.0  0.33391  0.30676  0.75096  1.0000
  C   C769      1.0  0.16689  0.43444  0.74152  1.0000
  C   C770      1.0  0.48062  0.20131  0.95194  1.0000
  H   H617      1.0  0.07405  0.49740  0.75219  1.0000
  C   C771      1.0  0.26144  0.48686  0.79626  1.0000
  C   C772      1.0  0.21875  0.47418  0.89049  1.0000
  C   C773      1.0  0.48270  0.28341  0.82443  1.0000
  H   H618      1.0  0.15991  0.15162  0.97144  1.0000
  C   C774      1.0  0.25600  0.18906  0.97244  1.0000
  C   C775      1.0  0.19694  0.38531  0.97150  1.0000
  C   C776      1.0  0.00125  0.42340  0.73372  1.0000
  H   H619      1.0  0.25309  0.21466  0.96723  1.0000
  C   C777      1.0  0.23723  0.16369  0.97155  1.0000
  H   H620      1.0  0.24819  0.46924  0.81405  1.0000
  C   C778      1.0  0.98757  0.39181  0.73282  1.0000
  C   C779      1.0  0.28681  0.28186  0.96728  1.0000
  H   H621      1.0  0.20356  0.47244  0.80491  1.0000
  H   H622      1.0  0.30171  0.28295  0.97515  1.0000
  H   H623      1.0  0.32457  0.40199  0.97594  1.0000
  H   H624      1.0  0.28240  0.46996  0.73362  1.0000
  H   H625      1.0  0.14298  0.48063  0.73524  1.0000
  C   C780      1.0  0.47827  0.15985  0.92981  1.0000
  C   C781      1.0  0.99729  0.36076  0.73988  1.0000
  H   H626      1.0  0.48188  0.21745  0.96051  1.0000
  C   C782      1.0  0.27667  0.49208  0.73938  1.0000
  H   H627      1.0  0.28095  0.48487  0.80016  1.0000
  Fe  Fe56      1.0  0.37902  0.69140  0.03863  1.0000
  S   S110      1.0  0.36603  0.73042  0.05286  1.0000
  S   S111      1.0  0.35273  0.64465  0.03484  1.0000
  Fe  Fe57      1.0  0.42970  0.72878  0.03876  1.0000
  S   S112      1.0  0.41877  0.77094  0.05245  1.0000
  S   S113      1.0  0.46802  0.72627  0.03090  1.0000
  Fe  Fe58      1.0  0.40444  0.72478  0.06350  1.0000
  S   S114      1.0  0.41749  0.71343  0.08486  1.0000
  Fe  Fe59      1.0  0.38092  0.77338  0.04046  1.0000
  S   S115      1.0  0.35606  0.82511  0.03753  1.0000
  S   S116      1.0  0.41671  0.68247  0.05023  1.0000
  S   S117      1.0  0.39261  0.73441  0.02577  1.0000
  Fe  Fe60      1.0  0.37246  0.71661  0.15403  1.0000
  S   S118      1.0  0.34568  0.71959  0.16917  1.0000
  S   S119      1.0  0.35744  0.73421  0.13346  1.0000
  Fe  Fe61      1.0  0.41523  0.68743  0.17354  1.0000
  S   S120      1.0  0.39130  0.68854  0.18975  1.0000
  S   S121      1.0  0.45563  0.66605  0.17493  1.0000
  Fe  Fe62      1.0  0.36185  0.66421  0.17562  1.0000
  S   S122      1.0  0.33827  0.61718  0.18158  1.0000
  Fe  Fe63      1.0  0.37738  0.74391  0.18183  1.0000
  S   S123      1.0  0.37489  0.78922  0.19676  1.0000
  S   S124      1.0  0.38667  0.66043  0.15985  1.0000
  S   S125      1.0  0.40313  0.74369  0.16623  1.0000
  S   S126      1.0  0.36616  0.96341  0.19590  1.0000
  H   H628      1.0  0.30744  0.78902  0.02538  1.0000
  S   S127      1.0  0.23035  0.54201  0.99398  1.0000
  C   C783      1.0  0.40678  0.59510  0.14002  1.0000
  Fe  Fe64      1.0  0.26640  0.95343  0.98493  1.0000
  S   S128      1.0  0.23303  0.95825  0.99598  1.0000
  S   S129      1.0  0.29820  0.90991  0.98795  1.0000
  C   C784      1.0  0.27494  0.71298  0.02898  1.0000
  C   C785      1.0  0.08397  0.66229  0.99014  1.0000
  C   C786      1.0  0.46444  0.58757  0.06942  1.0000
  C   C787      1.0  0.46463  0.66120  0.20173  1.0000
  C   C788      1.0  0.32587  0.74294  0.00230  1.0000
  H   H629      1.0  0.44530  0.66965  0.20187  1.0000
  C   C789      1.0  0.44379  0.63048  0.12853  1.0000
  C   C790      1.0  0.10702  0.67877  0.99136  1.0000
  C   C791      1.0  0.34206  0.56051  0.16429  1.0000
  C   C792      1.0  0.33105  0.57409  0.17482  1.0000
  C   C793      1.0  0.31374  0.55268  0.18035  1.0000
  H   H630      1.0  0.46296  0.63258  0.14786  1.0000
  H   H631      1.0  0.43416  0.54037  0.22431  1.0000
  H   H632      1.0  0.35536  0.57644  0.15988  1.0000
  H   H633      1.0  0.30508  0.56265  0.18850  1.0000
  H   H634      1.0  0.42940  0.80602  0.17928  1.0000
  C   C794      1.0  0.37306  0.83773  0.19631  1.0000
  C   C795      1.0  0.37122  0.85814  0.18475  1.0000
  C   C796      1.0  0.36928  0.89629  0.18489  1.0000
  C   C797      1.0  0.36910  0.91493  0.19655  1.0000
  C   C798      1.0  0.37105  0.89453  0.20814  1.0000
  C   C799      1.0  0.37308  0.85634  0.20800  1.0000
  H   H635      1.0  0.37108  0.84456  0.17566  1.0000
  H   H636      1.0  0.36775  0.91153  0.17585  1.0000
  H   H637      1.0  0.37091  0.90815  0.21720  1.0000
  H   H638      1.0  0.37450  0.84106  0.21704  1.0000
  H   H639      1.0  0.45155  0.64947  0.09164  1.0000
  H   H640      1.0  0.45332  0.57556  0.18698  1.0000
  C   C800      1.0  0.34032  0.84834  0.02357  1.0000
  C   C801      1.0  0.32284  0.87643  0.02524  1.0000
  C   C802      1.0  0.30998  0.89585  0.01453  1.0000
  C   C803      1.0  0.31462  0.88767  0.00195  1.0000
  C   C804      1.0  0.33222  0.85972  0.00029  1.0000
  C   C805      1.0  0.34480  0.83994  0.01098  1.0000
  H   H641      1.0  0.31920  0.88326  0.03491  1.0000
  H   H642      1.0  0.29655  0.91721  0.01602  1.0000
  H   H643      1.0  0.33612  0.85331  0.99063  1.0000
  H   H644      1.0  0.35826  0.81861  0.00951  1.0000
  C   C806      1.0  0.40005  0.71859  0.09811  1.0000
  C   C807      1.0  0.41141  0.70845  0.11055  1.0000
  C   C808      1.0  0.39836  0.71208  0.12143  1.0000
  C   C809      1.0  0.37390  0.72652  0.11997  1.0000
  C   C810      1.0  0.36250  0.73658  0.10753  1.0000
  C   C811      1.0  0.37553  0.73269  0.09664  1.0000
  H   H645      1.0  0.43048  0.69798  0.11176  1.0000
  H   H646      1.0  0.40736  0.70433  0.13096  1.0000
  H   H647      1.0  0.34360  0.74782  0.10634  1.0000
  H   H648      1.0  0.36665  0.74062  0.08712  1.0000
  C   C812      1.0  0.33551  0.62918  0.02053  1.0000
  C   C813      1.0  0.31871  0.60142  0.02165  1.0000
  C   C814      1.0  0.30544  0.58691  0.01061  1.0000
  C   C815      1.0  0.30902  0.59977  0.99826  1.0000
  C   C816      1.0  0.32546  0.62803  0.99713  1.0000
  C   C817      1.0  0.33857  0.64278  0.00820  1.0000
  H   H649      1.0  0.31619  0.59069  0.03114  1.0000
  H   H650      1.0  0.29285  0.56526  0.01164  1.0000
  H   H651      1.0  0.43531  0.85453  0.07447  1.0000
  H   H652      1.0  0.35136  0.66413  0.00716  1.0000
  H   H653      1.0  0.44951  0.58387  0.08773  1.0000
  H   H654      1.0  0.26210  0.69529  0.02382  1.0000
  H   H655      1.0  0.29841  0.56819  0.13770  1.0000
  C   C818      1.0  0.45569  0.60959  0.03360  1.0000
  C   C819      1.0  0.25194  0.65624  0.99201  1.0000
  C   C820      1.0  0.26547  0.68232  0.99898  1.0000
  H   H656      1.0  0.25677  0.62787  0.99384  1.0000
  H   H657      1.0  0.39320  0.59760  0.02644  1.0000
  C   C821      1.0  0.14168  0.76351  0.98838  1.0000
  H   H658      1.0  0.39661  0.60706  0.07245  1.0000
  C   C822      1.0  0.15794  0.82342  0.99126  1.0000
  C   C823      1.0  0.13654  0.83452  0.99668  1.0000
  C   C824      1.0  0.11775  0.81020  0.99804  1.0000
  C   C825      1.0  0.12025  0.77481  0.99388  1.0000
  H   H659      1.0  0.18493  0.60262  0.99903  1.0000
  C   C826      1.0  0.43737  0.65176  0.01669  1.0000
  H   H660      1.0  0.46652  0.84726  0.21525  1.0000
  H   H661      1.0  0.43929  0.67470  0.01030  1.0000
  H   H662      1.0  0.07809  0.64757  0.99829  1.0000
  C   C827      1.0  0.16694  0.69095  0.99299  1.0000
  C   C828      1.0  0.43928  0.94532  0.09089  1.0000
  C   C829      1.0  0.26060  0.51021  0.05100  1.0000
  C   C830      1.0  0.20150  0.64740  0.00923  1.0000
  C   C831      1.0  0.20109  0.68484  0.01040  1.0000
  C   C832      1.0  0.18390  0.70658  0.00232  1.0000
  C   C833      1.0  0.31163  0.62153  0.14113  1.0000
  C   C834      1.0  0.23253  0.66666  0.98247  1.0000
  C   C835      1.0  0.28457  0.74238  0.02271  1.0000
  H   H663      1.0  0.38525  0.61399  0.20025  1.0000
  C   C836      1.0  0.40357  0.60225  0.12661  1.0000
  H   H664      1.0  0.47570  0.65130  0.02471  1.0000
  C   C837      1.0  0.30727  0.51859  0.17538  1.0000
  H   H665      1.0  0.13440  0.86219  0.99963  1.0000
  H   H666      1.0  0.19751  0.81967  0.01238  1.0000
  H   H667      1.0  0.46704  0.69018  0.07546  1.0000
  H   H668      1.0  0.43070  0.88646  0.14356  1.0000
  C   C838      1.0  0.42234  0.61990  0.12091  1.0000
  C   C839      1.0  0.25907  0.85565  0.20990  1.0000
  H   H669      1.0  0.40002  0.78792  0.11531  1.0000
  H   H670      1.0  0.28322  0.79339  0.98222  1.0000
  C   C840      1.0  0.40253  0.59792  0.20191  1.0000
  H   H671      1.0  0.34905  0.54545  0.09734  1.0000
  H   H672      1.0  0.21505  0.63053  0.01533  1.0000
  H   H673      1.0  0.21422  0.69698  0.01752  1.0000
  H   H674      1.0  0.18396  0.73541  0.00340  1.0000
  H   H675      1.0  0.46077  0.76896  0.16912  1.0000
  C   C841      1.0  0.33562  0.52639  0.15933  1.0000
  H   H676      1.0  0.26729  0.53528  0.04742  1.0000
  C   C842      1.0  0.40829  0.57793  0.21345  1.0000
  H   H677      1.0  0.32778  0.72620  0.01105  1.0000
  H   H678      1.0  0.41916  0.73863  0.21197  1.0000
  C   C843      1.0  0.28234  0.94694  0.20931  1.0000
  H   H679      1.0  0.47333  0.51324  0.18007  1.0000
  H   H680      1.0  0.28457  0.83046  0.00240  1.0000
  C   C844      1.0  0.41145  0.60847  0.02587  1.0000
  C   C845      1.0  0.47426  0.65721  0.18992  1.0000
  H   H681      1.0  0.36450  0.73450  0.99938  1.0000
  H   H682      1.0  0.37412  0.90339  0.08874  1.0000
  C   C846      1.0  0.36763  0.64470  0.07654  1.0000
  C   C847      1.0  0.44673  0.62344  0.14186  1.0000
  C   C848      1.0  0.23148  0.79072  0.00913  1.0000
  H   H683      1.0  0.45419  0.89332  0.09797  1.0000
  C   C849      1.0  0.30648  0.75949  0.04321  1.0000
  C   C850      1.0  0.36126  0.83245  0.09871  1.0000
  C   C851      1.0  0.47392  0.52489  0.03559  1.0000
  H   H684      1.0  0.32829  0.63829  0.98763  1.0000
  C   C852      1.0  0.30018  0.76574  0.02996  1.0000
  H   H685      1.0  0.39233  0.58228  0.14471  1.0000
  C   C853      1.0  0.16060  0.78799  0.98720  1.0000
  P   P23       1.0  0.37523  0.58944  0.11707  1.0000
  P   P24       1.0  0.46432  0.77192  0.22400  1.0000
  H   H686      1.0  0.42023  0.62666  0.11068  1.0000
  C   C854      1.0  0.24003  0.72934  0.98688  1.0000
  P   P25       1.0  0.41172  0.84662  0.09837  1.0000
  H   H687      1.0  0.29378  0.50285  0.17973  1.0000
  H   H688      1.0  0.40053  0.57727  0.09415  1.0000
  C   C855      1.0  0.36028  0.52750  0.10420  1.0000
  C   C856      1.0  0.47365  0.61054  0.06031  1.0000
  H   H689      1.0  0.31452  0.98423  0.18637  1.0000
  C   C857      1.0  0.43211  0.59511  0.03415  1.0000
  C   C858      1.0  0.29767  0.72944  0.04932  1.0000
  C   C859      1.0  0.41407  0.63684  0.01716  1.0000
  C   C860      1.0  0.34869  0.63646  0.13134  1.0000
  H   H690      1.0  0.36318  0.84168  0.10855  1.0000
  H   H691      1.0  0.37776  0.96685  0.08219  1.0000
  H   H692      1.0  0.45787  0.64496  0.12413  1.0000
  H   H693      1.0  0.17218  0.84270  0.98996  1.0000
  H   H694      1.0  0.15431  0.64043  0.98502  1.0000
  C   C861      1.0  0.34674  0.74742  0.99568  1.0000
  C   C862      1.0  0.16725  0.65327  0.99206  1.0000
  C   C863      1.0  0.46698  0.66138  0.07395  1.0000
  H   H695      1.0  0.34363  0.65129  0.10518  1.0000
  C   C864      1.0  0.37226  0.61176  0.10130  1.0000
  C   C865      1.0  0.31217  0.58751  0.13568  1.0000
  H   H696      1.0  0.36598  0.65753  0.06701  1.0000
  H   H697      1.0  0.28122  0.67374  0.00592  1.0000
  C   C866      1.0  0.25014  0.85853  0.00470  1.0000
  C   C867      1.0  0.25601  0.79338  0.00605  1.0000
  C   C868      1.0  0.37839  0.81985  0.07870  1.0000
  C   C869      1.0  0.46309  0.81178  0.07483  1.0000
  H   H698      1.0  0.39369  0.81901  0.07284  1.0000
  C   C870      1.0  0.46394  0.77210  0.20661  1.0000
  C   C871      1.0  0.42425  0.86485  0.13735  1.0000
  H   H699      1.0  0.34416  0.51650  0.15112  1.0000
  C   C872      1.0  0.38181  0.83109  0.09154  1.0000
  C   C873      1.0  0.25865  0.71901  0.99694  1.0000
  C   C874      1.0  0.35487  0.80995  0.07318  1.0000
  C   C875      1.0  0.33462  0.81085  0.08041  1.0000
  C   C876      1.0  0.27603  0.99739  0.18863  1.0000
  C   C877      1.0  0.41780  0.96611  0.08643  1.0000
  C   C878      1.0  0.35273  0.65698  0.08579  1.0000
  C   C879      1.0  0.44416  0.83152  0.07996  1.0000
  C   C880      1.0  0.30089  0.78061  0.98608  1.0000
  C   C881      1.0  0.43738  0.90918  0.09460  1.0000
  C   C882      1.0  0.30288  0.75997  0.99763  1.0000
  H   H700      1.0  0.35239  0.80177  0.06324  1.0000
  H   H701      1.0  0.31646  0.80303  0.07607  1.0000
  C   C883      1.0  0.45686  0.60149  0.08079  1.0000
  C   C884      1.0  0.46190  0.77036  0.17955  1.0000
  H   H702      1.0  0.31663  0.81342  0.19572  1.0000
  H   H703      1.0  0.10530  0.75660  0.99484  1.0000
  C   C885      1.0  0.44642  0.55432  0.20580  1.0000
  C   C886      1.0  0.42576  0.72364  0.22082  1.0000
  C   C887      1.0  0.30054  0.82498  0.19976  1.0000
  C   C888      1.0  0.45811  0.63825  0.02488  1.0000
  P   P26       1.0  0.47300  0.52290  0.20784  1.0000
  C   C889      1.0  0.37534  0.54135  0.11472  1.0000
  H   H704      1.0  0.46252  0.55917  0.06764  1.0000
  C   C890      1.0  0.27739  0.80915  0.19754  1.0000
  H   H705      1.0  0.48032  0.66587  0.05535  1.0000
  C   C891      1.0  0.28247  0.87096  0.21255  1.0000
  C   C892      1.0  0.48007  0.65427  0.21343  1.0000
  C   C893      1.0  0.42328  0.86908  0.12390  1.0000
  C   C894      1.0  0.30215  0.95387  0.20213  1.0000
  H   H706      1.0  0.40160  0.78068  0.13897  1.0000
  C   C895      1.0  0.44752  0.79005  0.09841  1.0000
  C   C896      1.0  0.22707  0.70327  0.97970  1.0000
  S   S130      1.0  0.29374  0.58116  0.98398  1.0000
  C   C897      1.0  0.46639  0.77033  0.09323  1.0000
  C   C898      1.0  0.44424  0.79109  0.18525  1.0000
  P   P27       1.0  0.28591  0.91173  0.22163  1.0000
  C   C899      1.0  0.48142  0.75094  0.20080  1.0000
  H   H707      1.0  0.42957  0.57398  0.04116  1.0000
  C   C900      1.0  0.41897  0.59703  0.19248  1.0000
  H   H708      1.0  0.43044  0.60084  0.15798  1.0000
  Fe  Fe65      1.0  0.26271  0.54027  0.98219  1.0000
  H   H709      1.0  0.27554  0.78518  0.19179  1.0000
  C   C901      1.0  0.45342  0.84612  0.22238  1.0000
  H   H710      1.0  0.41471  0.61307  0.18364  1.0000
  C   C902      1.0  0.25912  0.96497  0.20589  1.0000
  H   H711      1.0  0.10106  0.81898  0.00214  1.0000
  H   H712      1.0  0.32001  0.93961  0.20441  1.0000
  C   C903      1.0  0.25609  0.99039  0.19566  1.0000
  C   C904      1.0  0.30300  0.85599  0.20709  1.0000
  C   C905      1.0  0.43019  0.55629  0.21542  1.0000
  H   H713      1.0  0.32093  0.86841  0.20838  1.0000
  H   H714      1.0  0.36118  0.77313  0.97951  1.0000
  C   C906      1.0  0.41253  0.69397  0.22436  1.0000
  C   C907      1.0  0.26540  0.82755  0.00414  1.0000
  C   C908      1.0  0.21631  0.82178  0.00984  1.0000
  C   C909      1.0  0.47426  0.78128  0.08148  1.0000
  C   C910      1.0  0.28186  0.70622  0.04221  1.0000
  C   C911      1.0  0.41651  0.83299  0.14280  1.0000
  H   H715      1.0  0.21387  0.87990  0.00794  1.0000
  C   C912      1.0  0.38490  0.61609  0.07963  1.0000
  C   C913      1.0  0.44090  0.57548  0.19442  1.0000
  H   H716      1.0  0.24328  0.95909  0.21098  1.0000
  C   C914      1.0  0.25662  0.82462  0.20252  1.0000
  C   C915      1.0  0.18456  0.63166  0.00007  1.0000
  H   H717      1.0  0.40047  0.52709  0.13199  1.0000
  H   H718      1.0  0.27502  0.68293  0.04695  1.0000
  C   C916      1.0  0.39243  0.91470  0.08945  1.0000
  H   H719      1.0  0.33129  0.55100  0.12428  1.0000
  C   C917      1.0  0.42835  0.60547  0.14758  1.0000
  C   C918      1.0  0.33102  0.57782  0.12810  1.0000
  H   H720      1.0  0.13466  0.51108  0.21661  1.0000
  H   H721      1.0  0.25755  0.88481  0.00310  1.0000
  H   H722      1.0  0.30318  0.72413  0.05953  1.0000
  H   H723      1.0  0.31854  0.77784  0.04865  1.0000
  P   P28       1.0  0.27568  0.75314  0.00581  1.0000
  C   C919      1.0  0.33783  0.82205  0.09319  1.0000
  H   H724      1.0  0.22426  0.76467  0.01118  1.0000
  C   C920      1.0  0.22557  0.85570  0.00749  1.0000
  H   H725      1.0  0.32217  0.82269  0.09884  1.0000
  H   H726      1.0  0.26794  0.52374  0.07104  1.0000
  H   H727      1.0  0.46873  0.81960  0.06552  1.0000
  H   H728      1.0  0.42903  0.89416  0.11993  1.0000
  H   H729      1.0  0.11869  0.67683  0.00055  1.0000
  H   H730      1.0  0.45743  0.95713  0.09136  1.0000
  H   H731      1.0  0.32942  0.67246  0.14312  1.0000
  H   H732      1.0  0.44136  0.78036  0.10732  1.0000
  C   C921      1.0  0.41457  0.84132  0.11580  1.0000
  C   C922      1.0  0.11500  0.69720  0.98074  1.0000
  C   C923      1.0  0.39440  0.95082  0.08573  1.0000
  H   H733      1.0  0.17726  0.77969  0.98299  1.0000
  C   C924      1.0  0.40794  0.80526  0.13481  1.0000
  C   C925      1.0  0.41393  0.89357  0.09387  1.0000
  H   H734      1.0  0.33968  0.67962  0.08344  1.0000
  C   C926      1.0  0.32976  0.64609  0.13886  1.0000
  C   C927      1.0  0.45812  0.63838  0.08304  1.0000
  C   C928      1.0  0.43648  0.82116  0.09191  1.0000
  H   H735      1.0  0.36288  0.65557  0.12990  1.0000
  C   C929      1.0  0.38711  0.59950  0.09192  1.0000
  C   C930      1.0  0.40702  0.80941  0.12140  1.0000
  C   C931      1.0  0.34952  0.60226  0.12592  1.0000
  C   C932      1.0  0.35511  0.64081  0.09816  1.0000
  H   H736      1.0  0.39789  0.64781  0.01101  1.0000
  H   H737      1.0  0.29747  0.62863  0.14731  1.0000
  H   H738      1.0  0.43015  0.80607  0.20279  1.0000
  C   C933      1.0  0.44490  0.79134  0.19868  1.0000
  C   C934      1.0  0.38908  0.51735  0.12367  1.0000
  H   H739      1.0  0.47435  0.74589  0.09813  1.0000
  H   H740      1.0  0.24268  0.86786  0.21336  1.0000
  H   H741      1.0  0.41687  0.82986  0.15320  1.0000
  H   H742      1.0  0.23858  0.81270  0.20055  1.0000
  H   H743      1.0  0.47238  0.65733  0.22250  1.0000
  H   H744      1.0  0.21721  0.86863  0.97903  1.0000
  C   C935      1.0  0.34482  0.76898  0.98442  1.0000
  C   C936      1.0  0.48036  0.75011  0.18733  1.0000
  P   P29       1.0  0.14475  0.71855  0.98233  1.0000
  P   P30       1.0  0.48161  0.59399  0.04510  1.0000
  H   H745      1.0  0.39552  0.57881  0.22074  1.0000
  H   H746      1.0  0.39602  0.68633  0.21826  1.0000
  H   H747      1.0  0.23570  0.75754  0.98443  1.0000
  C   C937      1.0  0.29899  0.97899  0.19182  1.0000
  C   C938      1.0  0.00618  0.51932  0.22415  1.0000
  C   C939      1.0  0.47454  0.64756  0.06258  1.0000
  H   H748      1.0  0.44321  0.90278  0.22011  1.0000
  H   H749      1.0  0.46208  0.53756  0.02754  1.0000
  C   C940      1.0  0.31809  0.50513  0.16477  1.0000
  C   C941      1.0  0.32188  0.78552  0.97961  1.0000
  H   H750      1.0  0.41929  0.99403  0.08345  1.0000
  C   C942      1.0  0.99039  0.53705  0.21423  1.0000
  H   H751      1.0  0.48057  0.58166  0.22593  1.0000
  C   C943      1.0  0.44034  0.87766  0.22514  1.0000
  H   H752      1.0  0.99302  0.56516  0.21195  1.0000
  C   C944      1.0  0.26098  0.50365  0.06429  1.0000
  C   C945      1.0  0.14279  0.51577  0.22642  1.0000
  C   C946      1.0  0.06858  0.66453  0.97838  1.0000
  H   H753      1.0  0.06957  0.87819  0.27414  1.0000
  S   S131      1.0  0.20533  0.55059  0.45784  1.0000
  H   H754      1.0  0.00009  0.84428  0.41828  1.0000
  C   C947      1.0  0.22251  0.96332  0.40362  1.0000
  H   H755      1.0  0.19908  0.66741  0.46079  1.0000
  S   S132      1.0  0.17492  0.93050  0.45578  1.0000
  Fe  Fe66      1.0  0.08000  0.74762  0.40568  1.0000
  S   S133      1.0  0.05667  0.78204  0.41772  1.0000
  S   S134      1.0  0.08727  0.77401  0.38645  1.0000
  Fe  Fe67      1.0  0.08857  0.68705  0.42662  1.0000
  S   S135      1.0  0.06501  0.71768  0.43944  1.0000
  S   S136      1.0  0.10191  0.63051  0.43458  1.0000
  Fe  Fe68      1.0  0.03752  0.73079  0.42183  1.0000
  H   H756      1.0  0.06721  0.82480  0.23797  1.0000
  Fe  Fe69      1.0  0.08615  0.76615  0.43421  1.0000
  S   S137      1.0  0.10249  0.79780  0.45159  1.0000
  S   S138      1.0  0.05981  0.69694  0.40913  1.0000
  S   S139      1.0  0.11077  0.73502  0.42205  1.0000
  Fe  Fe70      1.0  0.02947  0.77082  0.28635  1.0000
  S   S140      1.0  0.05957  0.76887  0.27317  1.0000
  C   C948      1.0  0.06061  0.84635  0.24369  1.0000
  Fe  Fe71      1.0  0.06438  0.73846  0.30931  1.0000
  S   S141      1.0  0.09705  0.73451  0.29757  1.0000
  S   S142      1.0  0.06487  0.71328  0.32960  1.0000
  Fe  Fe72      1.0  0.08431  0.79067  0.29003  1.0000
  S   S143      1.0  0.11305  0.83333  0.28637  1.0000
  Fe  Fe73      1.0  0.06985  0.71287  0.28169  1.0000
  S   S144      1.0  0.07846  0.66847  0.26735  1.0000
  S   S145      1.0  0.05343  0.79555  0.30281  1.0000
  S   S146      1.0  0.03795  0.71384  0.29381  1.0000
  C   C949      1.0  0.19066  0.94289  0.38197  1.0000
  H   H757      1.0  0.17275  0.62611  0.47391  1.0000
  H   H758      1.0  0.47071  0.72212  0.24671  1.0000
  C   C950      1.0  0.21934  0.56552  0.27984  1.0000
  H   H759      1.0  0.00954  0.81165  0.25791  1.0000
  C   C951      1.0  0.12958  0.95154  0.29711  1.0000
  C   C952      1.0  0.14441  0.93214  0.28928  1.0000
  C   C953      1.0  0.13881  0.89634  0.28599  1.0000
  C   C954      1.0  0.11834  0.87928  0.29042  1.0000
  C   C955      1.0  0.10314  0.89899  0.29797  1.0000
  C   C956      1.0  0.10884  0.93470  0.30136  1.0000
  H   H760      1.0  0.16033  0.94460  0.28586  1.0000
  H   H761      1.0  0.15055  0.88169  0.27998  1.0000
  H   H762      1.0  0.08698  0.88678  0.30116  1.0000
  H   H763      1.0  0.04346  0.81576  0.39235  1.0000
  C   C957      1.0  0.07906  0.62001  0.26717  1.0000
  C   C958      1.0  0.07450  0.59864  0.27785  1.0000
  C   C959      1.0  0.07685  0.56054  0.27748  1.0000
  C   C960      1.0  0.08330  0.54298  0.26638  1.0000
  C   C961      1.0  0.08675  0.56430  0.25552  1.0000
  C   C962      1.0  0.08494  0.60241  0.25597  1.0000
  H   H764      1.0  0.06983  0.61144  0.28653  1.0000
  H   H765      1.0  0.07392  0.54453  0.28594  1.0000
  H   H766      1.0  0.09125  0.55138  0.24684  1.0000
  H   H767      1.0  0.08830  0.61842  0.24759  1.0000
  C   C963      1.0  0.07796  0.75793  0.37073  1.0000
  C   C964      1.0  0.07933  0.78080  0.35988  1.0000
  C   C965      1.0  0.07445  0.76807  0.34720  1.0000
  C   C966      1.0  0.06859  0.73207  0.34524  1.0000
  C   C967      1.0  0.06655  0.70951  0.35607  1.0000
  C   C968      1.0  0.07094  0.72241  0.36874  1.0000
  H   H768      1.0  0.08473  0.80829  0.36132  1.0000
  H   H769      1.0  0.07600  0.78568  0.33897  1.0000
  H   H770      1.0  0.06211  0.68160  0.35466  1.0000
  H   H771      1.0  0.06987  0.70447  0.37697  1.0000
  C   C969      1.0  0.27640  0.92329  0.44940  1.0000
  C   C970      1.0  0.22808  0.97173  0.39106  1.0000
  C   C971      1.0  0.15627  0.89188  0.45466  1.0000
  C   C972      1.0  0.14432  0.88254  0.44252  1.0000
  C   C973      1.0  0.12841  0.85310  0.44131  1.0000
  C   C974      1.0  0.12395  0.83311  0.45230  1.0000
  C   C975      1.0  0.13612  0.84218  0.46441  1.0000
  C   C976      1.0  0.15240  0.87114  0.46559  1.0000
  H   H772      1.0  0.14716  0.89842  0.43402  1.0000
  H   H773      1.0  0.11910  0.84649  0.43195  1.0000
  C   C977      1.0  0.14547  0.55162  0.24566  1.0000
  H   H774      1.0  0.02187  0.75961  0.38740  1.0000
  C   C978      1.0  0.17626  0.57337  0.45218  1.0000
  C   C979      1.0  0.17644  0.60608  0.44507  1.0000
  C   C980      1.0  0.15398  0.62473  0.44006  1.0000
  C   C981      1.0  0.13092  0.61045  0.44184  1.0000
  C   C982      1.0  0.13075  0.57794  0.44908  1.0000
  C   C983      1.0  0.15321  0.55971  0.45432  1.0000
  H   H775      1.0  0.19412  0.61669  0.44322  1.0000
  H   H776      1.0  0.15447  0.64943  0.43441  1.0000
  H   H777      1.0  0.11308  0.56649  0.45050  1.0000
  H   H778      1.0  0.15264  0.53459  0.45973  1.0000
  C   C984      1.0  0.16650  0.75298  0.44363  1.0000
  C   C985      1.0  0.15838  0.98430  0.34836  1.0000
  C   C986      1.0  0.25028  0.62599  0.47122  1.0000
  H   H779      1.0  0.31990  0.85376  0.23349  1.0000
  H   H780      1.0  0.01865  0.67795  0.26065  1.0000
  C   C987      1.0  0.03313  0.78608  0.47484  1.0000
  C   C988      1.0  0.06182  0.87661  0.26411  1.0000
  H   H781      1.0  0.09702  0.94947  0.30729  1.0000
  H   H782      1.0  0.44777  0.66919  0.25255  1.0000
  C   C989      1.0  0.02180  0.89043  0.30883  1.0000
  C   C990      1.0  0.01956  0.82902  0.45032  1.0000
  H   H783      1.0  0.25891  0.86136  0.23675  1.0000
  H   H784      1.0  0.12108  0.63936  0.29299  1.0000
  C   C991      1.0  0.17407  0.71343  0.46269  1.0000
  H   H785      1.0  0.12799  0.68678  0.45786  1.0000
  H   H786      1.0  0.28778  0.93008  0.45823  1.0000
  C   C992      1.0  0.05479  0.97264  0.27016  1.0000
  C   C993      1.0  0.99073  0.82302  0.25753  1.0000
  C   C994      1.0  0.45467  0.71438  0.24030  1.0000
  H   H787      1.0  0.01877  0.91719  0.24131  1.0000
  C   C995      1.0  0.02910  0.91863  0.28433  1.0000
  H   H788      1.0  0.25588  0.55508  0.25006  1.0000
  C   C996      1.0  0.35063  0.87957  0.24387  1.0000
  C   C997      1.0  0.26748  0.95057  0.44044  1.0000
  H   H789      1.0  0.14649  0.96225  0.35013  1.0000
  C   C998      1.0  0.99696  0.70384  0.37521  1.0000
  C   C999      1.0  0.25244  0.94236  0.42906  1.0000
  C   C1000     1.0  0.13219  0.61919  0.28860  1.0000
  C   C1001     1.0  0.15995  0.60316  0.27278  1.0000
  C   C1002     1.0  0.18221  0.73086  0.43718  1.0000
  H   H790      1.0  0.22501  0.83156  0.46003  1.0000
  C   C1003     1.0  0.99426  0.69480  0.38812  1.0000
  C   C1004     1.0  0.16327  0.52682  0.25199  1.0000
  H   H791      1.0  0.27671  0.86666  0.45428  1.0000
  C   C1005     1.0  0.02788  0.81592  0.38482  1.0000
  S   S147      1.0  0.24050  0.92183  0.47426  1.0000
  C   C1006     1.0  0.24572  0.55788  0.25840  1.0000
  C   C1007     1.0  0.20045  0.94560  0.40521  1.0000
  H   H792      1.0  0.06864  0.87285  0.44023  1.0000
  H   H793      1.0  0.23025  0.87106  0.25331  1.0000
  H   H794      1.0  0.23547  0.89901  0.41795  1.0000
  C   C1008     1.0  0.01190  0.84478  0.42740  1.0000
  C   C1009     1.0  0.23253  0.92882  0.25271  1.0000
  C   C1010     1.0  0.01420  0.87146  0.29773  1.0000
  C   C1011     1.0  0.26419  0.91823  0.23341  1.0000
  C   C1012     1.0  0.98819  0.75073  0.45403  1.0000
  H   H795      1.0  0.40567  0.84343  0.24747  1.0000
  C   C1013     1.0  0.03683  0.93750  0.29556  1.0000
  C   C1014     1.0  0.27068  0.60192  0.47114  1.0000
  Fe  Fe74      1.0  0.20130  0.94467  0.47358  1.0000
  H   H796      1.0  0.36087  0.73245  0.46876  1.0000
  H   H797      1.0  0.00535  0.84588  0.29855  1.0000
  C   C1015     1.0  0.44156  0.68447  0.24372  1.0000
  H   H798      1.0  0.23931  0.98528  0.25047  1.0000
  C   C1016     1.0  0.03341  0.89871  0.24571  1.0000
  C   C1017     1.0  0.23615  0.80947  0.46500  1.0000
  H   H799      1.0  0.21381  0.97197  0.44037  1.0000
  C   C1018     1.0  0.09889  0.66357  0.46724  1.0000
  H   H800      1.0  0.44598  0.99383  0.26235  1.0000
  H   H801      1.0  0.28212  0.95007  0.40411  1.0000
  C   C1019     1.0  0.41903  0.84421  0.24049  1.0000
  C   C1020     1.0  0.24317  0.95832  0.24721  1.0000
  H   H802      1.0  0.22443  0.77040  0.45083  1.0000
  H   H803      1.0  0.01479  0.68793  0.35845  1.0000
  C   C1021     1.0  0.98410  0.69199  0.24867  1.0000
  H   H804      1.0  0.16209  0.96928  0.32871  1.0000
  H   H805      1.0  0.14622  0.65734  0.27567  1.0000
  C   C1022     1.0  0.13528  0.54604  0.23292  1.0000
  H   H806      1.0  0.14276  0.52858  0.28884  1.0000
  C   C1023     1.0  0.02062  0.84774  0.37779  1.0000
  C   C1024     1.0  0.08005  0.96556  0.26871  1.0000
  H   H807      1.0  0.17079  0.61142  0.26516  1.0000
  H   H808      1.0  0.31716  0.71397  0.46825  1.0000
  H   H809      1.0  0.04457  0.71354  0.24744  1.0000
  C   C1025     1.0  0.04200  0.87104  0.23826  1.0000
  C   C1026     1.0  0.00659  0.66410  0.39411  1.0000
  H   H810      1.0  0.15690  0.77647  0.43874  1.0000
  H   H811      1.0  0.11689  0.98689  0.26999  1.0000
  C   C1027     1.0  0.03329  0.92334  0.30775  1.0000
  C   C1028     1.0  0.99583  0.78391  0.37192  1.0000
  C   C1029     1.0  0.14446  0.55656  0.28609  1.0000
  C   C1030     1.0  0.24991  0.74650  0.46642  1.0000
  C   C1031     1.0  0.25411  0.88860  0.23931  1.0000
  C   C1032     1.0  0.21223  0.96139  0.38028  1.0000
  H   H812      1.0  0.99535  0.87243  0.36234  1.0000
  H   H813      1.0  0.20932  0.56872  0.28822  1.0000
  H   H814      1.0  0.03042  0.87218  0.38002  1.0000
  H   H815      1.0  0.08757  0.65872  0.45821  1.0000
  C   C1033     1.0  0.23574  0.77500  0.45988  1.0000
  C   C1034     1.0  0.13138  0.58289  0.29230  1.0000
  P   P31       1.0  0.00882  0.81186  0.46496  1.0000
  C   C1035     1.0  0.24662  0.90632  0.42671  1.0000
  H   H816      1.0  0.01888  0.87944  0.31823  1.0000
  H   H817      1.0  0.22029  0.93304  0.26016  1.0000
  C   C1036     1.0  0.01350  0.73228  0.23370  1.0000
  H   H818      1.0  0.04578  0.96299  0.29503  1.0000
  Fe  Fe75      1.0  0.21528  0.50077  0.47129  1.0000
  H   H819      1.0  0.24425  0.98699  0.38952  1.0000
  H   H820      1.0  0.11973  0.57501  0.29961  1.0000
  H   H821      1.0  0.08510  0.83027  0.26080  1.0000
  C   C1037     1.0  0.22153  0.54525  0.25802  1.0000
  C   C1038     1.0  0.07257  0.75167  0.47711  1.0000
  C   C1039     1.0  0.99974  0.74847  0.34406  1.0000
  H   H822      1.0  0.26785  0.57500  0.46753  1.0000
  C   C1040     1.0  0.09729  0.99271  0.27075  1.0000
  C   C1041     1.0  0.23810  0.89395  0.24882  1.0000
  C   C1042     1.0  0.00416  0.82881  0.43850  1.0000
  H   H823      1.0  0.37825  0.91263  0.25394  1.0000
  C   C1043     1.0  0.32814  0.87934  0.23576  1.0000
  C   C1044     1.0  0.07060  0.84931  0.25658  1.0000
  C   C1045     1.0  0.18473  0.93515  0.39443  1.0000
  C   C1046     1.0  0.14635  0.62930  0.27880  1.0000
  C   C1047     1.0  0.05380  0.77162  0.46942  1.0000
  H   H824      1.0  0.01703  0.75521  0.34971  1.0000
  S   S148      1.0  0.99558  0.71922  0.42190  1.0000
  C   C1048     1.0  0.15902  0.56655  0.27634  1.0000
  H   H825      1.0  0.23181  0.61745  0.46762  1.0000
  C   C1049     1.0  0.08377  0.85704  0.32686  1.0000
  C   C1050     1.0  0.07784  0.87875  0.33694  1.0000
  C   C1051     1.0  0.09446  0.88031  0.34820  1.0000
  C   C1052     1.0  0.11708  0.86036  0.34934  1.0000
  C   C1053     1.0  0.12340  0.83905  0.33913  1.0000
  C   C1054     1.0  0.10635  0.83693  0.32796  1.0000
  P   P32       1.0  0.15175  0.81141  0.34132  1.0000
  C   C1055     1.0  0.17651  0.83742  0.34913  1.0000
  C   C1056     1.0  0.14480  0.77265  0.35086  1.0000
  C   C1057     1.0  0.14720  0.77381  0.36442  1.0000
  C   C1058     1.0  0.14122  0.74400  0.37175  1.0000
  C   C1059     1.0  0.13244  0.71310  0.36561  1.0000
  C   C1060     1.0  0.12922  0.71218  0.35212  1.0000
  C   C1061     1.0  0.13500  0.74202  0.34476  1.0000
  C   C1062     1.0  0.19571  0.82075  0.35768  1.0000
  C   C1063     1.0  0.21529  0.84095  0.36333  1.0000
  C   C1064     1.0  0.21614  0.87769  0.36025  1.0000
  C   C1065     1.0  0.19743  0.89427  0.35148  1.0000
  C   C1066     1.0  0.17769  0.87423  0.34592  1.0000
  C   C1067     1.0  0.16287  0.79845  0.32632  1.0000
  C   C1068     1.0  0.16023  0.82238  0.31559  1.0000
  C   C1069     1.0  0.16965  0.81259  0.30414  1.0000
  C   C1070     1.0  0.18185  0.77909  0.30333  1.0000
  C   C1071     1.0  0.18523  0.75559  0.31410  1.0000
  C   C1072     1.0  0.17609  0.76541  0.32561  1.0000
  H   H826      1.0  0.07067  0.85532  0.31825  1.0000
  H   H827      1.0  0.06017  0.89382  0.33611  1.0000
  H   H828      1.0  0.08957  0.89632  0.35617  1.0000
  H   H829      1.0  0.12940  0.86091  0.35830  1.0000
  H   H830      1.0  0.11015  0.81936  0.32019  1.0000
  H   H831      1.0  0.15301  0.79797  0.36935  1.0000
  H   H832      1.0  0.14225  0.74537  0.38219  1.0000
  H   H833      1.0  0.12693  0.69056  0.37130  1.0000
  H   H834      1.0  0.12104  0.68903  0.34735  1.0000
  H   H835      1.0  0.13110  0.74144  0.33433  1.0000
  H   H836      1.0  0.19574  0.79210  0.35987  1.0000
  H   H837      1.0  0.23002  0.82794  0.36996  1.0000
  H   H838      1.0  0.23153  0.89315  0.36450  1.0000
  H   H839      1.0  0.19844  0.92252  0.34881  1.0000
  H   H840      1.0  0.16361  0.88728  0.33892  1.0000
  H   H841      1.0  0.15078  0.84849  0.31595  1.0000
  H   H842      1.0  0.16705  0.83078  0.29579  1.0000
  H   H843      1.0  0.18862  0.77141  0.29435  1.0000
  H   H844      1.0  0.19488  0.72973  0.31351  1.0000
  H   H845      1.0  0.17936  0.74713  0.33392  1.0000
  C   C1073     1.0  0.03501  0.86093  0.42803  1.0000
  C   C1074     1.0  0.02458  0.71292  0.24466  1.0000
  H   H846      1.0  0.03940  0.93801  0.31634  1.0000
  C   C1075     1.0  0.28659  0.97721  0.40693  1.0000
  H   H847      1.0  0.24994  0.72053  0.46198  1.0000
  H   H848      1.0  0.19538  0.93997  0.41483  1.0000
  C   C1076     1.0  0.25529  0.87911  0.43582  1.0000
  C   C1077     1.0  0.34901  0.94472  0.24291  1.0000
  C   C1078     1.0  0.19418  0.70035  0.44351  1.0000
  H   H849      1.0  0.14992  0.76145  0.46111  1.0000
  H   H850      1.0  0.25202  0.59093  0.28877  1.0000
  H   H851      1.0  0.25044  0.85143  0.43412  1.0000
  H   H852      1.0  0.01553  0.75225  0.32601  1.0000
  H   H853      1.0  0.08674  0.93904  0.26633  1.0000
  H   H854      1.0  0.05549  0.77554  0.45924  1.0000
  H   H855      1.0  0.21340  0.53292  0.24929  1.0000
  C   C1079     1.0  0.19012  0.69160  0.45623  1.0000
  C   C1080     1.0  0.20816  0.54894  0.26875  1.0000
  H   H856      1.0  0.41044  0.65093  0.23834  1.0000
  H   H857      1.0  0.20605  0.68285  0.43846  1.0000
  C   C1081     1.0  0.01558  0.78403  0.38193  1.0000
  C   C1082     1.0  0.02202  0.64247  0.38733  1.0000
  C   C1083     1.0  0.27015  0.88760  0.44716  1.0000
  P   P33       1.0  0.03243  0.93732  0.26845  1.0000
  H   H858      1.0  0.16786  0.92116  0.39577  1.0000
  H   H859      1.0  0.16143  0.87797  0.47499  1.0000
  H   H860      1.0  0.32193  0.97505  0.39911  1.0000
  C   C1084     1.0  0.24354  0.57810  0.28019  1.0000
  C   C1085     1.0  0.04333  0.90176  0.25870  1.0000
  H   H861      1.0  0.42804  0.78751  0.24245  1.0000
  H   H862      1.0  0.13896  0.57489  0.25054  1.0000
  C   C1086     1.0  0.29450  0.61227  0.47601  1.0000
  H   H863      1.0  0.17840  0.93482  0.37364  1.0000
  H   H864      1.0  0.03201  0.61916  0.39211  1.0000
  H   H865      1.0  0.05474  0.84643  0.45992  1.0000
  H   H866      1.0  0.18479  0.73708  0.42722  1.0000
  C   C1087     1.0  0.16248  0.74433  0.45632  1.0000
  C   C1088     1.0  0.04260  0.84571  0.45089  1.0000
  C   C1089     1.0  0.25913  0.95308  0.23769  1.0000
  C   C1090     1.0  0.36108  0.91228  0.24745  1.0000
  H   H867      1.0  0.12124  0.56491  0.22816  1.0000
  C   C1091     1.0  0.25108  0.81556  0.47654  1.0000
  H   H868      1.0  0.04121  0.87261  0.41938  1.0000
  C   C1092     1.0  0.99892  0.85164  0.47292  1.0000
  H   H869      1.0  0.13277  0.82692  0.47296  1.0000
  C   C1093     1.0  0.05043  0.86116  0.43975  1.0000
  P   P34       1.0  0.24171  0.97846  0.41767  1.0000
  H   H870      1.0  0.00567  0.74671  0.44996  1.0000
  H   H871      1.0  0.99111  0.84859  0.23874  1.0000
  H   H872      1.0  0.35662  0.97009  0.24606  1.0000
  C   C1094     1.0  0.01809  0.88522  0.28555  1.0000
  C   C1095     1.0  0.12192  0.67964  0.46712  1.0000
  C   C1096     1.0  0.99895  0.74691  0.33062  1.0000
  C   C1097     1.0  0.02488  0.65131  0.37448  1.0000
  C   C1098     1.0  0.00278  0.95545  0.26068  1.0000
  C   C1099     1.0  0.43184  0.81250  0.23763  1.0000
  C   C1100     1.0  0.00990  0.69276  0.25212  1.0000
  H   H873      1.0  0.35964  0.85435  0.24757  1.0000
  C   C1101     1.0  0.25672  0.57429  0.26948  1.0000
  C   C1102     1.0  0.32670  0.94462  0.23464  1.0000
  H   H874      1.0  0.21654  0.96816  0.37062  1.0000
  H   H875      1.0  0.27543  0.58416  0.26973  1.0000
  C   C1103     1.0  0.00096  0.84781  0.36782  1.0000
  C   C1104     1.0  0.98770  0.73152  0.23018  1.0000
  H   H876      1.0  0.03701  0.63472  0.36925  1.0000
  C   C1105     1.0  0.98412  0.78072  0.46158  1.0000
  S   S149      1.0  0.98872  0.78994  0.28157  1.0000
  H   H877      1.0  0.01233  0.86983  0.27708  1.0000
  P   P35       1.0  0.17678  0.53323  0.26844  1.0000
  C   C1106     1.0  0.01230  0.68177  0.36840  1.0000
  C   C1107     1.0  0.42056  0.67416  0.23572  1.0000
  H   H878      1.0  0.00460  0.65765  0.40415  1.0000
  H   H879      1.0  0.31021  0.59318  0.47630  1.0000
  H   H880      1.0  0.98615  0.81653  0.43783  1.0000
  H   H881      1.0  0.26779  0.97625  0.23383  1.0000
  H   H882      1.0  0.08867  0.74136  0.47282  1.0000
  C   C1108     1.0  0.98867  0.81601  0.36486  1.0000
  C   C1109     1.0  0.16719  0.98812  0.33631  1.0000
  C   C1110     1.0  0.00210  0.98431  0.25166  1.0000
  H   H883      1.0  0.27225  0.97818  0.44245  1.0000
  C   C1111     1.0  0.25362  0.66037  0.47623  1.0000
  H   H884      1.0  0.31733  0.97012  0.23150  1.0000
  H   H885      1.0  0.03400  0.86852  0.22831  1.0000
  C   C1112     1.0  0.44898  0.81316  0.22845  1.0000
  C   C1113     1.0  0.31629  0.91187  0.23085  1.0000
  H   H886      1.0  0.41270  0.90109  0.23610  1.0000
  H   H887      1.0  0.01915  0.99640  0.24949  1.0000
  H   H888      1.0  0.23746  0.67804  0.47675  1.0000
  C   C1114     1.0  0.32649  0.72480  0.47701  1.0000
  C   C1115     1.0  0.30919  0.99118  0.40414  1.0000
  H   H889      1.0  0.02101  0.53355  0.22957  1.0000
  C   C1116     1.0  0.42310  0.87669  0.23416  1.0000
  C   C1117     1.0  0.44719  0.73373  0.22867  1.0000
  S   S150      1.0  0.13613  0.99647  0.30198  1.0000
  C   C1118     1.0  0.35118  0.73537  0.47725  1.0000
  H   H890      1.0  0.02493  0.74809  0.22799  1.0000
  C   C1119     1.0  0.33505  0.82468  0.64303  1.0000
  C   C1120     1.0  0.30941  0.68805  0.64118  1.0000
  H   H891      1.0  0.33553  0.57117  0.62519  1.0000
  C   C1121     1.0  0.45722  0.69666  0.61349  1.0000
  C   C1122     1.0  0.47687  0.78113  0.64271  1.0000
  S   S151      1.0  0.26453  0.51719  0.51550  1.0000
  H   H892      1.0  0.43846  0.95690  0.71854  1.0000
  S   S152      1.0  0.24980  0.86206  0.50668  1.0000
  S   S153      1.0  0.19902  0.93521  0.49490  1.0000
  Fe  Fe76      1.0  0.36748  0.70578  0.56434  1.0000
  S   S154      1.0  0.39397  0.74800  0.55949  1.0000
  S   S155      1.0  0.35096  0.70225  0.58355  1.0000
  Fe  Fe77      1.0  0.36505  0.67213  0.53749  1.0000
  S   S156      1.0  0.39204  0.71207  0.53091  1.0000
  S   S157      1.0  0.35028  0.63308  0.52180  1.0000
  Fe  Fe78      1.0  0.41471  0.70344  0.55038  1.0000
  S   S158      1.0  0.45698  0.68976  0.55489  1.0000
  Fe  Fe79      1.0  0.36931  0.75354  0.54044  1.0000
  S   S159      1.0  0.35937  0.80896  0.53104  1.0000
  S   S160      1.0  0.38930  0.66025  0.55636  1.0000
  S   S161      1.0  0.34128  0.71451  0.54590  1.0000
  Fe  Fe80      1.0  0.39900  0.76602  0.65627  1.0000
  S   S162      1.0  0.36450  0.75864  0.66614  1.0000
  S   S163      1.0  0.40829  0.75908  0.63565  1.0000
  Fe  Fe81      1.0  0.42965  0.79070  0.68085  1.0000
  S   S164      1.0  0.39751  0.78436  0.69268  1.0000
  S   S165      1.0  0.47010  0.80764  0.68496  1.0000
  Fe  Fe82      1.0  0.39037  0.73171  0.68247  1.0000
  S   S166      1.0  0.37916  0.68266  0.69442  1.0000
  Fe  Fe83      1.0  0.37362  0.81150  0.67567  1.0000
  S   S167      1.0  0.34235  0.85265  0.67915  1.0000
  S   S168      1.0  0.42436  0.73632  0.67198  1.0000
  S   S169      1.0  0.40616  0.82070  0.66451  1.0000
  C   C1123     1.0  0.26390  0.75204  0.47842  1.0000
  C   C1124     1.0  0.01647  0.68297  0.72525  1.0000
  C   C1125     1.0  0.35697  0.50528  0.66311  1.0000
  H   H893      1.0  0.47343  0.70887  0.58299  1.0000
  C   C1126     1.0  0.31399  0.72806  0.48805  1.0000
  C   C1127     1.0  0.33205  0.97165  0.62379  1.0000
  H   H894      1.0  0.45439  0.82872  0.70988  1.0000
  C   C1128     1.0  0.33660  0.89859  0.67381  1.0000
  C   C1129     1.0  0.31733  0.91912  0.67858  1.0000
  C   C1130     1.0  0.31226  0.95562  0.67468  1.0000
  H   H895      1.0  0.41172  0.89655  0.65228  1.0000
  C   C1131     1.0  0.34542  0.95142  0.66101  1.0000
  C   C1132     1.0  0.35055  0.91502  0.66497  1.0000
  H   H896      1.0  0.30628  0.90671  0.68537  1.0000
  H   H897      1.0  0.29048  0.96719  0.59680  1.0000
  C   C1133     1.0  0.98473  0.91634  0.48401  1.0000
  H   H898      1.0  0.36520  0.89954  0.66115  1.0000
  C   C1134     1.0  0.38045  0.63424  0.69522  1.0000
  C   C1135     1.0  0.37015  0.61635  0.70534  1.0000
  C   C1136     1.0  0.37090  0.57825  0.70654  1.0000
  C   C1137     1.0  0.38212  0.55724  0.69765  1.0000
  C   C1138     1.0  0.39252  0.57511  0.68756  1.0000
  C   C1139     1.0  0.39167  0.61318  0.68632  1.0000
  H   H899      1.0  0.36145  0.63211  0.71232  1.0000
  H   H900      1.0  0.36257  0.56514  0.71427  1.0000
  H   H901      1.0  0.40119  0.55929  0.68058  1.0000
  H   H902      1.0  0.40002  0.62621  0.67859  1.0000
  C   C1140     1.0  0.39103  0.74439  0.62135  1.0000
  C   C1141     1.0  0.36696  0.73136  0.62107  1.0000
  C   C1142     1.0  0.35469  0.71880  0.60940  1.0000
  C   C1143     1.0  0.36640  0.71915  0.59798  1.0000
  C   C1144     1.0  0.39035  0.73234  0.59831  1.0000
  C   C1145     1.0  0.40244  0.74515  0.60989  1.0000
  H   H903      1.0  0.35791  0.73073  0.62981  1.0000
  H   H904      1.0  0.33616  0.70849  0.60922  1.0000
  H   H905      1.0  0.39960  0.73252  0.58964  1.0000
  H   H906      1.0  0.42085  0.75555  0.60996  1.0000
  C   C1146     1.0  0.28048  0.84803  0.51335  1.0000
  C   C1147     1.0  0.28404  0.81505  0.52031  1.0000
  C   C1148     1.0  0.30803  0.80254  0.52568  1.0000
  C   C1149     1.0  0.32881  0.82310  0.52419  1.0000
  C   C1150     1.0  0.32526  0.85615  0.51724  1.0000
  C   C1151     1.0  0.30124  0.86853  0.51180  1.0000
  H   H907      1.0  0.26807  0.79930  0.52169  1.0000
  H   H908      1.0  0.31039  0.77719  0.53106  1.0000
  H   H909      1.0  0.34118  0.87229  0.51604  1.0000
  H   H910      1.0  0.29880  0.89398  0.50646  1.0000
  C   C1152     1.0  0.28794  0.55011  0.51695  1.0000
  C   C1153     1.0  0.30074  0.56025  0.50658  1.0000
  C   C1154     1.0  0.31975  0.58552  0.50832  1.0000
  C   C1155     1.0  0.32601  0.60143  0.52035  1.0000
  C   C1156     1.0  0.31303  0.59156  0.53070  1.0000
  C   C1157     1.0  0.29420  0.56598  0.52901  1.0000
  H   H911      1.0  0.29624  0.54827  0.49727  1.0000
  H   H912      1.0  0.32982  0.59267  0.50029  1.0000
  H   H913      1.0  0.31771  0.60330  0.54004  1.0000
  H   H914      1.0  0.28450  0.55827  0.53712  1.0000
  C   C1158     1.0  0.10563  0.65802  0.49057  1.0000
  H   H915      1.0  0.33202  0.69632  0.67283  1.0000
  H   H916      1.0  0.29748  0.71963  0.65666  1.0000
  H   H917      1.0  0.38204  0.53981  0.63724  1.0000
  H   H918      1.0  0.07298  0.63999  0.47889  1.0000
  C   C1159     1.0  0.26394  0.70445  0.52958  1.0000
  P   P36       1.0  0.48255  0.75599  0.60502  1.0000
  C   C1160     1.0  0.30600  0.95950  0.60398  1.0000
  H   H919      1.0  0.20748  0.70016  0.50125  1.0000
  H   H920      1.0  0.36078  0.93182  0.63013  1.0000
  H   H921      1.0  0.01885  0.90881  0.49685  1.0000
  C   C1161     1.0  0.23055  0.95125  0.69419  1.0000
  C   C1162     1.0  0.44780  0.96632  0.69908  1.0000
  H   H922      1.0  0.41205  0.57443  0.65678  1.0000
  C   C1163     1.0  0.44260  0.78554  0.58800  1.0000
  C   C1164     1.0  0.33994  0.91726  0.61204  1.0000
  C   C1165     1.0  0.36175  0.90788  0.70546  1.0000
  C   C1166     1.0  0.46574  0.69658  0.59114  1.0000
  C   C1167     1.0  0.39961  0.93264  0.69889  1.0000
  C   C1168     1.0  0.44144  0.61165  0.65878  1.0000
  C   C1169     1.0  0.37498  0.62808  0.60404  1.0000
  H   H923      1.0  0.40865  0.95025  0.63745  1.0000
  H   H924      1.0  0.30155  0.77599  0.62035  1.0000
  H   H925      1.0  0.35457  0.89017  0.56347  1.0000
  H   H926      1.0  0.26558  0.93088  0.72463  1.0000
  C   C1170     1.0  0.34661  0.84748  0.63490  1.0000
  C   C1171     1.0  0.17928  0.96778  0.72459  1.0000
  C   C1172     1.0  0.46915  0.60301  0.71001  1.0000
  C   C1173     1.0  0.24108  0.97978  0.68804  1.0000
  H   H927      1.0  0.01441  0.78810  0.49212  1.0000
  C   C1174     1.0  0.46382  0.52560  0.71604  1.0000
  H   H928      1.0  0.45803  0.70877  0.62286  1.0000
  C   C1175     1.0  0.41182  0.98810  0.65277  1.0000
  H   H929      1.0  0.36336  0.96071  0.69716  1.0000
  C   C1176     1.0  0.34840  0.66228  0.65937  1.0000
  H   H930      1.0  0.36130  0.78112  0.57831  1.0000
  H   H931      1.0  0.20030  0.57698  0.48414  1.0000
  H   H932      1.0  0.43688  0.65183  0.61968  1.0000
  C   C1177     1.0  0.18861  0.66725  0.48649  1.0000
  C   C1178     1.0  0.45061  0.52114  0.70380  1.0000
  H   H933      1.0  0.32053  0.81736  0.60589  1.0000
  H   H934      1.0  0.35398  0.60434  0.58779  1.0000
  H   H935      1.0  0.14036  0.67711  0.49957  1.0000
  H   H936      1.0  0.99558  0.80417  0.72512  1.0000
  H   H937      1.0  0.48066  0.83353  0.60912  1.0000
  C   C1179     1.0  0.41706  0.60172  0.65475  1.0000
  H   H938      1.0  0.24558  0.97017  0.60536  1.0000
  S   S170      1.0  0.20572  0.50028  0.49174  1.0000
  C   C1180     1.0  0.31110  0.70007  0.65386  1.0000
  C   C1181     1.0  0.33052  0.68699  0.66297  1.0000
  C   C1182     1.0  0.34706  0.53702  0.66773  1.0000
  C   C1183     1.0  0.27760  0.67153  0.48071  1.0000
  H   H939      1.0  0.18008  0.98260  0.71558  1.0000
  C   C1184     1.0  0.42704  0.81395  0.58243  1.0000
  C   C1185     1.0  0.44784  0.62192  0.70397  1.0000
  C   C1186     1.0  0.41243  0.89970  0.70252  1.0000
  C   C1187     1.0  0.07048  0.74508  0.49019  1.0000
  C   C1188     1.0  0.15275  0.79460  0.49840  1.0000
  H   H940      1.0  0.31686  0.74736  0.50770  1.0000
  C   C1189     1.0  0.35982  0.80980  0.57995  1.0000
  H   H941      1.0  0.44291  0.54424  0.69798  1.0000
  C   C1190     1.0  0.36485  0.60965  0.62531  1.0000
  H   H942      1.0  0.39344  0.82930  0.62770  1.0000
  C   C1191     1.0  0.32684  0.66238  0.63767  1.0000
  C   C1192     1.0  0.31947  0.92702  0.60291  1.0000
  C   C1193     1.0  0.35724  0.60522  0.59825  1.0000
  H   H943      1.0  0.27623  0.79243  0.49223  1.0000
  H   H944      1.0  0.23527  0.65051  0.51118  1.0000
  C   C1194     1.0  0.34633  0.64894  0.64681  1.0000
  H   H945      1.0  0.41867  0.87102  0.58204  1.0000
  H   H946      1.0  0.35648  0.96377  0.65423  1.0000
  H   H947      1.0  0.36490  0.85297  0.71271  1.0000
  C   C1195     1.0  0.42745  0.85776  0.62973  1.0000
  C   C1196     1.0  0.45332  0.95933  0.71245  1.0000
  C   C1197     1.0  0.32622  0.97203  0.66580  1.0000
  C   C1198     1.0  0.17536  0.81211  0.49898  1.0000
  H   H948      1.0  0.43719  0.83729  0.63617  1.0000
  C   C1199     1.0  0.48181  0.66870  0.52490  1.0000
  C   C1200     1.0  0.44999  0.64926  0.69476  1.0000
  C   C1201     1.0  0.19318  0.76290  0.48776  1.0000
  C   C1202     1.0  0.40247  0.85343  0.62503  1.0000
  C   C1203     1.0  0.47332  0.83685  0.70950  1.0000
  C   C1204     1.0  0.12868  0.67407  0.49051  1.0000
  H   H949      1.0  0.03199  0.85289  0.48684  1.0000
  C   C1205     1.0  0.46785  0.63835  0.52655  1.0000
  H   H950      1.0  0.13694  0.80736  0.50226  1.0000
  H   H951      1.0  0.31647  0.65374  0.48502  1.0000
  P   P37       1.0  0.35698  0.87485  0.61107  1.0000
  C   C1206     1.0  0.20188  0.60392  0.48786  1.0000
  C   C1207     1.0  0.20599  0.67368  0.49723  1.0000
  C   C1208     1.0  0.27407  0.71119  0.50380  1.0000
  C   C1209     1.0  0.24973  0.72875  0.52105  1.0000
  C   C1210     1.0  0.35082  0.75396  0.49935  1.0000
  H   H952      1.0  0.33843  0.82734  0.65341  1.0000
  C   C1211     1.0  0.32619  0.74338  0.49916  1.0000
  C   C1212     1.0  0.28794  0.68639  0.51238  1.0000
  H   H953      1.0  0.43641  0.93824  0.61506  1.0000
  C   C1213     1.0  0.28300  0.68325  0.52523  1.0000
  H   H954      1.0  0.43345  0.66439  0.69044  1.0000
  H   H955      1.0  0.45904  0.89166  0.62993  1.0000
  C   C1214     1.0  0.31414  0.79595  0.62441  1.0000
  H   H956      1.0  0.29430  0.66471  0.53185  1.0000
  H   H957      1.0  0.30301  0.67002  0.50923  1.0000
  H   H958      1.0  0.32928  0.56711  0.60142  1.0000
  C   C1215     1.0  0.46562  0.82768  0.60175  1.0000
  C   C1216     1.0  0.35592  0.87127  0.57163  1.0000
  C   C1217     1.0  0.34966  0.57003  0.66139  1.0000
  H   H959      1.0  0.39358  0.68259  0.64171  1.0000
  H   H960      1.0  0.20878  0.75138  0.48339  1.0000
  H   H961      1.0  0.26041  0.70229  0.53960  1.0000
  H   H962      1.0  0.14053  0.95611  0.71981  1.0000
  C   C1218     1.0  0.44295  0.64815  0.59965  1.0000
  C   C1219     1.0  0.42690  0.91459  0.61787  1.0000
  C   C1220     1.0  0.21963  0.61064  0.49830  1.0000
  H   H963      1.0  0.21293  0.81024  0.49400  1.0000
  C   C1221     1.0  0.41082  0.95354  0.64778  1.0000
  C   C1222     1.0  0.25228  0.51102  0.56706  1.0000
  H   H964      1.0  0.46194  0.78781  0.64851  1.0000
  S   S171      1.0  0.38321  0.50889  0.69838  1.0000
  H   H965      1.0  0.45471  0.59217  0.66384  1.0000
  C   C1223     1.0  0.18640  0.63200  0.48200  1.0000
  H   H966      1.0  0.46836  0.76177  0.54490  1.0000
  H   H967      1.0  0.41221  0.80873  0.57486  1.0000
  H   H968      1.0  0.46888  0.58086  0.52960  1.0000
  H   H969      1.0  0.46382  0.97416  0.68110  1.0000
  H   H970      1.0  0.34234  0.59408  0.66546  1.0000
  C   C1224     1.0  0.41241  0.92339  0.65614  1.0000
  P   P38       1.0  0.41567  0.96867  0.69180  1.0000
  C   C1225     1.0  0.35690  0.85912  0.59475  1.0000
  C   C1226     1.0  0.43075  0.84914  0.58645  1.0000
  H   H971      1.0  0.39205  0.93097  0.60682  1.0000
  C   C1227     1.0  0.46184  0.79213  0.59784  1.0000
  C   C1228     1.0  0.25481  0.73225  0.50821  1.0000
  H   H972      1.0  0.36353  0.65306  0.66651  1.0000
  H   H973      1.0  0.43949  0.75866  0.58453  1.0000
  C   C1229     1.0  0.41419  0.92780  0.66951  1.0000
  C   C1230     1.0  0.44500  0.66423  0.61171  1.0000
  C   C1231     1.0  0.41447  0.96251  0.67459  1.0000
  H   H974      1.0  0.45150  0.65221  0.57994  1.0000
  H   H975      1.0  0.02814  0.56073  0.72170  1.0000
  C   C1232     1.0  0.43968  0.88837  0.62621  1.0000
  H   H976      1.0  0.09951  0.64897  0.49961  1.0000
  H   H977      1.0  0.24386  0.75170  0.50190  1.0000
  C   C1233     1.0  0.36020  0.82217  0.59255  1.0000
  C   C1234     1.0  0.34328  0.58447  0.60593  1.0000
  H   H978      1.0  0.38247  0.75805  0.48868  1.0000
  S   S172      1.0  0.25444  0.96973  0.49973  1.0000
  C   C1235     1.0  0.31230  0.98181  0.61441  1.0000
  Fe  Fe84      1.0  0.23922  0.91528  0.49568  1.0000
  H   H979      1.0  0.35725  0.82462  0.55969  1.0000
  H   H980      1.0  0.28550  0.53824  0.57419  1.0000
  H   H981      1.0  0.47501  0.67929  0.68436  1.0000
  C   C1236     1.0  0.36336  0.74982  0.48844  1.0000
  H   H982      1.0  0.29447  0.69837  0.63408  1.0000
  C   C1237     1.0  0.47973  0.60426  0.52805  1.0000
  H   H983      1.0  0.33814  0.53614  0.67655  1.0000
  C   C1238     1.0  0.39951  0.62704  0.64846  1.0000
  C   C1239     1.0  0.45332  0.66434  0.58937  1.0000
  C   C1240     1.0  0.43143  0.67185  0.65000  1.0000
  H   H984      1.0  0.45228  0.77812  0.62511  1.0000
  P   P39       1.0  0.36820  0.61428  0.64268  1.0000
  H   H985      1.0  0.39172  0.64967  0.62161  1.0000
  H   H986      1.0  0.35889  0.86750  0.63918  1.0000
  C   C1241     1.0  0.40005  0.87141  0.70774  1.0000
  H   H987      1.0  0.42951  0.61601  0.70653  1.0000
  H   H988      1.0  0.44791  0.64148  0.52703  1.0000
  C   C1242     1.0  0.29797  0.64682  0.48086  1.0000
  P   P40       1.0  0.28182  0.71574  0.48744  1.0000
  C   C1243     1.0  0.36921  0.50638  0.65200  1.0000
  H   H989      1.0  0.98835  0.85956  0.71171  1.0000
  H   H990      1.0  0.08501  0.72952  0.49612  1.0000
  C   C1244     1.0  0.36231  0.57156  0.65033  1.0000
  H   H991      1.0  0.23183  0.58879  0.50271  1.0000
  H   H992      1.0  0.17721  0.83825  0.50338  1.0000
  C   C1245     1.0  0.22642  0.95365  0.70717  1.0000
  H   H993      1.0  0.36277  0.80273  0.60055  1.0000
  Fe  Fe85      1.0  0.21449  0.99077  0.49748  1.0000
  C   C1246     1.0  0.38932  0.88008  0.61699  1.0000
  H   H994      1.0  0.36015  0.76554  0.50799  1.0000
  C   C1247     1.0  0.23276  0.98471  0.71412  1.0000
  C   C1248     1.0  0.37190  0.53935  0.64563  1.0000
  H   H995      1.0  0.23515  0.74556  0.52445  1.0000
  C   C1249     1.0  0.44868  0.64663  0.65631  1.0000
  C   C1250     1.0  0.35754  0.83430  0.56947  1.0000
  C   C1251     1.0  0.40682  0.66238  0.64633  1.0000
  H   H996      1.0  0.32496  0.65322  0.62782  1.0000
  H   H997      1.0  0.38523  0.64493  0.59802  1.0000
  C   C1252     1.0  0.13692  0.68527  0.47879  1.0000
  C   C1253     1.0  0.34699  0.58673  0.61941  1.0000
  C   C1254     1.0  0.22160  0.64549  0.50302  1.0000
  H   H998      1.0  0.23974  0.53287  0.56925  1.0000
  C   C1255     1.0  0.37866  0.63057  0.61749  1.0000
  P   P41       1.0  0.16775  0.70275  0.47897  1.0000
  H   H999      1.0  0.31040  0.78080  0.64420  1.0000
  C   C1256     1.0  0.31909  0.79861  0.63782  1.0000
  H   H1000     1.0  0.29746  0.97096  0.67848  1.0000
  C   C1257     1.0  0.19554  0.79628  0.49366  1.0000
  C   C1258     1.0  0.32531  0.81919  0.61622  1.0000
  C   C1259     1.0  0.35585  0.88371  0.58422  1.0000
  H   H1001     1.0  0.43320  0.62329  0.59821  1.0000
  C   C1260     1.0  0.99310  0.69940  0.72631  1.0000
  C   C1261     1.0  0.34228  0.84442  0.62141  1.0000
  C   C1262     1.0  0.40179  0.91045  0.61325  1.0000
  H   H1002     1.0  0.43194  0.89559  0.70118  1.0000
  H   H1003     1.0  0.31370  0.90944  0.59505  1.0000
  C   C1263     1.0  0.15034  0.76112  0.49255  1.0000
  C   C1264     1.0  0.37406  0.93633  0.70027  1.0000
  H   H1004     1.0  0.22560  0.92728  0.68889  1.0000
  H   H1005     1.0  0.43704  0.69901  0.64809  1.0000
  H   H1006     1.0  0.04763  0.75256  0.50565  1.0000
  H   H1007     1.0  0.35488  0.91246  0.58569  1.0000
  C   C1265     1.0  0.46748  0.96895  0.69141  1.0000
  C   C1266     1.0  0.34586  0.93954  0.62262  1.0000
  Fe  Fe86      1.0  0.25225  0.97849  0.47823  1.0000
  H   H1008     1.0  0.25176  0.84236  0.48044  1.0000
  H   H1009     1.0  0.21845  0.93113  0.71182  1.0000
  H   H1010     1.0  0.13244  0.74869  0.49182  1.0000
  H   H1011     1.0  0.34191  0.91051  0.70615  1.0000
  C   C1267     1.0  0.15675  0.95287  0.72697  1.0000
  H   H1012     1.0  0.41491  0.90410  0.67581  1.0000
  H   H1013     1.0  0.41000  0.84607  0.71045  1.0000
  H   H1014     1.0  0.46758  0.65432  0.65936  1.0000
  C   C1268     1.0  0.37470  0.87541  0.70915  1.0000
  H   H1015     1.0  0.01769  0.65838  0.71993  1.0000
  C   C1269     1.0  0.17071  0.74475  0.48736  1.0000
  P   P42       1.0  0.46637  0.56991  0.72274  1.0000
  C   C1270     1.0  0.04946  0.75820  0.49556  1.0000
  C   C1271     1.0  0.27806  0.51403  0.56986  1.0000
  C   C1272     1.0  0.26491  0.78707  0.48322  1.0000
  C   C1273     1.0  0.46767  0.71318  0.60319  1.0000
  C   C1274     1.0  0.09071  0.65285  0.47893  1.0000
  C   C1275     1.0  0.00700  0.89797  0.48885  1.0000
  C   C1276     1.0  0.45023  0.85605  0.59599  1.0000
  C   C1277     1.0  0.03075  0.77844  0.48789  1.0000
  H   H1016     1.0  0.24428  0.97806  0.67797  1.0000
  C   C1278     1.0  0.47143  0.77528  0.62948  1.0000
  C   C1279     1.0  0.41393  0.99259  0.66612  1.0000
  H   H1017     1.0  0.21469  0.98293  0.54396  1.0000
  C   C1280     1.0  0.47810  0.95416  0.71797  1.0000
  C   C1281     1.0  0.47341  0.65760  0.69133  1.0000
  H   H1018     1.0  0.45352  0.88343  0.59886  1.0000
  H   H1019     1.0  0.05454  0.61253  0.72777  1.0000
  H   H1020     1.0  0.47263  0.69524  0.52420  1.0000
  H   H1021     1.0  0.33637  0.98848  0.63209  1.0000
  C   C1282     1.0  0.01425  0.86595  0.48325  1.0000
  H   H1022     1.0  0.30158  0.90039  0.73746  1.0000
  H   H1023     1.0  0.20374  0.52884  0.88847  1.0000
  S   S173      1.0  0.23854  0.54034  0.96291  1.0000
  C   C1283     1.0  0.29030  0.92013  0.74194  1.0000
  H   H1024     1.0  0.46476  0.54887  0.76226  1.0000
  S   S174      1.0  0.24287  0.95070  0.96560  1.0000
  Fe  Fe87      1.0  0.10051  0.70972  0.91824  1.0000
  S   S175      1.0  0.11118  0.75813  0.90711  1.0000
  S   S176      1.0  0.12900  0.66253  0.91949  1.0000
  Fe  Fe88      1.0  0.04939  0.74450  0.92168  1.0000
  S   S177      1.0  0.05743  0.79591  0.91120  1.0000
  S   S178      1.0  0.01310  0.72933  0.92989  1.0000
  Fe  Fe89      1.0  0.07247  0.75904  0.89675  1.0000
  S   S179      1.0  0.06180  0.77336  0.87534  1.0000
  Fe  Fe90      1.0  0.09604  0.79148  0.92240  1.0000
  S   S180      1.0  0.12288  0.83778  0.92663  1.0000
  S   S181      1.0  0.06273  0.70829  0.90664  1.0000
  S   S182      1.0  0.08711  0.74258  0.93413  1.0000
  Fe  Fe91      1.0  0.07029  0.69096  0.80416  1.0000
  S   S183      1.0  0.09941  0.70307  0.79075  1.0000
  S   S184      1.0  0.07777  0.67999  0.82600  1.0000
  Fe  Fe92      1.0  0.03082  0.67409  0.78161  1.0000
  S   S185      1.0  0.05706  0.68460  0.76693  1.0000
  C   C1284     1.0  0.25509  0.96331  0.74038  1.0000
  Fe  Fe93      1.0  0.08623  0.65302  0.78039  1.0000
  S   S186      1.0  0.11073  0.60921  0.77212  1.0000
  Fe  Fe94      1.0  0.06795  0.73406  0.77833  1.0000
  S   S187      1.0  0.06562  0.78646  0.76559  1.0000
  S   S188      1.0  0.05906  0.63976  0.79426  1.0000
  S   S189      1.0  0.03980  0.72466  0.79251  1.0000
  S   S190      1.0  0.10716  0.94727  0.76218  1.0000
  H   H1025     1.0  0.44485  0.63746  0.73154  1.0000
  C   C1285     1.0  0.03644  0.72946  0.73817  1.0000
  C   C1286     1.0  0.11992  0.56540  0.77887  1.0000
  C   C1287     1.0  0.13182  0.54029  0.77141  1.0000
  C   C1288     1.0  0.23673  0.80228  0.95331  1.0000
  H   H1026     1.0  0.48236  0.94761  0.72820  1.0000
  C   C1289     1.0  0.14038  0.50594  0.77659  1.0000
  C   C1290     1.0  0.11639  0.55540  0.79154  1.0000
  H   H1027     1.0  0.13468  0.54765  0.76160  1.0000
  H   H1028     1.0  0.18993  0.63184  0.74060  1.0000
  C   C1291     1.0  0.03813  0.69801  0.73117  1.0000
  H   H1029     1.0  0.10739  0.57432  0.79744  1.0000
  C   C1292     1.0  0.07739  0.83117  0.76496  1.0000
  C   C1293     1.0  0.09517  0.84399  0.77448  1.0000
  C   C1294     1.0  0.10391  0.87939  0.77343  1.0000
  C   C1295     1.0  0.09506  0.90279  0.76291  1.0000
  C   C1296     1.0  0.07724  0.89001  0.75340  1.0000
  C   C1297     1.0  0.06855  0.85456  0.75442  1.0000
  H   H1030     1.0  0.10227  0.82660  0.78263  1.0000
  H   H1031     1.0  0.11767  0.88876  0.78086  1.0000
  H   H1032     1.0  0.07021  0.90739  0.74523  1.0000
  H   H1033     1.0  0.05487  0.84516  0.74697  1.0000
  C   C1298     1.0  0.06632  0.74688  0.86176  1.0000
  C   C1299     1.0  0.06133  0.76271  0.84929  1.0000
  C   C1300     1.0  0.06473  0.74275  0.83822  1.0000
  C   C1301     1.0  0.07318  0.70669  0.83953  1.0000
  C   C1302     1.0  0.07810  0.69087  0.85201  1.0000
  C   C1303     1.0  0.07459  0.71077  0.86307  1.0000
  H   H1034     1.0  0.05493  0.79065  0.84818  1.0000
  H   H1035     1.0  0.06092  0.75529  0.82869  1.0000
  H   H1036     1.0  0.08459  0.66297  0.85312  1.0000
  H   H1037     1.0  0.07823  0.69816  0.87259  1.0000
  C   C1304     1.0  0.16190  0.89746  0.96149  1.0000
  C   C1305     1.0  0.14141  0.87587  0.96304  1.0000
  C   C1306     1.0  0.12980  0.85633  0.95266  1.0000
  C   C1307     1.0  0.13815  0.85885  0.94046  1.0000
  C   C1308     1.0  0.15873  0.88023  0.93891  1.0000
  C   C1309     1.0  0.17067  0.89915  0.94936  1.0000
  H   H1038     1.0  0.02839  0.58524  0.81435  1.0000
  H   H1039     1.0  0.11383  0.84044  0.95400  1.0000
  H   H1040     1.0  0.16532  0.88258  0.92952  1.0000
  H   H1041     1.0  0.18640  0.91552  0.94798  1.0000
  C   C1310     1.0  0.15892  0.59798  0.95669  1.0000
  C   C1311     1.0  0.13721  0.62028  0.95637  1.0000
  C   C1312     1.0  0.12763  0.63990  0.94503  1.0000
  C   C1313     1.0  0.13945  0.63692  0.93381  1.0000
  C   C1314     1.0  0.16065  0.61368  0.93399  1.0000
  C   C1315     1.0  0.17050  0.59457  0.94541  1.0000
  H   H1042     1.0  0.12793  0.62287  0.96499  1.0000
  H   H1043     1.0  0.11124  0.65750  0.94499  1.0000
  H   H1044     1.0  0.16983  0.61103  0.92534  1.0000
  H   H1045     1.0  0.18710  0.57732  0.94549  1.0000
  H   H1046     1.0  0.99402  0.61509  0.86344  1.0000
  C   C1316     1.0  0.18042  0.78890  0.91615  1.0000
  C   C1317     1.0  0.18091  0.75934  0.90812  1.0000
  C   C1318     1.0  0.20125  0.73474  0.90967  1.0000
  C   C1319     1.0  0.22085  0.73925  0.91946  1.0000
  C   C1320     1.0  0.21983  0.76779  0.92806  1.0000
  C   C1321     1.0  0.19997  0.79354  0.92593  1.0000
  P   P43       1.0  0.24532  0.77342  0.94067  1.0000
  C   C1322     1.0  0.03494  0.56469  0.73175  1.0000
  C   C1323     1.0  0.25679  0.73172  0.94890  1.0000
  C   C1324     1.0  0.24343  0.69997  0.94748  1.0000
  C   C1325     1.0  0.28502  0.54960  0.74909  1.0000
  C   C1326     1.0  0.27551  0.66769  0.96192  1.0000
  C   C1327     1.0  0.28841  0.69946  0.96378  1.0000
  C   C1328     1.0  0.27915  0.73131  0.95726  1.0000
  C   C1329     1.0  0.25300  0.66795  0.95380  1.0000
  H   H1047     1.0  0.22561  0.69972  0.94161  1.0000
  P   P44       1.0  0.03093  0.51345  0.76667  1.0000
  C   C1330     1.0  0.30680  0.82675  0.92044  1.0000
  C   C1331     1.0  0.21026  0.50689  0.89517  1.0000
  C   C1332     1.0  0.26946  0.79397  0.93273  1.0000
  C   C1333     1.0  0.26737  0.83090  0.92941  1.0000
  C   C1334     1.0  0.28609  0.84726  0.92338  1.0000
  C   C1335     1.0  0.21268  0.80171  0.95715  1.0000
  C   C1336     1.0  0.30871  0.78979  0.92343  1.0000
  C   C1337     1.0  0.29004  0.77336  0.92950  1.0000
  H   H1048     1.0  0.16463  0.80800  0.91494  1.0000
  H   H1049     1.0  0.16543  0.75546  0.90075  1.0000
  H   H1050     1.0  0.20163  0.71192  0.90337  1.0000
  H   H1051     1.0  0.23666  0.72020  0.92041  1.0000
  H   H1052     1.0  0.19929  0.81717  0.93181  1.0000
  H   H1053     1.0  0.05626  0.68521  0.73046  1.0000
  H   H1054     1.0  0.32137  0.83955  0.91583  1.0000
  H   H1055     1.0  0.01651  0.71368  0.83453  1.0000
  H   H1056     1.0  0.12241  0.51403  0.80660  1.0000
  H   H1057     1.0  0.28946  0.75563  0.95871  1.0000
  C   C1338     1.0  0.17526  0.69465  0.94915  1.0000
  C   C1339     1.0  0.04293  0.62910  0.89607  1.0000
  C   C1340     1.0  0.00881  0.55660  0.78416  1.0000
  C   C1341     1.0  0.16683  0.72364  0.94088  1.0000
  C   C1342     1.0  0.19061  0.61493  0.74926  1.0000
  H   H1058     1.0  0.25140  0.84719  0.93162  1.0000
  H   H1059     1.0  0.28459  0.87594  0.92108  1.0000
  H   H1060     1.0  0.38613  0.54107  0.73873  1.0000
  C   C1343     1.0  0.15481  0.93513  0.73875  1.0000
  H   H1061     1.0  0.29176  0.74465  0.93164  1.0000
  H   H1062     1.0  0.43178  0.50686  0.75456  1.0000
  C   C1344     1.0  0.01083  0.69226  0.84068  1.0000
  H   H1063     1.0  0.01801  0.80049  0.88788  1.0000
  S   S191      1.0  0.17588  0.92122  0.97502  1.0000
  H   H1064     1.0  0.01228  0.76971  0.74510  1.0000
  C   C1345     1.0  0.01312  0.74577  0.73936  1.0000
  H   H1065     1.0  0.17360  0.91909  0.75740  1.0000
  H   H1066     1.0  0.00929  0.64251  0.75335  1.0000
  C   C1346     1.0  0.00887  0.62867  0.84576  1.0000
  C   C1347     1.0  0.03012  0.53615  0.78181  1.0000
  H   H1067     1.0  0.10469  0.71410  0.96072  1.0000
  H   H1068     1.0  0.01030  0.98862  0.73912  1.0000
  H   H1069     1.0  0.21346  0.57342  0.74199  1.0000
  H   H1070     1.0  0.04885  0.61539  0.91643  1.0000
  H   H1071     1.0  0.18545  0.67212  0.94555  1.0000
  H   H1072     1.0  0.99290  0.56000  0.77687  1.0000
  C   C1348     1.0  0.29632  0.92815  0.75495  1.0000
  H   H1073     1.0  0.03347  0.64860  0.87662  1.0000
  C   C1349     1.0  0.20560  0.82588  0.96627  1.0000
  H   H1074     1.0  0.06653  0.55049  0.81012  1.0000
  C   C1350     1.0  0.20478  0.55961  0.76126  1.0000
  C   C1351     1.0  0.28178  0.95363  0.76072  1.0000
  C   C1352     1.0  0.99796  0.63686  0.85696  1.0000
  H   H1075     1.0  0.17092  0.52434  0.74604  1.0000
  C   C1353     1.0  0.15309  0.75221  0.94542  1.0000
  C   C1354     1.0  0.19180  0.57102  0.77149  1.0000
  H   H1076     1.0  0.01946  0.73437  0.88651  1.0000
  H   H1077     1.0  0.06066  0.61706  0.89413  1.0000
  C   C1355     1.0  0.01544  0.65639  0.83766  1.0000
  C   C1356     1.0  0.05018  0.55150  0.80300  1.0000
  H   H1078     1.0  0.40566  0.65215  0.74067  1.0000
  C   C1357     1.0  0.39373  0.59741  0.74062  1.0000
  H   H1079     1.0  0.37631  0.60406  0.74441  1.0000
  H   H1080     1.0  0.31224  0.91460  0.76056  1.0000
  H   H1081     1.0  0.28272  0.64297  0.96695  1.0000
  C   C1358     1.0  0.00431  0.66296  0.88858  1.0000
  C   C1359     1.0  0.24723  0.84870  0.96891  1.0000
  C   C1360     1.0  0.26306  0.54797  0.75500  1.0000
  H   H1082     1.0  0.02474  0.65026  0.82922  1.0000
  C   C1361     1.0  0.25420  0.82529  0.95952  1.0000
  C   C1362     1.0  0.16897  0.69327  0.96178  1.0000
  C   C1363     1.0  0.00169  0.78695  0.88365  1.0000
  C   C1364     1.0  0.19814  0.94664  0.74576  1.0000
  C   C1365     1.0  0.12500  0.52113  0.79673  1.0000
  C   C1366     1.0  0.20028  0.96435  0.73389  1.0000
  C   C1367     1.0  0.02726  0.64695  0.88611  1.0000
  H   H1083     1.0  0.05079  0.65159  0.97739  1.0000
  C   C1368     1.0  0.03632  0.62819  0.90865  1.0000
  H   H1084     1.0  0.25829  0.56953  0.76122  1.0000
  H   H1085     1.0  0.16667  0.65102  0.75871  1.0000
  H   H1086     1.0  0.14632  0.77450  0.93893  1.0000
  C   C1369     1.0  0.00024  0.70059  0.85194  1.0000
  C   C1370     1.0  0.01414  0.64545  0.91131  1.0000
  H   H1087     1.0  0.16772  0.61211  0.77833  1.0000
  H   H1088     1.0  0.17464  0.66950  0.96769  1.0000
  Fe  Fe95      1.0  0.20638  0.53923  0.97476  1.0000
  H   H1089     1.0  0.01793  0.51761  0.73845  1.0000
  H   H1090     1.0  0.19911  0.78353  0.95281  1.0000
  C   C1371     1.0  0.00244  0.74938  0.88288  1.0000
  S   S192      1.0  0.17138  0.57626  0.97152  1.0000
  C   C1372     1.0  0.09922  0.69981  0.96903  1.0000
  H   H1091     1.0  0.05320  0.74098  0.74290  1.0000
  C   C1373     1.0  0.22950  0.50009  0.77818  1.0000
  H   H1092     1.0  0.28641  0.95981  0.77081  1.0000
  C   C1374     1.0  0.21006  0.51124  0.90846  1.0000
  H   H1093     1.0  0.32472  0.77389  0.92108  1.0000
  C   C1375     1.0  0.24774  0.51822  0.75318  1.0000
  C   C1376     1.0  0.17761  0.62585  0.75945  1.0000
  C   C1377     1.0  0.43834  0.58033  0.73020  1.0000
  C   C1378     1.0  0.26126  0.97117  0.75347  1.0000
  H   H1094     1.0  0.27313  0.82568  0.95704  1.0000
  C   C1379     1.0  0.02902  0.54044  0.74130  1.0000
  C   C1380     1.0  0.46965  0.52078  0.76093  1.0000
  H   H1095     1.0  0.21370  0.94452  0.75328  1.0000
  H   H1096     1.0  0.17019  0.72327  0.93085  1.0000
  H   H1097     1.0  0.22228  0.64630  0.97700  1.0000
  C   C1381     1.0  0.17177  0.67899  0.87740  1.0000
  C   C1382     1.0  0.15200  0.67071  0.88440  1.0000
  C   C1383     1.0  0.13243  0.69593  0.88500  1.0000
  C   C1384     1.0  0.13280  0.72975  0.87886  1.0000
  C   C1385     1.0  0.15314  0.73896  0.87236  1.0000
  C   C1386     1.0  0.17226  0.71288  0.87130  1.0000
  P   P45       1.0  0.15399  0.78327  0.86490  1.0000
  C   C1387     1.0  0.13919  0.81515  0.87481  1.0000
  C   C1388     1.0  0.18606  0.79528  0.86429  1.0000
  C   C1389     1.0  0.19312  0.81374  0.85344  1.0000
  C   C1390     1.0  0.21791  0.82320  0.85310  1.0000
  C   C1391     1.0  0.23583  0.81438  0.86357  1.0000
  C   C1392     1.0  0.22900  0.79601  0.87440  1.0000
  C   C1393     1.0  0.20425  0.78645  0.87476  1.0000
  C   C1394     1.0  0.15296  0.83143  0.88527  1.0000
  C   C1395     1.0  0.14091  0.85371  0.89348  1.0000
  C   C1396     1.0  0.11509  0.85980  0.89138  1.0000
  C   C1397     1.0  0.10133  0.84422  0.88090  1.0000
  C   C1398     1.0  0.11331  0.82206  0.87264  1.0000
  C   C1399     1.0  0.13762  0.78336  0.84875  1.0000
  C   C1400     1.0  0.13471  0.75111  0.84203  1.0000
  C   C1401     1.0  0.12285  0.75154  0.82936  1.0000
  C   C1402     1.0  0.11353  0.78400  0.82335  1.0000
  C   C1403     1.0  0.11624  0.81620  0.82998  1.0000
  C   C1404     1.0  0.12831  0.81595  0.84261  1.0000
  H   H1098     1.0  0.18661  0.65903  0.87665  1.0000
  H   H1099     1.0  0.15161  0.64465  0.88928  1.0000
  H   H1100     1.0  0.11693  0.68926  0.89029  1.0000
  H   H1101     1.0  0.11721  0.74864  0.87928  1.0000
  H   H1102     1.0  0.18749  0.71863  0.86574  1.0000
  H   H1103     1.0  0.17961  0.82095  0.84522  1.0000
  H   H1104     1.0  0.22319  0.83747  0.84469  1.0000
  H   H1105     1.0  0.25501  0.82184  0.86328  1.0000
  H   H1106     1.0  0.24287  0.78928  0.88254  1.0000
  H   H1107     1.0  0.19925  0.77238  0.88324  1.0000
  H   H1108     1.0  0.17285  0.82662  0.88733  1.0000
  H   H1109     1.0  0.15141  0.86565  0.90171  1.0000
  H   H1110     1.0  0.10572  0.87605  0.89802  1.0000
  H   H1111     1.0  0.08122  0.84834  0.87938  1.0000
  H   H1112     1.0  0.10212  0.80933  0.86484  1.0000
  H   H1113     1.0  0.14138  0.72549  0.84651  1.0000
  H   H1114     1.0  0.12041  0.72651  0.82427  1.0000
  H   H1115     1.0  0.10402  0.78408  0.81359  1.0000
  H   H1116     1.0  0.10891  0.84133  0.82530  1.0000
  H   H1117     1.0  0.13042  0.84118  0.84758  1.0000
  C   C1405     1.0  0.20406  0.58190  0.75012  1.0000
  H   H1118     1.0  0.20344  0.53650  0.91210  1.0000
  H   H1119     1.0  0.19140  0.55451  0.78011  1.0000
  H   H1120     1.0  0.30558  0.69930  0.97031  1.0000
  C   C1406     1.0  0.07616  0.68343  0.96785  1.0000
  H   H1121     1.0  0.06423  0.68528  0.95871  1.0000
  C   C1407     1.0  0.04964  0.59399  0.73516  1.0000
  H   H1122     1.0  0.01298  0.60088  0.84356  1.0000
  C   C1408     1.0  0.15500  0.72168  0.96643  1.0000
  H   H1123     1.0  0.99818  0.72867  0.85433  1.0000
  C   C1409     1.0  0.02867  0.57105  0.80539  1.0000
  H   H1124     1.0  0.98542  0.73661  0.78199  1.0000
  C   C1410     1.0  0.99124  0.73109  0.73332  1.0000
  C   C1411     1.0  0.99821  0.66269  0.90135  1.0000
  H   H1125     1.0  0.25013  0.99076  0.75811  1.0000
  C   C1412     1.0  0.05824  0.59922  0.74812  1.0000
  C   C1413     1.0  0.05212  0.57529  0.75772  1.0000
  H   H1126     1.0  0.24281  0.64333  0.95262  1.0000
  H   H1127     1.0  0.98974  0.61314  0.73367  1.0000
  C   C1414     1.0  0.41031  0.62445  0.73855  1.0000
  P   P46       1.0  0.22036  0.51552  0.76167  1.0000
  C   C1415     1.0  0.14729  0.75143  0.95816  1.0000
  H   H1128     1.0  0.47868  0.61014  0.74669  1.0000
  C   C1416     1.0  0.17829  0.60397  0.77056  1.0000
  Fe  Fe96      1.0  0.20964  0.95801  0.97651  1.0000
  H   H1129     1.0  0.32049  0.80273  0.97100  1.0000
  H   H1130     1.0  0.06996  0.62162  0.75078  1.0000
  H   H1131     1.0  0.05928  0.57965  0.76770  1.0000
  C   C1417     1.0  0.03741  0.54576  0.75439  1.0000
  C   C1418     1.0  0.99362  0.67292  0.86020  1.0000
  H   H1132     1.0  0.13589  0.77336  0.96132  1.0000
  C   C1419     1.0  0.42136  0.55342  0.73215  1.0000
  H   H1133     1.0  0.06827  0.52071  0.78942  1.0000
  C   C1420     1.0  0.00812  0.57395  0.79591  1.0000
  H   H1134     1.0  0.13711  0.92452  0.74075  1.0000
  H   H1135     1.0  0.00953  0.64629  0.92117  1.0000
  H   H1136     1.0  0.99547  0.92757  0.74370  1.0000
  C   C1421     1.0  0.17547  0.93209  0.74815  1.0000
  H   H1137     1.0  0.13414  0.87482  0.97227  1.0000
  C   C1422     1.0  0.05105  0.53450  0.79121  1.0000
  H   H1138     1.0  0.99216  0.80123  0.93873  1.0000
  C   C1423     1.0  0.43254  0.61598  0.73339  1.0000
  C   C1424     1.0  0.99060  0.63267  0.75308  1.0000
  H   H1139     1.0  0.18649  0.82736  0.96845  1.0000
  C   C1425     1.0  0.39930  0.56193  0.73746  1.0000
  S   S193      1.0  0.99040  0.65703  0.77815  1.0000
  C   C1426     1.0  0.22284  0.84938  0.97214  1.0000
  H   H1140     1.0  0.29699  0.57226  0.75070  1.0000
  H   H1141     1.0  0.26937  0.50465  0.77755  1.0000
  H   H1142     1.0  0.98798  0.77528  0.90866  1.0000
  H   H1143     1.0  0.42467  0.52591  0.72938  1.0000
  C   C1427     1.0  0.98477  0.94514  0.73648  1.0000
  H   H1144     1.0  0.99191  0.59062  0.79746  1.0000
  C   C1428     1.0  0.26977  0.93757  0.73468  1.0000
  H   H1145     1.0  0.98554  0.71978  0.75933  1.0000
  H   H1146     1.0  0.30926  0.52213  0.73706  1.0000
  H   H1147     1.0  0.21317  0.71164  0.97185  1.0000
  C   C1429     1.0  0.29188  0.52156  0.74134  1.0000
  H   H1148     1.0  0.26058  0.86702  0.97348  1.0000
  H   H1149     1.0  0.47694  0.85887  0.72862  1.0000
  H   H1150     1.0  0.98410  0.54521  0.75363  1.0000
  C   C1430     1.0  0.25474  0.49809  0.78338  1.0000
  C   C1431     1.0  0.99315  0.97945  0.73392  1.0000
  P   P47       1.0  0.22863  0.98647  0.73113  1.0000
  C   C1432     1.0  0.77219  0.37899  0.04791  1.0000
  H   H1151     1.0  0.81609  0.47109  0.22136  1.0000
  S   S194      1.0  0.73632  0.42266  0.99029  1.0000
  P   P48       1.0  0.94436  0.45682  0.20072  1.0000
  C   C1433     1.0  0.96851  0.19154  0.18865  1.0000
  S   S195      1.0  0.77656  0.04035  0.01314  1.0000
  Fe  Fe97      1.0  0.92033  0.23992  0.04389  1.0000
  S   S196      1.0  0.91278  0.18403  0.05097  1.0000
  S   S197      1.0  0.95824  0.26179  0.03966  1.0000
  Fe  Fe98      1.0  0.86416  0.26245  0.04113  1.0000
  S   S198      1.0  0.85324  0.20857  0.04840  1.0000
  S   S199      1.0  0.83146  0.30290  0.03712  1.0000
  Fe  Fe99      1.0  0.88664  0.21244  0.06333  1.0000
  S   S200      1.0  0.88283  0.19524  0.08418  1.0000
  Fe  Fe100     1.0  0.87970  0.18509  0.03546  1.0000
  S   S201      1.0  0.87089  0.14107  0.02068  1.0000
  S   S202      1.0  0.89567  0.26816  0.05705  1.0000
  S   S203      1.0  0.88908  0.23914  0.02737  1.0000
  Fe  Fe101     1.0  0.92932  0.28776  0.17961  1.0000
  S   S204      1.0  0.89873  0.28593  0.19250  1.0000
  S   S205      1.0  0.77183  0.48146  0.97802  1.0000
  Fe  Fe102     1.0  0.89287  0.28369  0.15494  1.0000
  S   S206      1.0  0.85944  0.28125  0.16618  1.0000
  S   S207      1.0  0.89385  0.29584  0.13331  1.0000
  Fe  Fe103     1.0  0.87715  0.32550  0.17814  1.0000
  S   S208      1.0  0.85547  0.37341  0.18594  1.0000
  Fe  Fe104     1.0  0.88316  0.24151  0.17979  1.0000
  S   S209      1.0  0.86537  0.19435  0.19006  1.0000
  S   S210      1.0  0.90910  0.33009  0.16629  1.0000
  S   S211      1.0  0.91528  0.24120  0.16758  1.0000
  S   S212      1.0  0.87993  0.02598  0.20733  1.0000
  C   C1434     1.0  0.84549  0.41690  0.17913  1.0000
  C   C1435     1.0  0.83297  0.44132  0.18657  1.0000
  H   H1152     1.0  0.73267  0.06473  0.20369  1.0000
  H   H1153     1.0  0.71561  0.36395  0.03622  1.0000
  C   C1436     1.0  0.84047  0.46188  0.16149  1.0000
  C   C1437     1.0  0.84925  0.42753  0.16654  1.0000
  H   H1154     1.0  0.82998  0.43348  0.19632  1.0000
  C   C1438     1.0  0.97499  0.26041  0.11406  1.0000
  C   C1439     1.0  0.71112  0.48128  0.16697  1.0000
  H   H1155     1.0  0.85880  0.40919  0.16066  1.0000
  C   C1440     1.0  0.87017  0.14744  0.19463  1.0000
  C   C1441     1.0  0.88898  0.12523  0.19040  1.0000
  C   C1442     1.0  0.89179  0.08839  0.19442  1.0000
  C   C1443     1.0  0.87593  0.07307  0.20276  1.0000
  C   C1444     1.0  0.85727  0.09548  0.20705  1.0000
  C   C1445     1.0  0.85434  0.13207  0.20293  1.0000
  H   H1156     1.0  0.90117  0.13637  0.18391  1.0000
  H   H1157     1.0  0.90621  0.07152  0.19095  1.0000
  H   H1158     1.0  0.84503  0.08489  0.21357  1.0000
  H   H1159     1.0  0.83992  0.14887  0.20640  1.0000
  C   C1446     1.0  0.88684  0.22327  0.09781  1.0000
  C   C1447     1.0  0.89444  0.25876  0.09683  1.0000
  C   C1448     1.0  0.89696  0.28023  0.10786  1.0000
  C   C1449     1.0  0.89162  0.26676  0.11994  1.0000
  C   C1450     1.0  0.88434  0.23114  0.12095  1.0000
  C   C1451     1.0  0.88206  0.20951  0.10994  1.0000
  H   H1160     1.0  0.89830  0.26972  0.08759  1.0000
  H   H1161     1.0  0.90316  0.30739  0.10700  1.0000
  H   H1162     1.0  0.88024  0.22037  0.13018  1.0000
  H   H1163     1.0  0.87625  0.18205  0.11080  1.0000
  C   C1452     1.0  0.80192  0.07006  0.01446  1.0000
  C   C1453     1.0  0.80563  0.09168  0.02541  1.0000
  C   C1454     1.0  0.82615  0.11434  0.02727  1.0000
  C   C1455     1.0  0.84354  0.11523  0.01829  1.0000
  C   C1456     1.0  0.83962  0.09400  0.00724  1.0000
  C   C1457     1.0  0.81887  0.07174  0.00527  1.0000
  H   H1164     1.0  0.79272  0.09054  0.03261  1.0000
  H   H1165     1.0  0.82890  0.13036  0.03583  1.0000
  H   H1166     1.0  0.85292  0.09445  0.00021  1.0000
  H   H1167     1.0  0.81632  0.05528  0.99682  1.0000
  C   C1458     1.0  0.82306  0.32234  0.02151  1.0000
  C   C1459     1.0  0.84049  0.32545  0.01263  1.0000
  C   C1460     1.0  0.83380  0.34388  0.00071  1.0000
  C   C1461     1.0  0.80961  0.35903  0.99751  1.0000
  C   C1462     1.0  0.79189  0.35457  0.00616  1.0000
  C   C1463     1.0  0.79867  0.33667  0.01818  1.0000
  H   H1168     1.0  0.85930  0.31444  0.01508  1.0000
  H   H1169     1.0  0.84754  0.34682  0.99400  1.0000
  H   H1170     1.0  0.77301  0.36495  0.00357  1.0000
  H   H1171     1.0  0.78495  0.33374  0.02488  1.0000
  C   C1464     1.0  0.77255  0.40697  0.17941  1.0000
  C   C1465     1.0  0.75067  0.38593  0.19703  1.0000
  C   C1466     1.0  0.73534  0.47977  0.17363  1.0000
  H   H1172     1.0  0.88616  0.35674  0.04669  1.0000
  C   C1467     1.0  0.78258  0.07759  0.20850  1.0000
  H   H1173     1.0  0.94977  0.33703  0.20319  1.0000
  Fe  Fe105     1.0  0.75987  0.00593  0.99645  1.0000
  C   C1468     1.0  0.89804  0.49404  0.19675  1.0000
  H   H1174     1.0  0.68536  0.34004  0.01936  1.0000
  C   C1469     1.0  0.78098  0.34958  0.05595  1.0000
  C   C1470     1.0  0.91739  0.14212  0.22203  1.0000
  H   H1175     1.0  0.64830  0.45778  0.21040  1.0000
  C   C1471     1.0  0.73248  0.13018  0.99234  1.0000
  C   C1472     1.0  0.78632  0.15008  0.20094  1.0000
  H   H1176     1.0  0.82492  0.03958  0.19895  1.0000
  H   H1177     1.0  0.81255  0.28845  0.98204  1.0000
  H   H1178     1.0  0.74374  0.10621  0.02416  1.0000
  C   C1473     1.0  0.96220  0.06093  0.21349  1.0000
  C   C1474     1.0  0.95537  0.39622  0.16927  1.0000
  H   H1179     1.0  0.72087  0.40315  0.06245  1.0000
  C   C1475     1.0  0.77058  0.43438  0.02043  1.0000
  C   C1476     1.0  0.66629  0.45729  0.20669  1.0000
  C   C1477     1.0  0.79021  0.44667  0.01403  1.0000
  H   H1180     1.0  0.91409  0.39334  0.19545  1.0000
  C   C1478     1.0  0.90404  0.38173  0.22679  1.0000
  C   C1479     1.0  0.95509  0.13997  0.01840  1.0000
  H   H1181     1.0  0.79934  0.36911  0.17292  1.0000
  C   C1480     1.0  0.96247  0.26444  0.13948  1.0000
  H   H1182     1.0  0.69991  0.40966  0.18672  1.0000
  H   H1183     1.0  0.91312  0.45675  0.09524  1.0000
  H   H1184     1.0  0.75427  0.46339  0.06497  1.0000
  C   C1481     1.0  0.82419  0.47569  0.18152  1.0000
  H   H1185     1.0  0.78850  0.17789  0.19801  1.0000
  H   H1186     1.0  0.79765  0.33441  0.05403  1.0000
  H   H1187     1.0  0.92904  0.04403  0.22166  1.0000
  H   H1188     1.0  0.69626  0.49016  0.03372  1.0000
  C   C1482     1.0  0.73826  0.47974  0.06077  1.0000
  H   H1189     1.0  0.77732  0.42790  0.17286  1.0000
  C   C1483     1.0  0.98019  0.38385  0.17199  1.0000
  H   H1190     1.0  0.79570  0.43256  0.00574  1.0000
  H   H1191     1.0  0.76121  0.41047  0.01713  1.0000
  C   C1484     1.0  0.78055  0.34618  0.18813  1.0000
  H   H1192     1.0  0.81741  0.48730  0.01306  1.0000
  H   H1193     1.0  0.73824  0.39066  0.20432  1.0000
  H   H1194     1.0  0.80164  0.49599  0.09294  1.0000
  C   C1485     1.0  0.75503  0.49300  0.16743  1.0000
  C   C1486     1.0  0.68012  0.38991  0.00833  1.0000
  C   C1487     1.0  0.68703  0.42563  0.00741  1.0000
  P   P49       1.0  0.73816  0.43556  0.03939  1.0000
  H   H1195     1.0  0.94770  0.21869  0.11197  1.0000
  C   C1488     1.0  0.81658  0.01442  0.19624  1.0000
  P   P50       1.0  0.74159  0.45843  0.18953  1.0000
  C   C1489     1.0  0.82781  0.48622  0.16889  1.0000
  H   H1196     1.0  0.51849  0.47792  0.06332  1.0000
  C   C1490     1.0  0.95239  0.20560  0.08658  1.0000
  C   C1491     1.0  0.95733  0.23748  0.11839  1.0000
  H   H1197     1.0  0.85607  0.39381  0.03172  1.0000
  C   C1492     1.0  0.72607  0.47198  0.04851  1.0000
  C   C1493     1.0  0.74659  0.35896  0.06863  1.0000
  H   H1198     1.0  0.96377  0.09466  0.00697  1.0000
  C   C1494     1.0  0.74548  0.16038  0.01644  1.0000
  C   C1495     1.0  0.74277  0.18261  0.00522  1.0000
  C   C1496     1.0  0.73678  0.16702  0.99317  1.0000
  P   P51       1.0  0.74983  0.22981  0.00604  1.0000
  C   C1497     1.0  0.75119  0.24308  0.02267  1.0000
  C   C1498     1.0  0.78006  0.23400  0.00035  1.0000
  C   C1499     1.0  0.79946  0.20895  0.00477  1.0000
  C   C1500     1.0  0.82335  0.21272  0.00109  1.0000
  C   C1501     1.0  0.96980  0.33568  0.20563  1.0000
  H   H1199     1.0  0.66706  0.37922  0.00079  1.0000
  C   C1502     1.0  0.78484  0.26224  0.99187  1.0000
  C   C1503     1.0  0.72918  0.24416  0.02867  1.0000
  H   H1200     1.0  0.77514  0.31666  0.07250  1.0000
  C   C1504     1.0  0.77386  0.25118  0.02985  1.0000
  C   C1505     1.0  0.72562  0.25889  0.99733  1.0000
  C   C1506     1.0  0.70372  0.24489  0.99101  1.0000
  H   H1201     1.0  0.81470  0.49408  0.18739  1.0000
  H   H1202     1.0  0.48534  0.39543  0.19650  1.0000
  C   C1507     1.0  0.70904  0.31947  0.99133  1.0000
  C   C1508     1.0  0.72781  0.29648  0.99770  1.0000
  H   H1203     1.0  0.95274  0.32408  0.10442  1.0000
  H   H1204     1.0  0.89266  0.35367  0.20933  1.0000
  C   C1509     1.0  0.71720  0.01388  0.02874  1.0000
  H   H1205     1.0  0.75144  0.17104  0.02583  1.0000
  C   C1510     1.0  0.87084  0.37131  0.05039  1.0000
  H   H1206     1.0  0.79636  0.18686  0.01132  1.0000
  H   H1207     1.0  0.83836  0.19374  0.00479  1.0000
  P   P52       1.0  0.96306  0.10501  0.22058  1.0000
  C   C1511     1.0  0.97064  0.11902  0.01142  1.0000
  H   H1208     1.0  0.73651  0.35093  0.07659  1.0000
  H   H1209     1.0  0.71153  0.23788  0.02328  1.0000
  C   C1512     1.0  0.94395  0.00226  0.21072  1.0000
  H   H1210     1.0  0.79117  0.25106  0.02552  1.0000
  H   H1211     1.0  0.70055  0.21637  0.99108  1.0000
  H   H1212     1.0  0.50067  0.46809  0.22559  1.0000
  H   H1213     1.0  0.77378  0.49270  0.17238  1.0000
  H   H1214     1.0  0.71101  0.34844  0.99140  1.0000
  H   H1215     1.0  0.74406  0.30805  0.00291  1.0000
  C   C1513     1.0  0.73781  0.02307  0.03725  1.0000
  C   C1514     1.0  0.95642  0.15961  0.18573  1.0000
  C   C1515     1.0  0.73788  0.38867  0.06067  1.0000
  H   H1216     1.0  0.82033  0.42573  0.03995  1.0000
  H   H1217     1.0  0.96895  0.21237  0.18123  1.0000
  H   H1218     1.0  0.73919  0.05026  0.04071  1.0000
  H   H1219     1.0  0.93618  0.13203  0.01932  1.0000
  H   H1220     1.0  0.79218  0.26502  0.04843  1.0000
  C   C1516     1.0  0.70608  0.48434  0.20514  1.0000
  C   C1517     1.0  0.96389  0.17140  0.02415  1.0000
  C   C1518     1.0  0.71474  0.41779  0.02751  1.0000
  H   H1221     1.0  0.92865  0.37158  0.09122  1.0000
  C   C1519     1.0  0.75505  0.41350  0.18818  1.0000
  C   C1520     1.0  0.83355  0.40987  0.04658  1.0000
  H   H1222     1.0  0.76109  0.47043  0.09653  1.0000
  H   H1223     1.0  0.98209  0.43618  0.22237  1.0000
  H   H1224     1.0  0.89374  0.48107  0.20560  1.0000
  C   C1521     1.0  0.71260  0.45732  0.19676  1.0000
  C   C1522     1.0  0.72988  0.25264  0.04172  1.0000
  H   H1225     1.0  0.92437  0.36964  0.06726  1.0000
  C   C1523     1.0  0.74989  0.01817  0.21458  1.0000
  C   C1524     1.0  0.76304  0.45279  0.03102  1.0000
  C   C1525     1.0  0.80081  0.48514  0.21543  1.0000
  C   C1526     1.0  0.78611  0.10421  0.21784  1.0000
  H   H1226     1.0  0.79123  0.16065  0.22129  1.0000
  H   H1227     1.0  0.93652  0.22369  0.08738  1.0000
  C   C1527     1.0  0.90309  0.37576  0.21356  1.0000
  H   H1228     1.0  0.94733  0.15581  0.17604  1.0000
  H   H1229     1.0  0.78217  0.38550  0.03980  1.0000
  H   H1230     1.0  0.78621  0.43665  0.20753  1.0000
  C   C1528     1.0  0.70444  0.43935  0.01686  1.0000
  C   C1529     1.0  0.94465  0.41877  0.17787  1.0000
  C   C1530     1.0  0.70683  0.49559  0.15433  1.0000
  C   C1531     1.0  0.82807  0.24134  0.99290  1.0000
  C   C1532     1.0  0.95537  0.13308  0.19536  1.0000
  C   C1533     1.0  0.79506  0.00347  0.20143  1.0000
  C   C1534     1.0  0.75080  0.39921  0.05032  1.0000
  H   H1231     1.0  0.71287  0.25302  0.04633  1.0000
  H   H1232     1.0  0.84347  0.46963  0.15173  1.0000
  H   H1233     1.0  0.96940  0.37278  0.22125  1.0000
  C   C1535     1.0  0.68767  0.30521  0.98482  1.0000
  C   C1536     1.0  0.98002  0.28739  0.13527  1.0000
  H   H1234     1.0  0.73142  0.07999  0.00292  1.0000
  C   C1537     1.0  0.75258  0.25999  0.04887  1.0000
  H   H1235     1.0  0.67942  0.44250  0.99915  1.0000
  C   C1538     1.0  0.80246  0.47757  0.01816  1.0000
  H   H1236     1.0  0.49933  0.45658  0.20161  1.0000
  C   C1539     1.0  0.78240  0.12384  0.19159  1.0000
  C   C1540     1.0  0.94832  0.17144  0.08156  1.0000
  H   H1237     1.0  0.92035  0.15668  0.21324  1.0000
  H   H1238     1.0  0.70243  0.03378  0.02571  1.0000
  C   C1541     1.0  0.93707  0.34941  0.08654  1.0000
  H   H1239     1.0  0.68811  0.49688  0.14927  1.0000
  H   H1240     1.0  0.94292  0.31788  0.05658  1.0000
  C   C1542     1.0  0.77325  0.41573  0.09341  1.0000
  C   C1543     1.0  0.80879  0.26591  0.98823  1.0000
  C   C1544     1.0  0.97672  0.21612  0.09059  1.0000
  C   C1545     1.0  0.68308  0.48414  0.21011  1.0000
  H   H1241     1.0  0.75997  0.33131  0.20383  1.0000
  H   H1242     1.0  0.93705  0.22242  0.13423  1.0000
  C   C1546     1.0  0.78800  0.14030  0.21405  1.0000
  C   C1547     1.0  0.79921  0.46720  0.09226  1.0000
  C   C1548     1.0  0.78375  0.46567  0.20748  1.0000
  C   C1549     1.0  0.94501  0.31914  0.06705  1.0000
  C   C1550     1.0  0.97856  0.17054  0.21090  1.0000
  C   C1551     1.0  0.79305  0.39295  0.09066  1.0000
  C   C1552     1.0  0.81623  0.40705  0.08881  1.0000
  C   C1553     1.0  0.76409  0.48366  0.19954  1.0000
  P   P53       1.0  0.84184  0.37802  0.08490  1.0000
  C   C1554     1.0  0.83571  0.33099  0.08804  1.0000
  C   C1555     1.0  0.84669  0.38480  0.06814  1.0000
  C   C1556     1.0  0.86742  0.36790  0.06346  1.0000
  S   S213      1.0  0.97140  0.28916  0.18524  1.0000
  C   C1557     1.0  0.82989  0.40619  0.05962  1.0000
  C   C1558     1.0  0.83701  0.30515  0.07842  1.0000
  C   C1559     1.0  0.83338  0.26882  0.08115  1.0000
  C   C1560     1.0  0.82818  0.25787  0.09343  1.0000
  C   C1561     1.0  0.82604  0.28337  0.10294  1.0000
  C   C1562     1.0  0.82942  0.31980  0.10021  1.0000
  C   C1563     1.0  0.86973  0.39173  0.09472  1.0000
  C   C1564     1.0  0.87803  0.37478  0.10673  1.0000
  C   C1565     1.0  0.89871  0.38719  0.11447  1.0000
  C   C1566     1.0  0.91123  0.41688  0.11040  1.0000
  C   C1567     1.0  0.90334  0.43380  0.09844  1.0000
  C   C1568     1.0  0.88283  0.42113  0.09059  1.0000
  C   C1569     1.0  0.72965  0.04006  0.20892  1.0000
  C   C1570     1.0  0.78521  0.37349  0.17941  1.0000
  H   H1243     1.0  0.72808  0.11800  0.98301  1.0000
  H   H1244     1.0  0.79017  0.36438  0.09006  1.0000
  H   H1245     1.0  0.83651  0.45629  0.08794  1.0000
  H   H1246     1.0  0.88029  0.35075  0.06984  1.0000
  C   C1571     1.0  0.96847  0.14780  0.08020  1.0000
  H   H1247     1.0  0.81368  0.41942  0.06290  1.0000
  H   H1248     1.0  0.84107  0.31238  0.06879  1.0000
  H   H1249     1.0  0.83551  0.24884  0.07386  1.0000
  H   H1250     1.0  0.82650  0.22946  0.09566  1.0000
  H   H1251     1.0  0.82251  0.27473  0.11255  1.0000
  H   H1252     1.0  0.82763  0.33909  0.10773  1.0000
  H   H1253     1.0  0.86892  0.35188  0.11031  1.0000
  H   H1254     1.0  0.90486  0.37366  0.12370  1.0000
  H   H1255     1.0  0.92711  0.42661  0.11649  1.0000
  H   H1256     1.0  0.67306  0.32302  0.97996  1.0000
  H   H1257     1.0  0.87702  0.43469  0.08137  1.0000
  H   H1258     1.0  0.79087  0.32056  0.18826  1.0000
  S   S214      1.0  0.80226  0.38310  0.98262  1.0000
  C   C1572     1.0  0.92114  0.48745  0.19208  1.0000
  H   H1259     1.0  0.94532  0.10894  0.19298  1.0000
  P   P54       1.0  0.78165  0.03065  0.21335  1.0000
  C   C1573     1.0  0.70073  0.99882  0.21691  1.0000
  C   C1574     1.0  0.95121  0.23946  0.13106  1.0000
  C   C1575     1.0  0.69049  0.36792  0.01878  1.0000
  C   C1576     1.0  0.95886  0.42971  0.18918  1.0000
  C   C1577     1.0  0.95827  0.29151  0.07449  1.0000
  C   C1578     1.0  0.70769  0.38174  0.02835  1.0000
  S   S215      1.0  0.71815  0.01108  0.99100  1.0000
  H   H1260     1.0  0.75321  0.26589  0.05903  1.0000
  C   C1579     1.0  0.91539  0.39842  0.20569  1.0000
  H   H1261     1.0  0.75552  0.40459  0.09498  1.0000
  H   H1262     1.0  0.68961  0.04757  0.20584  1.0000
  C   C1580     1.0  0.98017  0.01627  0.20014  1.0000
  C   C1581     1.0  0.50584  0.49099  0.05566  1.0000
  C   C1582     1.0  0.81904  0.44448  0.08951  1.0000
  C   C1583     1.0  0.85384  0.39215  0.04194  1.0000
  C   C1584     1.0  0.69558  0.43031  0.19339  1.0000
  C   C1585     1.0  0.76822  0.33955  0.06631  1.0000
  H   H1263     1.0  0.49697  0.44149  0.04602  1.0000
  C   C1586     1.0  0.93451  0.34818  0.07306  1.0000
  C   C1587     1.0  0.73442  0.10859  0.00356  1.0000
  H   H1264     1.0  0.92510  0.42699  0.17580  1.0000
  C   C1588     1.0  0.74115  0.12356  0.01558  1.0000
  H   H1265     1.0  0.78144  0.13142  0.18142  1.0000
  H   H1266     1.0  0.94421  0.38752  0.16067  1.0000
  C   C1589     1.0  0.92890  0.42724  0.21102  1.0000
  Fe  Fe106     1.0  0.73773  0.48307  0.98861  1.0000
  C   C1590     1.0  0.68500  0.26799  0.98467  1.0000
  H   H1267     1.0  0.96518  0.12158  0.07611  1.0000
  H   H1268     1.0  0.84507  0.00080  0.18411  1.0000
  C   C1591     1.0  0.77451  0.25938  0.04292  1.0000
  C   C1592     1.0  0.67256  0.43030  0.19837  1.0000
  H   H1269     1.0  0.65942  0.40961  0.19566  1.0000
  C   C1593     1.0  0.76320  0.35232  0.19690  1.0000
  C   C1594     1.0  0.70516  0.03038  0.21010  1.0000
  C   C1595     1.0  0.78031  0.08777  0.19533  1.0000
  H   H1270     1.0  0.92945  0.16330  0.07868  1.0000
  H   H1271     1.0  0.84676  0.24468  0.99032  1.0000
  H   H1272     1.0  0.77743  0.06781  0.18793  1.0000
  C   C1596     1.0  0.77635  0.45282  0.09426  1.0000
  H   H1273     1.0  0.69544  0.47155  0.17143  1.0000
  H   H1274     1.0  0.73540  0.18345  0.98443  1.0000
  H   H1275     1.0  0.95186  0.18781  0.02951  1.0000
  C   C1597     1.0  0.79500  0.49632  0.02864  1.0000
  H   H1276     1.0  0.66829  0.25704  0.97968  1.0000
  C   C1598     1.0  0.98101  0.35604  0.21582  1.0000
  H   H1277     1.0  0.83564  0.02882  0.22142  1.0000
  C   C1599     1.0  0.95081  0.32224  0.09401  1.0000
  H   H1278     1.0  0.95710  0.26654  0.14918  1.0000
  C   C1600     1.0  0.96191  0.29332  0.08801  1.0000
  C   C1601     1.0  0.94380  0.03665  0.21592  1.0000
  C   C1602     1.0  0.96648  0.13827  0.20803  1.0000
  H   H1279     1.0  0.96618  0.26920  0.06963  1.0000
  C   C1603     1.0  0.98015  0.05066  0.20538  1.0000
  H   H1280     1.0  0.88243  0.17072  0.22326  1.0000
  Fe  Fe107     1.0  0.76821  0.42122  0.97838  1.0000
  H   H1281     1.0  0.79776  0.15778  0.98216  1.0000
  P   P55       1.0  0.98182  0.25993  0.09744  1.0000
  H   H1282     1.0  0.71012  0.46668  0.01571  1.0000
  C   C1604     1.0  0.97954  0.19704  0.20122  1.0000
  C   C1605     1.0  0.92910  0.43375  0.22428  1.0000
  C   C1606     1.0  0.96809  0.48188  0.21004  1.0000
  H   H1283     1.0  0.77044  0.28181  0.98812  1.0000
  C   C1607     1.0  0.77540  0.48401  0.03507  1.0000
  C   C1608     1.0  0.93467  0.11550  0.22763  1.0000
  H   H1284     1.0  0.77339  0.00575  0.04704  1.0000
  C   C1609     1.0  0.49377  0.47048  0.04589  1.0000
  C   C1610     1.0  0.70589  0.49460  0.04317  1.0000
  C   C1611     1.0  0.89569  0.15021  0.22771  1.0000
  Fe  Fe108     1.0  0.69015  0.45118  0.47530  1.0000
  H   H1285     1.0  0.50879  0.30513  0.38696  1.0000
  C   C1612     1.0  0.62970  0.00878  0.30011  1.0000
  C   C1613     1.0  0.58117  0.29247  0.28616  1.0000
  H   H1286     1.0  0.52435  0.47259  0.24711  1.0000
  S   S216      1.0  0.68129  0.06117  0.45386  1.0000
  Fe  Fe109     1.0  0.52818  0.24525  0.41703  1.0000
  S   S217      1.0  0.55300  0.27215  0.40383  1.0000
  C   C1614     1.0  0.80010  0.02499  0.22900  1.0000
  Fe  Fe110     1.0  0.57375  0.20601  0.43244  1.0000
  S   S218      1.0  0.60083  0.22884  0.42004  1.0000
  S   S219      1.0  0.58732  0.17156  0.45034  1.0000
  Fe  Fe111     1.0  0.57986  0.28140  0.42170  1.0000
  S   S220      1.0  0.60131  0.33372  0.42357  1.0000
  Fe  Fe112     1.0  0.57216  0.21779  0.40328  1.0000
  S   S221      1.0  0.58549  0.19083  0.38570  1.0000
  S   S222      1.0  0.55361  0.25936  0.43495  1.0000
  S   S223      1.0  0.54644  0.19019  0.41564  1.0000
  Fe  Fe113     1.0  0.52112  0.18489  0.28358  1.0000
  S   S224      1.0  0.55331  0.19021  0.27204  1.0000
  H   H1287     1.0  0.89461  0.36391  0.23286  1.0000
  Fe  Fe114     1.0  0.55094  0.21136  0.30788  1.0000
  S   S225      1.0  0.58530  0.21771  0.29800  1.0000
  S   S226      1.0  0.54334  0.23257  0.32744  1.0000
  Fe  Fe115     1.0  0.56141  0.24787  0.28056  1.0000
  S   S227      1.0  0.57734  0.32343  0.26286  1.0000
  Fe  Fe116     1.0  0.57630  0.16419  0.28933  1.0000
  S   S228      1.0  0.60815  0.12523  0.28535  1.0000
  S   S229      1.0  0.52659  0.24000  0.29161  1.0000
  S   S230      1.0  0.54360  0.15591  0.30052  1.0000
  H   H1288     1.0  0.91760  0.41552  0.24240  1.0000
  C   C1615     1.0  0.61525  0.07988  0.29084  1.0000
  C   C1616     1.0  0.60242  0.06312  0.30011  1.0000
  H   H1289     1.0  0.87374  0.13734  0.24307  1.0000
  C   C1617     1.0  0.74514  0.31042  0.45702  1.0000
  C   C1618     1.0  0.74967  0.16832  0.47787  1.0000
  C   C1619     1.0  0.63503  0.06062  0.28608  1.0000
  H   H1290     1.0  0.58728  0.07767  0.30390  1.0000
  C   C1620     1.0  0.73102  0.27950  0.45628  1.0000
  C   C1621     1.0  0.56290  0.40374  0.42966  1.0000
  H   H1291     1.0  0.64510  0.07330  0.27891  1.0000
  C   C1622     1.0  0.57475  0.37166  0.26187  1.0000
  C   C1623     1.0  0.56278  0.39219  0.27063  1.0000
  C   C1624     1.0  0.56307  0.43022  0.27002  1.0000
  C   C1625     1.0  0.57514  0.44845  0.26064  1.0000
  C   C1626     1.0  0.58631  0.42804  0.25157  1.0000
  C   C1627     1.0  0.58613  0.38995  0.25222  1.0000
  H   H1292     1.0  0.55398  0.37890  0.27812  1.0000
  H   H1293     1.0  0.55438  0.44564  0.27710  1.0000
  H   H1294     1.0  0.59566  0.44153  0.24429  1.0000
  H   H1295     1.0  0.59541  0.37450  0.24537  1.0000
  C   C1628     1.0  0.57438  0.20367  0.36953  1.0000
  C   C1629     1.0  0.58386  0.18542  0.35933  1.0000
  C   C1630     1.0  0.57486  0.19412  0.34634  1.0000
  C   C1631     1.0  0.55637  0.22132  0.34348  1.0000
  C   C1632     1.0  0.54725  0.23995  0.35367  1.0000
  C   C1633     1.0  0.55607  0.23107  0.36663  1.0000
  H   H1296     1.0  0.59823  0.16447  0.36152  1.0000
  H   H1297     1.0  0.58221  0.17997  0.33857  1.0000
  H   H1298     1.0  0.53313  0.26126  0.35154  1.0000
  H   H1299     1.0  0.54865  0.24531  0.37438  1.0000
  C   C1634     1.0  0.65592  0.09315  0.45323  1.0000
  C   C1635     1.0  0.64275  0.09869  0.46388  1.0000
  C   C1636     1.0  0.62208  0.12323  0.46289  1.0000
  C   C1637     1.0  0.61435  0.14256  0.45129  1.0000
  C   C1638     1.0  0.62791  0.13777  0.44073  1.0000
  C   C1639     1.0  0.64856  0.11311  0.44170  1.0000
  H   H1300     1.0  0.50260  0.21016  0.34301  1.0000
  H   H1301     1.0  0.61174  0.12680  0.47111  1.0000
  H   H1302     1.0  0.62223  0.15256  0.43176  1.0000
  H   H1303     1.0  0.65868  0.10913  0.43344  1.0000
  C   C1640     1.0  0.64933  0.38180  0.45834  1.0000
  C   C1641     1.0  0.63671  0.34969  0.45996  1.0000
  C   C1642     1.0  0.62226  0.33424  0.44945  1.0000
  C   C1643     1.0  0.62016  0.35082  0.43714  1.0000
  C   C1644     1.0  0.63306  0.38263  0.43551  1.0000
  C   C1645     1.0  0.64761  0.39795  0.44601  1.0000
  H   H1304     1.0  0.63798  0.33675  0.46944  1.0000
  H   H1305     1.0  0.61258  0.30969  0.45089  1.0000
  H   H1306     1.0  0.63173  0.39551  0.42603  1.0000
  H   H1307     1.0  0.65752  0.42225  0.44459  1.0000
  C   C1646     1.0  0.71068  0.19701  0.46795  1.0000
  C   C1647     1.0  0.55917  0.08496  0.26320  1.0000
  H   H1308     1.0  0.84035  0.01096  0.26235  1.0000
  C   C1648     1.0  0.66617  0.23894  0.47124  1.0000
  H   H1309     1.0  0.66782  0.28989  0.44330  1.0000
  H   H1310     1.0  0.50183  0.14417  0.25430  1.0000
  C   C1649     1.0  0.89082  0.13141  0.23885  1.0000
  H   H1311     1.0  0.60685  0.15141  0.31442  1.0000
  C   C1650     1.0  0.82913  0.01597  0.25313  1.0000
  H   H1312     1.0  0.60039  0.10542  0.24197  1.0000
  H   H1313     1.0  0.50147  0.14057  0.40486  1.0000
  C   C1651     1.0  0.57888  0.46267  0.42585  1.0000
  H   H1314     1.0  0.64814  0.08353  0.47279  1.0000
  S   S231      1.0  0.48599  0.26075  0.41315  1.0000
  H   H1315     1.0  0.63514  0.44100  0.27606  1.0000
  C   C1652     1.0  0.50974  0.06893  0.28343  1.0000
  H   H1316     1.0  0.79425  0.01157  0.26106  1.0000
  H   H1317     1.0  0.62841  0.32662  0.27773  1.0000
  H   H1318     1.0  0.49892  0.07771  0.27441  1.0000
  C   C1653     1.0  0.56907  0.02530  0.34349  1.0000
  C   C1654     1.0  0.66277  0.23140  0.41860  1.0000
  H   H1319     1.0  0.51481  0.08790  0.31542  1.0000
  H   H1320     1.0  0.59063  0.37090  0.34153  1.0000
  C   C1655     1.0  0.50464  0.14573  0.39491  1.0000
  H   H1321     1.0  0.70377  0.10764  0.47432  1.0000
  C   C1656     1.0  0.66077  0.26354  0.42520  1.0000
  H   H1322     1.0  0.52795  0.31093  0.32612  1.0000
  H   H1323     1.0  0.57853  0.13289  0.25910  1.0000
  H   H1324     1.0  0.50514  0.34621  0.36766  1.0000
  H   H1325     1.0  0.74917  0.36327  0.46505  1.0000
  H   H1326     1.0  0.67479  0.17538  0.42007  1.0000
  H   H1327     1.0  0.93855  0.45648  0.22861  1.0000
  H   H1328     1.0  0.51837  0.16878  0.36003  1.0000
  H   H1329     1.0  0.55009  0.09754  0.27079  1.0000
  H   H1330     1.0  0.74542  0.22424  0.47264  1.0000
  C   C1657     1.0  0.68303  0.20176  0.43819  1.0000
  H   H1331     1.0  0.73611  0.25776  0.45020  1.0000
  C   C1658     1.0  0.56884  0.40746  0.44296  1.0000
  C   C1659     1.0  0.61867  0.13114  0.32000  1.0000
  C   C1660     1.0  0.56784  0.43137  0.42111  1.0000
  C   C1661     1.0  0.54584  0.32233  0.32503  1.0000
  C   C1662     1.0  0.48499  0.18353  0.32656  1.0000
  C   C1663     1.0  0.55552  0.04875  0.26019  1.0000
  C   C1664     1.0  0.55789  0.31419  0.31419  1.0000
  C   C1665     1.0  0.61427  0.42078  0.29090  1.0000
  P   P56       1.0  0.53540  0.02154  0.26877  1.0000
  H   H1332     1.0  0.65231  0.11237  0.35843  1.0000
  C   C1666     1.0  0.66585  0.25919  0.30878  1.0000
  H   H1333     1.0  0.65150  0.29909  0.29464  1.0000
  H   H1334     1.0  0.94295  0.07654  0.24345  1.0000
  C   C1667     1.0  0.57984  0.05755  0.34767  1.0000
  H   H1335     1.0  0.55516  0.37894  0.42597  1.0000
  H   H1336     1.0  0.49960  0.18963  0.32059  1.0000
  H   H1337     1.0  0.48864  0.38017  0.44047  1.0000
  C   C1668     1.0  0.56801  0.03328  0.25043  1.0000
  C   C1669     1.0  0.60646  0.08188  0.37544  1.0000
  H   H1338     1.0  0.52097  0.29484  0.26696  1.0000
  H   H1339     1.0  0.62939  0.46246  0.42820  1.0000
  C   C1670     1.0  0.90791  0.10489  0.24449  1.0000
  H   H1340     1.0  0.56557  0.38554  0.44953  1.0000
  H   H1341     1.0  0.52632  0.10871  0.34866  1.0000
  H   H1342     1.0  0.67565  0.21917  0.32399  1.0000
  H   H1343     1.0  0.50757  0.05130  0.34162  1.0000
  H   H1344     1.0  0.60299  0.23154  0.46832  1.0000
  C   C1671     1.0  0.67379  0.20052  0.42510  1.0000
  C   C1672     1.0  0.78864  0.02141  0.24043  1.0000
  C   C1673     1.0  0.58173  0.25310  0.26541  1.0000
  C   C1674     1.0  0.55376  0.30184  0.28217  1.0000
  H   H1345     1.0  0.78775  0.09716  0.22806  1.0000
  C   C1675     1.0  0.92986  0.09713  0.23897  1.0000
  C   C1676     1.0  0.62811  0.01631  0.35245  1.0000
  H   H1346     1.0  0.59967  0.01535  0.31196  1.0000
  C   C1677     1.0  0.62087  0.08560  0.36510  1.0000
  C   C1678     1.0  0.48738  0.16705  0.38676  1.0000
  C   C1679     1.0  0.64259  0.12321  0.31672  1.0000
  C   C1680     1.0  0.58769  0.08965  0.24691  1.0000
  C   C1681     1.0  0.59323  0.34780  0.32290  1.0000
  H   H1347     1.0  0.97902  0.01902  0.23802  1.0000
  P   P57       1.0  0.59863  0.31551  0.29944  1.0000
  C   C1682     1.0  0.62462  0.08493  0.33709  1.0000
  H   H1348     1.0  0.59096  0.06401  0.37484  1.0000
  C   C1683     1.0  0.63798  0.24018  0.32399  1.0000
  C   C1684     1.0  0.68115  0.23401  0.44487  1.0000
  H   H1349     1.0  0.54397  0.32149  0.28740  1.0000
  H   H1350     1.0  0.69130  0.17740  0.44299  1.0000
  C   C1685     1.0  0.54309  0.02302  0.34143  1.0000
  C   C1686     1.0  0.73607  0.19905  0.47267  1.0000
  C   C1687     1.0  0.58545  0.46633  0.43919  1.0000
  H   H1351     1.0  0.54044  0.11739  0.39693  1.0000
  H   H1352     1.0  0.67946  0.16161  0.46535  1.0000
  C   C1688     1.0  0.53120  0.14072  0.37780  1.0000
  H   H1353     1.0  0.51723  0.03897  0.24133  1.0000
  C   C1689     1.0  0.62903  0.41717  0.28082  1.0000
  H   H1354     1.0  0.56364  0.42802  0.41080  1.0000
  H   H1355     1.0  0.58282  0.48371  0.41909  1.0000
  C   C1690     1.0  0.64719  0.28298  0.30274  1.0000
  H   H1356     1.0  0.58395  0.44085  0.45808  1.0000
  H   H1357     1.0  0.66098  0.05723  0.33921  1.0000
  C   C1691     1.0  0.55748  0.34306  0.33481  1.0000
  H   H1358     1.0  0.60134  0.26467  0.32170  1.0000
  H   H1359     1.0  0.55825  0.01261  0.29586  1.0000
  H   H1360     1.0  0.63754  0.23253  0.45504  1.0000
  H   H1361     1.0  0.59089  0.11827  0.33221  1.0000
  C   C1692     1.0  0.60967  0.02788  0.30474  1.0000
  C   C1693     1.0  0.50220  0.02797  0.24601  1.0000
  C   C1694     1.0  0.50437  0.08469  0.29491  1.0000
  C   C1695     1.0  0.71760  0.33680  0.47126  1.0000
  H   H1362     1.0  0.54841  0.34835  0.34337  1.0000
  C   C1696     1.0  0.69912  0.16384  0.46871  1.0000
  H   H1363     1.0  0.58058  0.00178  0.34186  1.0000
  C   C1697     1.0  0.70347  0.30588  0.47062  1.0000
  C   C1698     1.0  0.52657  0.13260  0.39044  1.0000
  H   H1364     1.0  0.65512  0.23024  0.40853  1.0000
  S   S232      1.0  0.66635  0.40096  0.47209  1.0000
  H   H1365     1.0  0.63426  0.22350  0.33218  1.0000
  H   H1366     1.0  0.61203  0.35674  0.32246  1.0000
  H   H1367     1.0  0.59238  0.39439  0.30372  1.0000
  C   C1699     1.0  0.52891  0.04226  0.28363  1.0000
  H   H1368     1.0  0.68694  0.30553  0.47558  1.0000
  C   C1700     1.0  0.54309  0.03255  0.29542  1.0000
  H   H1369     1.0  0.59382  0.04150  0.23640  1.0000
  H   H1370     1.0  0.66122  0.14727  0.37819  1.0000
  C   C1701     1.0  0.58126  0.35567  0.33378  1.0000
  H   H1371     1.0  0.65760  0.01098  0.28697  1.0000
  C   C1702     1.0  0.64615  0.12864  0.37744  1.0000
  H   H1372     1.0  0.69837  0.02360  0.36113  1.0000
  C   C1703     1.0  0.51381  0.16163  0.36956  1.0000
  C   C1704     1.0  0.53823  0.08534  0.34728  1.0000
  H   H1373     1.0  0.64483  0.38032  0.26807  1.0000
  C   C1705     1.0  0.58134  0.32792  0.31277  1.0000
  C   C1706     1.0  0.66123  0.23772  0.31937  1.0000
  H   H1374     1.0  0.57199  0.11273  0.35274  1.0000
  H   H1375     1.0  0.54491  0.25338  0.25252  1.0000
  C   C1707     1.0  0.64887  0.07760  0.33388  1.0000
  H   H1376     1.0  0.63504  0.14127  0.39613  1.0000
  C   C1708     1.0  0.54025  0.28679  0.26997  1.0000
  C   C1709     1.0  0.62539  0.35242  0.28201  1.0000
  H   H1377     1.0  0.54933  0.29559  0.30742  1.0000
  C   C1710     1.0  0.58404  0.05367  0.24382  1.0000
  C   C1711     1.0  0.64092  0.10890  0.36623  1.0000
  H   H1378     1.0  0.54957  0.04208  0.31579  1.0000
  H   H1379     1.0  0.86078  0.02181  0.24252  1.0000
  C   C1712     1.0  0.53803  0.04898  0.30683  1.0000
  H   H1380     1.0  0.65150  0.28725  0.42029  1.0000
  H   H1381     1.0  0.61486  0.26230  0.27991  1.0000
  H   H1382     1.0  0.60895  0.44747  0.29387  1.0000
  H   H1383     1.0  0.60019  0.09970  0.39444  1.0000
  C   C1713     1.0  0.91696  0.41079  0.23215  1.0000
  C   C1714     1.0  0.71283  0.13315  0.47383  1.0000
  C   C1715     1.0  0.62356  0.28542  0.30719  1.0000
  S   S233      1.0  0.57666  0.49640  0.26120  1.0000
  C   C1716     1.0  0.51854  0.07482  0.30661  1.0000
  H   H1384     1.0  0.68392  0.25735  0.30522  1.0000
  C   C1717     1.0  0.64161  0.23555  0.46538  1.0000
  H   H1385     1.0  0.78525  0.27593  0.47712  1.0000
  H   H1386     1.0  0.63277  0.01568  0.37344  1.0000
  C   C1718     1.0  0.48737  0.30737  0.35490  1.0000
  C   C1719     1.0  0.59507  0.26808  0.27760  1.0000
  C   C1720     1.0  0.57981  0.43876  0.44775  1.0000
  C   C1721     1.0  0.63153  0.12512  0.38761  1.0000
  C   C1722     1.0  0.63453  0.38301  0.27635  1.0000
  H   H1387     1.0  0.64910  0.13720  0.30856  1.0000
  C   C1723     1.0  0.55423  0.26273  0.26152  1.0000
  C   C1724     1.0  0.57521  0.10525  0.25654  1.0000
  H   H1388     1.0  0.54882  0.13214  0.37458  1.0000
  C   C1725     1.0  0.80314  0.01611  0.25238  1.0000
  C   C1726     1.0  0.84063  0.02154  0.24195  1.0000
  C   C1727     1.0  0.48536  0.00390  0.26489  1.0000
  H   H1389     1.0  0.59200  0.23681  0.25918  1.0000
  C   C1728     1.0  0.66992  0.26488  0.43828  1.0000
  C   C1729     1.0  0.49147  0.17438  0.37388  1.0000
  C   C1730     1.0  0.61176  0.10168  0.38662  1.0000
  C   C1731     1.0  0.62182  0.23484  0.47293  1.0000
  C   C1732     1.0  0.61932  0.26396  0.31801  1.0000
  C   C1733     1.0  0.61104  0.35548  0.29241  1.0000
  P   P58       1.0  0.69222  0.23662  0.46184  1.0000
  C   C1734     1.0  0.60507  0.39024  0.29657  1.0000
  S   S234      1.0  0.73109  0.45248  0.47267  1.0000
  C   C1735     1.0  0.62195  0.47717  0.46847  1.0000
  C   C1736     1.0  0.73849  0.33902  0.46457  1.0000
  H   H1390     1.0  0.62766  0.45460  0.46295  1.0000
  P   P59       1.0  0.61340  0.06097  0.35047  1.0000
  H   H1391     1.0  0.76858  0.02245  0.24025  1.0000
  C   C1737     1.0  0.65767  0.09640  0.32364  1.0000
  C   C1738     1.0  0.64218  0.02524  0.29063  1.0000
  H   H1392     1.0  0.76104  0.31248  0.45160  1.0000
  H   H1393     1.0  0.90408  0.09025  0.25312  1.0000
  C   C1739     1.0  0.52768  0.05304  0.34329  1.0000
  Fe  Fe117     1.0  0.69711  0.03158  0.47258  1.0000
  C   C1740     1.0  0.60963  0.11197  0.33007  1.0000
  C   C1741     1.0  0.71038  0.27665  0.46328  1.0000
  C   C1742     1.0  0.56417  0.08755  0.34954  1.0000
  H   H1394     1.0  0.48548  0.32538  0.34649  1.0000
  H   H1395     1.0  0.67604  0.08985  0.32092  1.0000
  C   C1743     1.0  0.63546  0.00098  0.36482  1.0000
  H   H1396     1.0  0.97256  0.15293  0.24238  1.0000
  H   H1397     1.0  0.48956  0.10527  0.29465  1.0000
  H   H1398     1.0  0.67052  0.46993  0.42075  1.0000
  C   C1744     1.0  0.49231  0.26083  0.37660  1.0000
  C   C1745     1.0  0.49843  0.31912  0.36680  1.0000
  H   H1399     1.0  0.49414  0.24345  0.38518  1.0000
  C   C1746     1.0  0.50066  0.29595  0.37765  1.0000
  H   H1400     1.0  0.58757  0.00172  0.27749  1.0000
  H   H1401     1.0  0.73094  0.00490  0.42075  1.0000
  C   C1747     1.0  0.50575  0.01662  0.25908  1.0000
  H   H1402     1.0  0.71202  0.35956  0.47672  1.0000
  C   C1748     1.0  0.50056  0.49364  0.23033  1.0000
  C   C1749     1.0  0.48663  0.19513  0.33931  1.0000
  H   H1403     1.0  0.96966  0.31573  0.46503  1.0000
  H   H1404     1.0  0.56545  0.00535  0.24798  1.0000
  C   C1750     1.0  0.63932  0.48653  0.43071  1.0000
  C   C1751     1.0  0.51403  0.49599  0.24257  1.0000
  C   C1752     1.0  0.82622  0.02574  0.22994  1.0000
  C   C1753     1.0  0.66276  0.49059  0.42647  1.0000
  H   H1405     1.0  0.62642  0.00727  0.33187  1.0000
  H   H1406     1.0  0.53491  0.99798  0.33830  1.0000
  Fe  Fe118     1.0  0.90747  0.23659  0.54674  1.0000
  S   S235      1.0  0.88635  0.28715  0.55179  1.0000
  S   S236      1.0  0.94863  0.21670  0.54914  1.0000
  Fe  Fe119     1.0  0.85865  0.19774  0.53830  1.0000
  S   S237      1.0  0.83410  0.24418  0.54313  1.0000
  S   S238      1.0  0.84803  0.14518  0.52875  1.0000
  Fe  Fe120     1.0  0.86002  0.27921  0.53354  1.0000
  S   S239      1.0  0.84499  0.31730  0.51661  1.0000
  Fe  Fe121     1.0  0.86159  0.24878  0.56104  1.0000
  S   S240      1.0  0.84671  0.25951  0.58027  1.0000
  S   S241      1.0  0.88344  0.23204  0.52775  1.0000
  S   S242      1.0  0.88382  0.19905  0.55702  1.0000
  Fe  Fe122     1.0  0.93103  0.18503  0.67971  1.0000
  S   S243      1.0  0.89924  0.19045  0.69184  1.0000
  P   P60       1.0  0.95796  0.39050  0.72270  1.0000
  Fe  Fe123     1.0  0.89647  0.19789  0.65442  1.0000
  S   S244      1.0  0.86237  0.20525  0.66478  1.0000
  S   S245      1.0  0.90089  0.19056  0.63312  1.0000
  Fe  Fe124     1.0  0.88628  0.23881  0.67893  1.0000
  S   S246      1.0  0.87016  0.28839  0.68863  1.0000
  Fe  Fe125     1.0  0.87766  0.15661  0.67684  1.0000
  S   S247      1.0  0.85104  0.11320  0.68225  1.0000
  S   S248      1.0  0.91926  0.23494  0.66754  1.0000
  S   S249      1.0  0.91059  0.14771  0.66585  1.0000
  S   S250      1.0  0.88588  0.45906  0.69296  1.0000
  Fe  Fe126     1.0  0.73660  0.47030  0.49336  1.0000
  S   S251      1.0  0.69599  0.46692  0.49624  1.0000
  S   S252      1.0  0.76336  0.44765  0.51060  1.0000
  Fe  Fe127     1.0  0.72802  0.04259  0.49853  1.0000
  S   S253      1.0  0.73955  0.08909  0.51154  1.0000
  S   S254      1.0  0.68671  0.04466  0.49219  1.0000
  C   C1754     1.0  0.84394  0.07004  0.67584  1.0000
  C   C1755     1.0  0.85642  0.05475  0.66611  1.0000
  H   H1407     1.0  0.91740  0.34150  0.71461  1.0000
  H   H1408     1.0  0.97503  0.09605  0.72323  1.0000
  H   H1409     1.0  0.96833  0.25085  0.57639  1.0000
  C   C1756     1.0  0.82494  0.05058  0.68072  1.0000
  H   H1410     1.0  0.87116  0.06916  0.66228  1.0000
  H   H1411     1.0  0.65081  0.04033  0.56636  1.0000
  H   H1412     1.0  0.81519  0.06202  0.68828  1.0000
  C   C1757     1.0  0.87558  0.33560  0.68995  1.0000
  C   C1758     1.0  0.89335  0.35288  0.68346  1.0000
  C   C1759     1.0  0.89647  0.39042  0.68466  1.0000
  C   C1760     1.0  0.88203  0.41132  0.69241  1.0000
  C   C1761     1.0  0.86464  0.39388  0.69911  1.0000
  C   C1762     1.0  0.86140  0.35642  0.69783  1.0000
  H   H1413     1.0  0.90461  0.33727  0.67750  1.0000
  H   H1414     1.0  0.91002  0.40345  0.67944  1.0000
  H   H1415     1.0  0.85330  0.40934  0.70508  1.0000
  H   H1416     1.0  0.84764  0.34348  0.70295  1.0000
  C   C1763     1.0  0.82036  0.35094  0.51518  1.0000
  C   C1764     1.0  0.81169  0.36669  0.52598  1.0000
  C   C1765     1.0  0.79394  0.39579  0.52438  1.0000
  C   C1766     1.0  0.78429  0.40915  0.51198  1.0000
  C   C1767     1.0  0.79221  0.39245  0.50116  1.0000
  C   C1768     1.0  0.81028  0.36375  0.50277  1.0000
  H   H1417     1.0  0.81933  0.35732  0.53558  1.0000
  H   H1418     1.0  0.78797  0.40847  0.53281  1.0000
  H   H1419     1.0  0.78506  0.40240  0.49156  1.0000
  H   H1420     1.0  0.81687  0.35184  0.49435  1.0000
  C   C1769     1.0  0.88478  0.20937  0.61862  1.0000
  C   C1770     1.0  0.86362  0.23225  0.61847  1.0000
  C   C1771     1.0  0.85203  0.24733  0.60666  1.0000
  C   C1772     1.0  0.86159  0.23988  0.59494  1.0000
  C   C1773     1.0  0.88262  0.21678  0.59513  1.0000
  C   C1774     1.0  0.89390  0.20122  0.60688  1.0000
  H   H1421     1.0  0.85623  0.23834  0.62743  1.0000
  H   H1422     1.0  0.83561  0.26487  0.60660  1.0000
  H   H1423     1.0  0.89022  0.21080  0.58621  1.0000
  H   H1424     1.0  0.90994  0.18300  0.60682  1.0000
  C   C1775     1.0  0.81750  0.13191  0.52332  1.0000
  C   C1776     1.0  0.79641  0.14787  0.52782  1.0000
  C   C1777     1.0  0.77262  0.13466  0.52399  1.0000
  C   C1778     1.0  0.76972  0.10553  0.51560  1.0000
  C   C1779     1.0  0.79076  0.08993  0.51096  1.0000
  C   C1780     1.0  0.81456  0.10290  0.51490  1.0000
  H   H1425     1.0  0.79854  0.16966  0.53452  1.0000
  H   H1426     1.0  0.75640  0.14678  0.52764  1.0000
  H   H1427     1.0  0.78874  0.06769  0.50443  1.0000
  H   H1428     1.0  0.83082  0.09029  0.51145  1.0000
  C   C1781     1.0  0.93448  0.29706  0.70572  1.0000
  C   C1782     1.0  0.90434  0.07694  0.70642  1.0000
  C   C1783     1.0  0.86934  0.06950  0.62661  1.0000
  H   H1429     1.0  0.95426  0.44808  0.67906  1.0000
  C   C1784     1.0  0.81112  0.23176  0.50462  1.0000
  C   C1785     1.0  0.80878  0.24571  0.49195  1.0000
  C   C1786     1.0  0.68579  0.33413  0.50554  1.0000
  C   C1787     1.0  0.81857  0.09961  0.55674  1.0000
  H   H1430     1.0  0.80189  0.06779  0.59787  1.0000
  C   C1788     1.0  0.78370  0.06179  0.55934  1.0000
  C   C1789     1.0  0.72325  0.36681  0.50375  1.0000
  H   H1431     1.0  0.92638  0.08343  0.58401  1.0000
  C   C1790     1.0  0.60525  0.05904  0.72455  1.0000
  H   H1432     1.0  0.73208  0.39125  0.50113  1.0000
  C   C1791     1.0  0.79187  0.23760  0.51232  1.0000
  C   C1792     1.0  0.73329  0.04019  0.53867  1.0000
  C   C1793     1.0  0.81837  0.04757  0.61676  1.0000
  H   H1433     1.0  0.90570  0.32135  0.58095  1.0000
  C   C1794     1.0  0.89264  0.10540  0.71227  1.0000
  H   H1434     1.0  0.92131  0.09821  0.64465  1.0000
  C   C1795     1.0  0.69726  0.36574  0.50245  1.0000
  H   H1435     1.0  0.68758  0.10072  0.72485  1.0000
  H   H1436     1.0  0.83069  0.01895  0.63485  1.0000
  C   C1796     1.0  0.77012  0.25744  0.50743  1.0000
  H   H1437     1.0  0.69087  0.27972  0.51254  1.0000
  H   H1438     1.0  0.93603  0.25119  0.61243  1.0000
  C   C1797     1.0  0.82178  0.15844  0.59010  1.0000
  C   C1798     1.0  0.95204  0.06938  0.68661  1.0000
  C   C1799     1.0  0.69458  0.16806  0.51698  1.0000
  C   C1800     1.0  0.92413  0.05656  0.71335  1.0000
  H   H1439     1.0  0.87583  0.48772  0.62481  1.0000
  C   C1801     1.0  0.97900  0.33346  0.71007  1.0000
  C   C1802     1.0  0.95656  0.42294  0.69804  1.0000
  C   C1803     1.0  0.96607  0.32518  0.52669  1.0000
  H   H1440     1.0  0.93769  0.29809  0.56764  1.0000
  C   C1804     1.0  0.91980  0.30160  0.58506  1.0000
  H   H1441     1.0  0.97327  0.13762  0.61293  1.0000
  H   H1442     1.0  0.84444  0.07995  0.54403  1.0000
  C   C1805     1.0  0.91958  0.28837  0.59771  1.0000
  H   H1443     1.0  0.79797  0.10883  0.65981  1.0000
  C   C1806     1.0  0.84978  0.02068  0.66128  1.0000
  P   P61       1.0  0.83826  0.08538  0.62020  1.0000
  C   C1807     1.0  0.81442  0.04378  0.54525  1.0000
  C   C1808     1.0  0.90942  0.40991  0.72738  1.0000
  C   C1809     1.0  0.75979  0.27156  0.53396  1.0000
  H   H1444     1.0  0.78575  0.33626  0.55343  1.0000
  H   H1445     1.0  0.92925  0.25991  0.51352  1.0000
  C   C1810     1.0  0.67063  0.24102  0.48475  1.0000
  H   H1446     1.0  0.64050  0.45477  0.48640  1.0000
  H   H1447     1.0  0.96893  0.28925  0.55155  1.0000
  H   H1448     1.0  0.87754  0.12118  0.70685  1.0000
  H   H1449     1.0  0.92380  0.13821  0.56971  1.0000
  C   C1811     1.0  0.79218  0.03730  0.55058  1.0000
  C   C1812     1.0  0.80619  0.12077  0.65177  1.0000
  C   C1813     1.0  0.83998  0.11218  0.60561  1.0000
  H   H1450     1.0  0.73835  0.20425  0.50019  1.0000
  C   C1814     1.0  0.69711  0.01064  0.71399  1.0000
  C   C1815     1.0  0.94568  0.27567  0.51568  1.0000
  C   C1816     1.0  0.70031  0.30371  0.51020  1.0000
  H   H1451     1.0  0.95114  0.08352  0.60564  1.0000
  C   C1817     1.0  0.82743  0.29812  0.66283  1.0000
  C   C1818     1.0  0.80776  0.32069  0.66577  1.0000
  C   C1819     1.0  0.80454  0.35542  0.66028  1.0000
  C   C1820     1.0  0.82120  0.36770  0.65197  1.0000
  C   C1821     1.0  0.84153  0.34554  0.64929  1.0000
  C   C1822     1.0  0.84435  0.31042  0.65466  1.0000
  P   P62       1.0  0.86282  0.36165  0.63846  1.0000
  C   C1823     1.0  0.86705  0.40916  0.64103  1.0000
  C   C1824     1.0  0.89276  0.33786  0.64195  1.0000
  C   C1825     1.0  0.91171  0.35160  0.65066  1.0000
  C   C1826     1.0  0.93475  0.33288  0.65331  1.0000
  C   C1827     1.0  0.93907  0.30042  0.64725  1.0000
  C   C1828     1.0  0.92027  0.28646  0.63865  1.0000
  C   C1829     1.0  0.89719  0.30499  0.63605  1.0000
  C   C1830     1.0  0.86759  0.42273  0.65355  1.0000
  C   C1831     1.0  0.93576  0.10744  0.58729  1.0000
  C   C1832     1.0  0.95524  0.24825  0.59528  1.0000
  H   H1452     1.0  0.66561  0.33331  0.50426  1.0000
  C   C1833     1.0  0.87009  0.43285  0.63067  1.0000
  C   C1834     1.0  0.85031  0.35402  0.62191  1.0000
  C   C1835     1.0  0.86620  0.35325  0.61212  1.0000
  C   C1836     1.0  0.85674  0.34625  0.59939  1.0000
  C   C1837     1.0  0.83139  0.34024  0.59630  1.0000
  C   C1838     1.0  0.81540  0.34135  0.60594  1.0000
  C   C1839     1.0  0.82479  0.34818  0.61870  1.0000
  H   H1453     1.0  0.83012  0.27147  0.66733  1.0000
  H   H1454     1.0  0.79522  0.31134  0.67245  1.0000
  H   H1455     1.0  0.78931  0.37296  0.66261  1.0000
  H   H1456     1.0  0.81833  0.39465  0.64775  1.0000
  H   H1457     1.0  0.85977  0.29266  0.65279  1.0000
  H   H1458     1.0  0.90873  0.37644  0.65558  1.0000
  H   H1459     1.0  0.94912  0.34333  0.66020  1.0000
  C   C1840     1.0  0.64281  0.01094  0.54888  1.0000
  H   H1460     1.0  0.92338  0.26082  0.63422  1.0000
  H   H1461     1.0  0.88275  0.29345  0.62952  1.0000
  H   H1462     1.0  0.86536  0.40504  0.66172  1.0000
  H   H1463     1.0  0.81212  0.07013  0.64317  1.0000
  C   C1841     1.0  0.81444  0.09878  0.64227  1.0000
  C   C1842     1.0  0.62944  0.47733  0.48176  1.0000
  H   H1464     1.0  0.86980  0.42324  0.62094  1.0000
  H   H1465     1.0  0.88594  0.35770  0.61435  1.0000
  H   H1466     1.0  0.86904  0.34489  0.59188  1.0000
  H   H1467     1.0  0.82427  0.33407  0.58646  1.0000
  H   H1468     1.0  0.79578  0.33640  0.60353  1.0000
  H   H1469     1.0  0.81207  0.34851  0.62601  1.0000
  C   C1843     1.0  0.79675  0.09304  0.56231  1.0000
  C   C1844     1.0  0.72652  0.30460  0.51170  1.0000
  C   C1845     1.0  0.64203  0.01977  0.72456  1.0000
  C   C1846     1.0  0.73785  0.33634  0.50825  1.0000
  C   C1847     1.0  0.94867  0.48692  0.69358  1.0000
  H   H1470     1.0  0.78987  0.11236  0.56882  1.0000
  H   H1471     1.0  0.82845  0.12416  0.55869  1.0000
  P   P63       1.0  0.74558  0.26528  0.51758  1.0000
  C   C1848     1.0  0.90928  0.08034  0.63894  1.0000
  C   C1849     1.0  0.82983  0.15109  0.63184  1.0000
  H   H1472     1.0  0.87941  0.13128  0.58318  1.0000
  C   C1850     1.0  0.94479  0.30516  0.52372  1.0000
  H   H1473     1.0  0.70143  0.07259  0.53026  1.0000
  H   H1474     1.0  0.68950  0.24274  0.48944  1.0000
  H   H1475     1.0  0.80347  0.17467  0.65876  1.0000
  C   C1851     1.0  0.87353  0.46951  0.63283  1.0000
  C   C1852     1.0  0.82621  0.11376  0.63215  1.0000
  C   C1853     1.0  0.78459  0.28011  0.55890  1.0000
  C   C1854     1.0  0.76530  0.24161  0.54244  1.0000
  C   C1855     1.0  0.77960  0.30992  0.55047  1.0000
  H   H1476     1.0  0.77429  0.01691  0.59383  1.0000
  H   H1477     1.0  0.83996  0.16328  0.62458  1.0000
  H   H1478     1.0  0.98142  0.31718  0.48859  1.0000
  H   H1479     1.0  0.89776  0.07095  0.69650  1.0000
  C   C1856     1.0  0.74296  0.00518  0.54191  1.0000
  H   H1480     1.0  0.76423  0.32915  0.53168  1.0000
  C   C1857     1.0  0.76732  0.30570  0.53805  1.0000
  C   C1858     1.0  0.82011  0.13621  0.60096  1.0000
  H   H1481     1.0  0.84463  0.17444  0.57547  1.0000
  H   H1482     1.0  0.79469  0.28327  0.56841  1.0000
  H   H1483     1.0  0.79419  0.22683  0.52211  1.0000
  C   C1859     1.0  0.93420  0.13826  0.57926  1.0000
  H   H1484     1.0  0.82804  0.21689  0.50858  1.0000
  H   H1485     1.0  0.77833  0.01991  0.52059  1.0000
  C   C1860     1.0  0.80234  0.04649  0.60514  1.0000
  H   H1486     1.0  0.80358  0.13840  0.60594  1.0000
  C   C1861     1.0  0.90238  0.02280  0.62896  1.0000
  C   C1862     1.0  0.77740  0.24598  0.55490  1.0000
  H   H1487     1.0  0.70980  0.24136  0.53480  1.0000
  H   H1488     1.0  0.82398  0.20175  0.64088  1.0000
  C   C1863     1.0  0.91785  0.04553  0.63649  1.0000
  H   H1489     1.0  0.61095  0.23619  0.49215  1.0000
  H   H1490     1.0  0.75081  0.28529  0.49044  1.0000
  C   C1864     1.0  0.76757  0.27051  0.49456  1.0000
  H   H1491     1.0  0.67439  0.02038  0.52615  1.0000
  C   C1865     1.0  0.87828  0.03481  0.62392  1.0000
  H   H1492     1.0  0.76082  0.21472  0.53935  1.0000
  C   C1866     1.0  0.71017  0.22214  0.52713  1.0000
  C   C1867     1.0  0.72607  0.20164  0.50762  1.0000
  C   C1868     1.0  0.93777  0.28847  0.57754  1.0000
  P   P64       1.0  0.94001  0.02062  0.70561  1.0000
  H   H1493     1.0  0.68598  0.38930  0.49886  1.0000
  C   C1869     1.0  0.69451  0.19285  0.52688  1.0000
  H   H1494     1.0  0.68237  0.18927  0.53437  1.0000
  H   H1495     1.0  0.68083  0.02707  0.71025  1.0000
  C   C1870     1.0  0.94691  0.49230  0.70668  1.0000
  H   H1496     1.0  0.86671  0.01695  0.61798  1.0000
  H   H1497     1.0  0.78203  0.22276  0.56130  1.0000
  C   C1871     1.0  0.94974  0.10751  0.59945  1.0000
  C   C1872     1.0  0.96391  0.19915  0.62624  1.0000
  C   C1873     1.0  0.78660  0.01758  0.60279  1.0000
  C   C1874     1.0  0.72607  0.22671  0.51748  1.0000
  H   H1498     1.0  0.76686  0.05690  0.56374  1.0000
  C   C1875     1.0  0.78697  0.26493  0.48690  1.0000
  H   H1499     1.0  0.74509  0.06318  0.53956  1.0000
  C   C1876     1.0  0.95638  0.28202  0.70179  1.0000
  C   C1877     1.0  0.81846  0.01907  0.62587  1.0000
  H   H1500     1.0  0.68274  0.14504  0.51679  1.0000
  H   H1501     1.0  0.87698  0.09221  0.60243  1.0000
  C   C1878     1.0  0.94979  0.46305  0.71546  1.0000
  H   H1502     1.0  0.96544  0.34776  0.53307  1.0000
  H   H1503     1.0  0.63779  0.03485  0.54286  1.0000
  H   H1504     1.0  0.94611  0.19037  0.62182  1.0000
  C   C1879     1.0  0.95711  0.34848  0.71422  1.0000
  S   S255      1.0  0.97309  0.17947  0.68550  1.0000
  C   C1880     1.0  0.86128  0.11016  0.59902  1.0000
  C   C1881     1.0  0.62636  0.23726  0.48635  1.0000
  H   H1505     1.0  0.75801  0.33758  0.50901  1.0000
  H   H1506     1.0  0.92766  0.31219  0.52775  1.0000
  C   C1882     1.0  0.80939  0.15788  0.65121  1.0000
  C   C1883     1.0  0.95529  0.26179  0.58259  1.0000
  H   H1507     1.0  0.58556  0.06476  0.72161  1.0000
  C   C1884     1.0  0.82755  0.07472  0.54838  1.0000
  H   H1508     1.0  0.95438  0.19031  0.64558  1.0000
  H   H1509     1.0  0.96806  0.24353  0.50421  1.0000
  H   H1510     1.0  0.93648  0.03623  0.64044  1.0000
  P   P65       1.0  0.97566  0.21020  0.60103  1.0000
  C   C1885     1.0  0.86273  0.13216  0.58807  1.0000
  C   C1886     1.0  0.71025  0.17260  0.50735  1.0000
  H   H1511     1.0  0.82176  0.02522  0.53864  1.0000
  H   H1512     1.0  0.58369  0.49595  0.50502  1.0000
  C   C1887     1.0  0.84308  0.15643  0.58367  1.0000
  H   H1513     1.0  0.91724  0.28288  0.70404  1.0000
  C   C1888     1.0  0.70843  0.04567  0.53330  1.0000
  H   H1514     1.0  0.95677  0.28560  0.64944  1.0000
  C   C1889     1.0  0.87107  0.45933  0.65567  1.0000
  H   H1515     1.0  0.82401  0.24189  0.48613  1.0000
  H   H1516     1.0  0.65431  0.24149  0.50270  1.0000
  C   C1890     1.0  0.88511  0.09227  0.63407  1.0000
  H   H1517     1.0  0.90515  0.29758  0.60341  1.0000
  H   H1518     1.0  0.93315  0.08024  0.68624  1.0000
  C   C1891     1.0  0.96776  0.26632  0.51051  1.0000
  C   C1892     1.0  0.94628  0.16930  0.58344  1.0000
  C   C1893     1.0  0.97946  0.23313  0.55068  1.0000
  H   H1519     1.0  0.95346  0.13610  0.70569  1.0000
  H   H1520     1.0  0.87886  0.11933  0.63613  1.0000
  C   C1894     1.0  0.82103  0.17306  0.64118  1.0000
  C   C1895     1.0  0.65077  0.24031  0.49227  1.0000
  C   C1896     1.0  0.61691  0.02803  0.72034  1.0000
  H   H1521     1.0  0.87149  0.46950  0.66538  1.0000
  H   H1522     1.0  0.80688  0.17797  0.58684  1.0000
  H   H1523     1.0  0.94494  0.19262  0.57695  1.0000
  C   C1897     1.0  0.96803  0.08528  0.67866  1.0000
  C   C1898     1.0  0.97359  0.13264  0.70677  1.0000
  H   H1524     1.0  0.94785  0.46768  0.72553  1.0000
  C   C1899     1.0  0.93473  0.33027  0.71182  1.0000
  H   H1525     1.0  0.90691  0.42161  0.71769  1.0000
  C   C1900     1.0  0.90042  0.11373  0.72506  1.0000
  C   C1901     1.0  0.65017  0.01397  0.56211  1.0000
  H   H1526     1.0  0.71053  0.15297  0.49983  1.0000
  C   C1902     1.0  0.93138  0.06463  0.72635  1.0000
  C   C1903     1.0  0.93721  0.26183  0.60280  1.0000
  C   C1904     1.0  0.96067  0.04051  0.69508  1.0000
  H   H1527     1.0  0.60637  0.00991  0.71398  1.0000
  C   C1905     1.0  0.95352  0.45228  0.68927  1.0000
  C   C1906     1.0  0.87403  0.48274  0.64532  1.0000
  C   C1907     1.0  0.96859  0.19897  0.63973  1.0000
  H   H1528     1.0  0.95609  0.25613  0.69713  1.0000
  H   H1529     1.0  0.95975  0.39630  0.69443  1.0000
  C   C1908     1.0  0.95474  0.42812  0.71122  1.0000
  C   C1909     1.0  0.97862  0.30030  0.70392  1.0000
  C   C1910     1.0  0.69323  0.01631  0.53094  1.0000
  H   H1530     1.0  0.85982  0.00904  0.65388  1.0000
  H   H1531     1.0  0.96151  0.10844  0.67253  1.0000
  C   C1911     1.0  0.81819  0.01664  0.67584  1.0000
  C   C1912     1.0  0.96009  0.16983  0.59572  1.0000
  C   C1913     1.0  0.96210  0.13842  0.60360  1.0000
  H   H1532     1.0  0.52916  0.40181  0.72361  1.0000
  H   H1533     1.0  0.80336  0.00233  0.67963  1.0000
  H   H1534     1.0  0.74850  0.11175  0.48269  1.0000
  C   C1914     1.0  0.83045  0.00150  0.66601  1.0000
  H   H1535     1.0  0.76914  0.17006  0.48167  1.0000
  H   H1536     1.0  0.88748  0.00464  0.70761  1.0000
  C   C1915     1.0  0.97944  0.00222  0.72466  1.0000
  C   C1916     1.0  0.70474  0.00746  0.72735  1.0000
  S   S256      1.0  0.73859  0.03271  0.47862  1.0000
  C   C1917     1.0  0.98204  0.21032  0.61851  1.0000
  C   C1918     1.0  0.73805  0.13540  0.47845  1.0000
  H   H1537     1.0  0.57047  0.02862  0.78652  1.0000
  S   S257      1.0  0.74366  0.42122  0.95930  1.0000
  H   H1538     1.0  0.72754  0.04988  0.75915  1.0000
  C   C1919     1.0  0.57586  0.48494  0.76142  1.0000
  S   S258      1.0  0.71297  0.05128  0.95451  1.0000
  H   H1539     1.0  0.50537  0.28089  0.89209  1.0000
  Fe  Fe128     1.0  0.61194  0.25852  0.91950  1.0000
  S   S259      1.0  0.62229  0.20344  0.91266  1.0000
  S   S260      1.0  0.64499  0.29528  0.92215  1.0000
  Fe  Fe129     1.0  0.55610  0.24108  0.91888  1.0000
  S   S261      1.0  0.56318  0.18468  0.91257  1.0000
  S   S262      1.0  0.51792  0.26519  0.92278  1.0000
  Fe  Fe130     1.0  0.59783  0.18304  0.92704  1.0000
  S   S263      1.0  0.60780  0.13726  0.94197  1.0000
  Fe  Fe131     1.0  0.58718  0.21041  0.89878  1.0000
  S   S264      1.0  0.58187  0.19332  0.87783  1.0000
  S   S265      1.0  0.58896  0.23789  0.93455  1.0000
  S   S266      1.0  0.57860  0.26700  0.90441  1.0000
  Fe  Fe132     1.0  0.59896  0.32162  0.78325  1.0000
  S   S267      1.0  0.57213  0.33127  0.79776  1.0000
  S   S268      1.0  0.62029  0.36734  0.77474  1.0000
  Fe  Fe133     1.0  0.59119  0.23795  0.78379  1.0000
  S   S269      1.0  0.56389  0.24361  0.79863  1.0000
  S   S270      1.0  0.60876  0.18422  0.77722  1.0000
  Fe  Fe134     1.0  0.54786  0.29218  0.78645  1.0000
  H   H1540     1.0  0.66300  0.48256  0.77427  1.0000
  Fe  Fe135     1.0  0.59039  0.28247  0.80857  1.0000
  S   S271      1.0  0.60520  0.28945  0.82976  1.0000
  S   S272      1.0  0.57368  0.28470  0.77109  1.0000
  S   S273      1.0  0.61867  0.27470  0.79455  1.0000
  C   C1920     1.0  0.61544  0.38021  0.82843  1.0000
  C   C1921     1.0  0.62823  0.41028  0.78116  1.0000
  C   C1922     1.0  0.64348  0.43251  0.77454  1.0000
  C   C1923     1.0  0.65110  0.46608  0.77945  1.0000
  H   H1541     1.0  0.54109  0.11296  0.84669  1.0000
  C   C1924     1.0  0.62761  0.45630  0.79752  1.0000
  C   C1925     1.0  0.62030  0.42247  0.79270  1.0000
  H   H1542     1.0  0.64977  0.42344  0.76562  1.0000
  C   C1926     1.0  0.71472  0.13263  0.73563  1.0000
  H   H1543     1.0  0.62133  0.46537  0.80644  1.0000
  H   H1544     1.0  0.60869  0.40572  0.79795  1.0000
  C   C1927     1.0  0.60035  0.13986  0.77208  1.0000
  C   C1928     1.0  0.61917  0.11532  0.76893  1.0000
  C   C1929     1.0  0.61357  0.08013  0.76475  1.0000
  C   C1930     1.0  0.58895  0.06877  0.76357  1.0000
  C   C1931     1.0  0.57020  0.09312  0.76688  1.0000
  C   C1932     1.0  0.57579  0.12829  0.77109  1.0000
  H   H1545     1.0  0.63827  0.12370  0.76968  1.0000
  H   H1546     1.0  0.62827  0.06172  0.76246  1.0000
  H   H1547     1.0  0.55109  0.08479  0.76614  1.0000
  H   H1548     1.0  0.56102  0.14650  0.77348  1.0000
  C   C1933     1.0  0.58633  0.22290  0.86482  1.0000
  C   C1934     1.0  0.57501  0.21571  0.85236  1.0000
  C   C1935     1.0  0.58034  0.23610  0.84153  1.0000
  C   C1936     1.0  0.59684  0.26422  0.84311  1.0000
  C   C1937     1.0  0.60741  0.27235  0.85563  1.0000
  C   C1938     1.0  0.60217  0.25186  0.86646  1.0000
  H   H1549     1.0  0.56224  0.19405  0.85106  1.0000
  H   H1550     1.0  0.57209  0.22967  0.83195  1.0000
  H   H1551     1.0  0.62014  0.29407  0.85692  1.0000
  H   H1552     1.0  0.61099  0.25767  0.87602  1.0000
  C   C1939     1.0  0.68370  0.07532  0.95143  1.0000
  C   C1940     1.0  0.67999  0.10055  0.94103  1.0000
  C   C1941     1.0  0.65700  0.11994  0.93807  1.0000
  C   C1942     1.0  0.63734  0.11413  0.94544  1.0000
  C   C1943     1.0  0.64110  0.08907  0.95589  1.0000
  C   C1944     1.0  0.66415  0.06987  0.95892  1.0000
  H   H1553     1.0  0.69488  0.10474  0.93511  1.0000
  H   H1554     1.0  0.65435  0.13898  0.92999  1.0000
  H   H1555     1.0  0.62601  0.08431  0.96165  1.0000
  H   H1556     1.0  0.66668  0.05052  0.96692  1.0000
  C   C1945     1.0  0.66796  0.36633  0.95676  1.0000
  C   C1946     1.0  0.64425  0.35134  0.95539  1.0000
  C   C1947     1.0  0.63704  0.32865  0.94505  1.0000
  C   C1948     1.0  0.65360  0.32072  0.93602  1.0000
  C   C1949     1.0  0.67756  0.33466  0.93770  1.0000
  C   C1950     1.0  0.68469  0.35753  0.94794  1.0000
  H   H1557     1.0  0.75434  0.36411  0.92775  1.0000
  H   H1558     1.0  0.61853  0.31801  0.94389  1.0000
  H   H1559     1.0  0.69055  0.32832  0.93090  1.0000
  H   H1560     1.0  0.70293  0.36895  0.94881  1.0000
  C   C1951     1.0  0.59765  0.09137  0.86845  1.0000
  H   H1561     1.0  0.66537  0.31668  0.82826  1.0000
  H   H1562     1.0  0.93490  0.45699  0.75219  1.0000
  C   C1952     1.0  0.61232  0.35964  0.89950  1.0000
  C   C1953     1.0  0.51210  0.39106  0.79726  1.0000
  H   H1563     1.0  0.52003  0.32602  0.75843  1.0000
  C   C1954     1.0  0.71305  0.35756  0.86620  1.0000
  H   H1564     1.0  0.60959  0.10572  0.73638  1.0000
  C   C1955     1.0  0.50100  0.17345  0.93495  1.0000
  H   H1565     1.0  0.60037  0.35071  0.90655  1.0000
  H   H1566     1.0  0.62045  0.35096  0.86785  1.0000
  H   H1567     1.0  0.51764  0.16862  0.93022  1.0000
  H   H1568     1.0  0.92583  0.09973  0.74204  1.0000
  C   C1956     1.0  0.67624  0.44240  0.91284  1.0000
  C   C1957     1.0  0.51765  0.18383  0.88000  1.0000
  H   H1569     1.0  0.64148  0.24599  0.94724  1.0000
  C   C1958     1.0  0.76527  0.32089  0.96074  1.0000
  H   H1570     1.0  0.73351  0.47694  0.82724  1.0000
  C   C1959     1.0  0.52134  0.33925  0.86890  1.0000
  H   H1571     1.0  0.53502  0.17283  0.88505  1.0000
  H   H1572     1.0  0.87623  0.39771  0.75290  1.0000
  C   C1960     1.0  0.65045  0.19908  0.95966  1.0000
  H   H1573     1.0  0.53209  0.23625  0.87737  1.0000
  H   H1574     1.0  0.63120  0.35787  0.96222  1.0000
  C   C1961     1.0  0.72428  0.45219  0.87486  1.0000
  C   C1962     1.0  0.62386  0.35939  0.87776  1.0000
  C   C1963     1.0  0.53034  0.42415  0.74259  1.0000
  C   C1964     1.0  0.50050  0.33325  0.75861  1.0000
  P   P66       1.0  0.67889  0.41042  0.90010  1.0000
  H   H1575     1.0  0.95155  0.36303  0.74892  1.0000
  H   H1576     1.0  0.55075  0.37323  0.89646  1.0000
  C   C1965     1.0  0.55157  0.43452  0.79273  1.0000
  S   S274      1.0  0.67608  0.39561  0.96963  1.0000
  H   H1577     1.0  0.59194  0.33293  0.88368  1.0000
  C   C1966     1.0  0.95318  0.46749  0.75499  1.0000
  C   C1967     1.0  0.70107  0.37532  0.90675  1.0000
  H   H1578     1.0  0.54576  0.28921  0.82952  1.0000
  H   H1579     1.0  0.51728  0.44607  0.73932  1.0000
  C   C1968     1.0  0.71392  0.31193  0.90962  1.0000
  C   C1969     1.0  0.72998  0.28209  0.95924  1.0000
  H   H1580     1.0  0.57753  0.36355  0.82544  1.0000
  C   C1970     1.0  0.72356  0.07295  0.75262  1.0000
  H   H1581     1.0  0.65383  0.45694  0.87919  1.0000
  P   P67       1.0  0.53205  0.45291  0.76723  1.0000
  H   H1582     1.0  0.70902  0.31152  0.87865  1.0000
  C   C1971     1.0  0.54019  0.42038  0.75566  1.0000
  H   H1583     1.0  0.66857  0.29504  0.86686  1.0000
  H   H1584     1.0  0.53920  0.08184  0.81744  1.0000
  C   C1972     1.0  0.65594  0.04315  0.73269  1.0000
  H   H1585     1.0  0.51123  0.28903  0.81169  1.0000
  C   C1973     1.0  0.73860  0.35708  0.92095  1.0000
  C   C1974     1.0  0.67997  0.36876  0.84850  1.0000
  H   H1586     1.0  0.59601  0.42810  0.85870  1.0000
  H   H1587     1.0  0.68095  0.38369  0.78849  1.0000
  C   C1975     1.0  0.49710  0.16200  0.87789  1.0000
  H   H1588     1.0  0.53092  0.32147  0.90600  1.0000
  C   C1976     1.0  0.72195  0.38416  0.91529  1.0000
  C   C1977     1.0  0.89188  0.39633  0.74723  1.0000
  H   H1589     1.0  0.67853  0.31734  0.78853  1.0000
  H   H1590     1.0  0.49687  0.20991  0.90514  1.0000
  C   C1978     1.0  0.53205  0.43014  0.78279  1.0000
  C   C1979     1.0  0.74050  0.31500  0.96252  1.0000
  C   C1980     1.0  0.53727  0.39937  0.73361  1.0000
  C   C1981     1.0  0.55456  0.37128  0.73754  1.0000
  C   C1982     1.0  0.56495  0.36803  0.75045  1.0000
  C   C1983     1.0  0.55767  0.39227  0.75951  1.0000
  H   H1591     1.0  0.48629  0.42012  0.75613  1.0000
  C   C1984     1.0  0.67349  0.45328  0.93562  1.0000
  H   H1592     1.0  0.77171  0.20818  0.97167  1.0000
  H   H1593     1.0  0.49728  0.37303  0.79881  1.0000
  C   C1985     1.0  0.52163  0.28420  0.84458  1.0000
  H   H1594     1.0  0.71023  0.28387  0.90782  1.0000
  H   H1595     1.0  0.68076  0.33109  0.89786  1.0000
  C   C1986     1.0  0.60141  0.41486  0.85022  1.0000
  C   C1987     1.0  0.67068  0.36960  0.81992  1.0000
  H   H1596     1.0  0.53065  0.38378  0.81659  1.0000
  H   H1597     1.0  0.57882  0.34681  0.75346  1.0000
  H   H1598     1.0  0.56600  0.38929  0.76947  1.0000
  H   H1599     1.0  0.65404  0.09205  0.74362  1.0000
  C   C1988     1.0  0.57285  0.04497  0.79507  1.0000
  C   C1989     1.0  0.51410  0.15505  0.84032  1.0000
  C   C1990     1.0  0.77978  0.29361  0.95595  1.0000
  C   C1991     1.0  0.69998  0.20807  0.95470  1.0000
  C   C1992     1.0  0.68076  0.23204  0.94918  1.0000
  P   P68       1.0  0.73102  0.21154  0.94988  1.0000
  C   C1993     1.0  0.74423  0.25462  0.95413  1.0000
  C   C1994     1.0  0.75146  0.17526  0.95730  1.0000
  C   C1995     1.0  0.52848  0.32624  0.89561  1.0000
  S   S275      1.0  0.58061  0.02425  0.75861  1.0000
  H   H1600     1.0  0.67125  0.28404  0.80858  1.0000
  C   C1996     1.0  0.70521  0.07171  0.74194  1.0000
  C   C1997     1.0  0.74865  0.13991  0.95298  1.0000
  C   C1998     1.0  0.76941  0.26054  0.95275  1.0000
  C   C1999     1.0  0.70424  0.44119  0.83090  1.0000
  C   C2000     1.0  0.93449  0.37709  0.74489  1.0000
  H   H1601     1.0  0.64382  0.46879  0.83265  1.0000
  H   H1602     1.0  0.56768  0.44978  0.79112  1.0000
  C   C2001     1.0  0.72774  0.20556  0.93252  1.0000
  C   C2002     1.0  0.70734  0.18717  0.92653  1.0000
  C   C2003     1.0  0.70444  0.18269  0.91316  1.0000
  C   C2004     1.0  0.72201  0.19605  0.90563  1.0000
  C   C2005     1.0  0.74256  0.21388  0.91147  1.0000
  C   C2006     1.0  0.74544  0.21860  0.92485  1.0000
  H   H1603     1.0  0.70792  0.15888  0.96628  1.0000
  H   H1604     1.0  0.61164  0.05345  0.79359  1.0000
  H   H1605     1.0  0.59609  0.10409  0.87763  1.0000
  C   C2007     1.0  0.64963  0.38984  0.89466  1.0000
  H   H1606     1.0  0.68461  0.25343  0.94252  1.0000
  C   C2008     1.0  0.53961  0.35548  0.89023  1.0000
  C   C2009     1.0  0.51070  0.30914  0.87421  1.0000
  C   C2010     1.0  0.69715  0.33894  0.90399  1.0000
  C   C2011     1.0  0.60227  0.05954  0.84469  1.0000
  H   H1607     1.0  0.73459  0.13400  0.94510  1.0000
  H   H1608     1.0  0.78124  0.23936  0.94944  1.0000
  C   C2012     1.0  0.62616  0.41535  0.84746  1.0000
  H   H1609     1.0  0.71081  0.27851  0.96085  1.0000
  H   H1610     1.0  0.49004  0.19890  0.83182  1.0000
  C   C2013     1.0  0.48909  0.32598  0.76974  1.0000
  H   H1611     1.0  0.69355  0.17610  0.93211  1.0000
  H   H1612     1.0  0.68850  0.16868  0.90869  1.0000
  H   H1613     1.0  0.71977  0.19231  0.89527  1.0000
  H   H1614     1.0  0.75634  0.22387  0.90563  1.0000
  H   H1615     1.0  0.76157  0.23221  0.92909  1.0000
  C   C2014     1.0  0.67901  0.43841  0.83284  1.0000
  C   C2015     1.0  0.66368  0.46995  0.83220  1.0000
  C   C2016     1.0  0.61044  0.04062  0.85627  1.0000
  C   C2017     1.0  0.58942  0.11024  0.85691  1.0000
  C   C2018     1.0  0.59148  0.09447  0.84491  1.0000
  C   C2019     1.0  0.68209  0.47399  0.86769  1.0000
  P   P69       1.0  0.58198  0.11983  0.83000  1.0000
  C   C2020     1.0  0.55226  0.14360  0.83044  1.0000
  C   C2021     1.0  0.60499  0.15287  0.82741  1.0000
  C   C2022     1.0  0.60797  0.16509  0.81482  1.0000
  C   C2023     1.0  0.62546  0.19090  0.81284  1.0000
  C   C2024     1.0  0.63951  0.20577  0.82336  1.0000
  C   C2025     1.0  0.63655  0.19414  0.83591  1.0000
  C   C2026     1.0  0.61952  0.16765  0.83794  1.0000
  C   C2027     1.0  0.54470  0.17107  0.82121  1.0000
  C   C2028     1.0  0.52231  0.19081  0.82168  1.0000
  H   H1616     1.0  0.60454  0.04688  0.83562  1.0000
  H   H1617     1.0  0.61461  0.04201  0.87711  1.0000
  C   C2029     1.0  0.53635  0.13491  0.83975  1.0000
  C   C2030     1.0  0.57860  0.08962  0.81656  1.0000
  C   C2031     1.0  0.55531  0.07538  0.81249  1.0000
  H   H1618     1.0  0.94633  0.04954  0.73207  1.0000
  C   C2032     1.0  0.68124  0.47900  0.91101  1.0000
  C   C2033     1.0  0.59613  0.05875  0.79911  1.0000
  C   C2034     1.0  0.59914  0.08046  0.80995  1.0000
  C   C2035     1.0  0.70118  0.10152  0.73334  1.0000
  H   H1619     1.0  0.57715  0.46472  0.75418  1.0000
  H   H1620     1.0  0.75113  0.10506  0.76316  1.0000
  H   H1621     1.0  0.58169  0.13737  0.85741  1.0000
  Fe  Fe136     1.0  0.74465  0.48190  0.96002  1.0000
  H   H1622     1.0  0.59675  0.15504  0.80645  1.0000
  H   H1623     1.0  0.62785  0.19971  0.80310  1.0000
  H   H1624     1.0  0.65232  0.22681  0.82179  1.0000
  H   H1625     1.0  0.64694  0.20635  0.84410  1.0000
  H   H1626     1.0  0.61736  0.15985  0.84778  1.0000
  H   H1627     1.0  0.55617  0.17747  0.81368  1.0000
  H   H1628     1.0  0.51681  0.21219  0.81456  1.0000
  H   H1629     1.0  0.71241  0.40133  0.85251  1.0000
  C   C2036     1.0  0.91439  0.37892  0.75227  1.0000
  C   C2037     1.0  0.76345  0.11144  0.95910  1.0000
  H   H1630     1.0  0.79217  0.09561  0.97448  1.0000
  C   C2038     1.0  0.67692  0.33173  0.79736  1.0000
  C   C2039     1.0  0.51584  0.21989  0.87570  1.0000
  C   C2040     1.0  0.52670  0.28706  0.83172  1.0000
  H   H1631     1.0  0.61735  0.09087  0.81292  1.0000
  C   C2041     1.0  0.55074  0.41865  0.80494  1.0000
  S   S276      1.0  0.50582  0.30491  0.78381  1.0000
  H   H1632     1.0  0.72940  0.33604  0.96648  1.0000
  H   H1633     1.0  0.63665  0.38587  0.91361  1.0000
  H   H1634     1.0  0.62048  0.36587  0.82010  1.0000
  C   C2042     1.0  0.66946  0.33183  0.81985  1.0000
  H   H1635     1.0  0.72517  0.41196  0.91777  1.0000
  C   C2043     1.0  0.88938  0.41164  0.73477  1.0000
  C   C2044     1.0  0.53100  0.39693  0.80724  1.0000
  C   C2045     1.0  0.60768  0.34942  0.88665  1.0000
  H   H1636     1.0  0.63985  0.42861  0.85396  1.0000
  H   H1637     1.0  0.74719  0.30005  0.92277  1.0000
  H   H1638     1.0  0.67656  0.05231  0.76430  1.0000
  H   H1639     1.0  0.73065  0.36481  0.87140  1.0000
  C   C2046     1.0  0.70266  0.37816  0.85537  1.0000
  C   C2047     1.0  0.73461  0.32099  0.91812  1.0000
  C   C2048     1.0  0.65619  0.22774  0.95175  1.0000
  C   C2049     1.0  0.48681  0.25383  0.91687  1.0000
  C   C2050     1.0  0.70086  0.32757  0.87032  1.0000
  C   C2051     1.0  0.67815  0.31822  0.86366  1.0000
  C   C2052     1.0  0.69018  0.43378  0.88660  1.0000
  C   C2053     1.0  0.59088  0.37897  0.83142  1.0000
  H   H1640     1.0  0.71606  0.41717  0.83049  1.0000
  C   C2054     1.0  0.67824  0.36918  0.79733  1.0000
  C   C2055     1.0  0.67269  0.31305  0.80864  1.0000
  P   P70       1.0  0.66600  0.39430  0.83430  1.0000
  C   C2056     1.0  0.66774  0.33872  0.85283  1.0000
  H   H1641     1.0  0.54429  0.38507  0.87272  1.0000
  H   H1642     1.0  0.55999  0.35204  0.73061  1.0000
  C   C2057     1.0  0.64489  0.37904  0.88177  1.0000
  C   C2058     1.0  0.53602  0.36202  0.87687  1.0000
  H   H1643     1.0  0.51972  0.20548  0.94974  1.0000
  C   C2059     1.0  0.93228  0.39304  0.73244  1.0000
  C   C2060     1.0  0.67493  0.38812  0.80850  1.0000
  C   C2061     1.0  0.69400  0.17917  0.96256  1.0000
  C   C2062     1.0  0.55249  0.05311  0.80179  1.0000
  C   C2063     1.0  0.76949  0.18155  0.96781  1.0000
  H   H1644     1.0  0.50229  0.14900  0.84776  1.0000
  C   C2064     1.0  0.60812  0.05652  0.86814  1.0000
  Fe  Fe137     1.0  0.71182  0.42666  0.97131  1.0000
  C   C2065     1.0  0.97231  0.44522  0.76140  1.0000
  C   C2066     1.0  0.73709  0.10411  0.75488  1.0000
  H   H1645     1.0  0.61877  0.01371  0.85605  1.0000
  H   H1646     1.0  0.67095  0.44312  0.94521  1.0000
  H   H1647     1.0  0.79920  0.29807  0.95488  1.0000
  H   H1648     1.0  0.56575  0.42281  0.81250  1.0000
  C   C2067     1.0  0.64321  0.47828  0.79099  1.0000
  H   H1649     1.0  0.53705  0.28347  0.85225  1.0000
  C   C2068     1.0  0.63315  0.37973  0.90350  1.0000
  C   C2069     1.0  0.63335  0.39808  0.83652  1.0000
  C   C2070     1.0  0.78112  0.11790  0.96959  1.0000
  C   C2071     1.0  0.58380  0.39640  0.84225  1.0000
  H   H1650     1.0  0.65780  0.38479  0.87485  1.0000
  H   H1651     1.0  0.66956  0.40176  0.92706  1.0000
  C   C2072     1.0  0.55552  0.48685  0.76873  1.0000
  C   C2073     1.0  0.67348  0.45487  0.87792  1.0000
  H   H1652     1.0  0.65008  0.33100  0.84780  1.0000
  P   P71       1.0  0.68796  0.03153  0.73876  1.0000
  C   C2074     1.0  0.67243  0.42990  0.92525  1.0000
  H   H1653     1.0  0.49544  0.35443  0.73898  1.0000
  H   H1654     1.0  0.51800  0.34559  0.85864  1.0000
  H   H1655     1.0  0.67510  0.41727  0.80800  1.0000
  H   H1656     1.0  0.77331  0.34650  0.96322  1.0000
  H   H1657     1.0  0.56476  0.39514  0.84452  1.0000
  H   H1658     1.0  0.49853  0.13424  0.88140  1.0000
  H   H1659     1.0  0.76086  0.08413  0.95584  1.0000
  C   C2075     1.0  0.66936  0.17489  0.96510  1.0000
  C   C2076     1.0  0.64408  0.07428  0.73691  1.0000
  C   C2077     1.0  0.50079  0.47142  0.76226  1.0000
  C   C2078     1.0  0.78423  0.15296  0.97391  1.0000
  C   C2079     1.0  0.61883  0.08216  0.73284  1.0000
  C   C2080     1.0  0.71417  0.47494  0.82894  1.0000
  C   C2081     1.0  0.73260  0.13399  0.74642  1.0000
  H   H1660     1.0  0.66919  0.49041  0.86106  1.0000
  H   H1661     1.0  0.53438  0.04281  0.79849  1.0000
  S   S277      1.0  0.71062  0.48735  0.97062  1.0000
  H   H1662     1.0  0.91614  0.36651  0.76186  1.0000
  C   C2082     1.0  0.67984  0.02333  0.76452  1.0000
  C   C2083     1.0  0.50718  0.18317  0.83135  1.0000
  C   C2084     1.0  0.71571  0.43283  0.88505  1.0000
  H   H1663     1.0  0.74307  0.15812  0.74818  1.0000
  C   C2085     1.0  0.51258  0.40758  0.78511  1.0000
  C   C2086     1.0  0.51409  0.30312  0.88766  1.0000
  H   H1664     1.0  0.67130  0.01734  0.78414  1.0000
  H   H1665     1.0  0.72910  0.41758  0.89176  1.0000
  H   H1666     1.0  0.63119  0.19477  0.96115  1.0000
  C   C2087     1.0  0.50724  0.28694  0.82166  1.0000
  H   H1667     1.0  0.66469  0.15175  0.97076  1.0000
  H   H1668     1.0  0.96889  0.41734  0.76363  1.0000
  C   C2088     1.0  0.50215  0.19426  0.94598  1.0000
  Fe  Fe138     1.0  0.72684  0.00934  0.97045  1.0000
  C   C2089     1.0  0.48648  0.34937  0.74757  1.0000
  H   H1669     1.0  0.87184  0.42483  0.73077  1.0000
  P   P72       1.0  0.49025  0.28119  0.86412  1.0000
  H   H1670     1.0  0.71416  0.48795  0.85833  1.0000
  S   S278      1.0  0.76873  0.00677  0.97592  1.0000
  C   C2090     1.0  0.67872  0.48942  0.93373  1.0000
  C   C2091     1.0  0.49318  0.23452  0.86947  1.0000
  H   H1671     1.0  0.74403  0.45172  0.87379  1.0000
  H   H1672     1.0  0.49793  0.40197  0.77754  1.0000
  C   C2092     1.0  0.49687  0.28256  0.84747  1.0000
  H   H1673     1.0  0.71138  0.15569  0.72902  1.0000
  C   C2093     1.0  0.91970  0.09324  0.73212  1.0000
  H   H1674     1.0  0.89148  0.13608  0.72948  1.0000
  C   C2094     1.0  0.68651  0.00574  0.75355  1.0000
  C   C2095     1.0  0.67674  0.00358  0.77578  1.0000
  C   C2096     1.0  0.70748  0.47266  0.86616  1.0000
  H   H1675     1.0  0.68508  0.48962  0.90173  1.0000
  C   C2097     1.0  0.49948  0.64621  0.18995  1.0000
  H   H1676     1.0  0.50541  0.59649  0.02129  1.0000
  S   S279      1.0  0.73848  0.51798  0.00628  1.0000
  Fe  Fe139     1.0  0.62078  0.70940  0.05129  1.0000
  S   S280      1.0  0.65557  0.73170  0.06239  1.0000
  S   S281      1.0  0.58186  0.72177  0.05786  1.0000
  Fe  Fe140     1.0  0.65236  0.66219  0.03504  1.0000
  S   S282      1.0  0.68843  0.68031  0.04503  1.0000
  S   S283      1.0  0.64956  0.62478  0.01799  1.0000
  Fe  Fe141     1.0  0.67130  0.67449  0.06368  1.0000
  S   S284      1.0  0.69202  0.64008  0.08060  1.0000
  Fe  Fe142     1.0  0.67044  0.73622  0.04287  1.0000
  S   S285      1.0  0.69834  0.77557  0.03576  1.0000
  S   S286      1.0  0.63600  0.65203  0.05363  1.0000
  S   S287      1.0  0.63479  0.71812  0.03184  1.0000
  Fe  Fe143     1.0  0.71876  0.95014  0.99065  1.0000
  S   S288      1.0  0.68873  0.91726  0.99893  1.0000
  S   S289      1.0  0.75947  0.94525  0.99770  1.0000
  S   S290      1.0  0.62691  0.55684  0.20554  1.0000
  C   C2098     1.0  0.82797  0.99256  0.18768  1.0000
  S   S291      1.0  0.88795  0.92226  0.20840  1.0000
  C   C2099     1.0  0.53070  0.54804  0.17975  1.0000
  C   C2100     1.0  0.49954  0.72502  0.03862  1.0000
  S   S292      1.0  0.83541  0.94369  0.21947  1.0000
  Fe  Fe144     1.0  0.85338  0.89350  0.21213  1.0000
  S   S293      1.0  0.83036  0.86114  0.19693  1.0000
  H   H1677     1.0  0.76948  0.72968  0.19651  1.0000
  C   C2101     1.0  0.64168  0.65788  0.10777  1.0000
  C   C2102     1.0  0.79058  0.84912  0.22259  1.0000
  Fe  Fe145     1.0  0.75681  0.61754  0.18271  1.0000
  S   S294      1.0  0.79789  0.60377  0.18728  1.0000
  S   S295      1.0  0.73453  0.61627  0.20001  1.0000
  Fe  Fe146     1.0  0.76305  0.64424  0.15515  1.0000
  S   S296      1.0  0.80477  0.63316  0.15826  1.0000
  S   S297      1.0  0.74220  0.67579  0.13767  1.0000
  Fe  Fe147     1.0  0.79566  0.58019  0.16756  1.0000
  C   C2103     1.0  0.91760  0.76843  0.19977  1.0000
  Fe  Fe148     1.0  0.80375  0.65746  0.17790  1.0000
  S   S298      1.0  0.83289  0.69047  0.18978  1.0000
  S   S299      1.0  0.75370  0.59039  0.16347  1.0000
  S   S300      1.0  0.76292  0.67218  0.17426  1.0000
  C   C2104     1.0  0.83032  0.81340  0.19574  1.0000
  C   C2105     1.0  0.84706  0.79061  0.20365  1.0000
  C   C2106     1.0  0.84742  0.75305  0.20181  1.0000
  C   C2107     1.0  0.83079  0.73776  0.19220  1.0000
  C   C2108     1.0  0.81349  0.76047  0.18458  1.0000
  C   C2109     1.0  0.81335  0.79806  0.18633  1.0000
  H   H1678     1.0  0.86007  0.80198  0.21100  1.0000
  H   H1679     1.0  0.86086  0.73581  0.20775  1.0000
  H   H1680     1.0  0.80067  0.74916  0.17712  1.0000
  H   H1681     1.0  0.80033  0.81541  0.18015  1.0000
  C   C2110     1.0  0.65733  0.57162  0.20407  1.0000
  C   C2111     1.0  0.67157  0.58642  0.21455  1.0000
  C   C2112     1.0  0.69535  0.59912  0.21314  1.0000
  C   C2113     1.0  0.70515  0.59751  0.20125  1.0000
  C   C2114     1.0  0.69127  0.58174  0.19081  1.0000
  C   C2115     1.0  0.66744  0.56870  0.19224  1.0000
  C   C2116     1.0  0.90757  0.52715  0.17353  1.0000
  H   H1682     1.0  0.69881  0.57996  0.18167  1.0000
  H   H1683     1.0  0.65668  0.55667  0.18416  1.0000
  C   C2117     1.0  0.70640  0.65086  0.09632  1.0000
  C   C2118     1.0  0.70664  0.68607  0.10083  1.0000
  C   C2119     1.0  0.71827  0.69312  0.11334  1.0000
  C   C2120     1.0  0.72972  0.66524  0.12158  1.0000
  C   C2121     1.0  0.72940  0.62997  0.11709  1.0000
  C   C2122     1.0  0.71782  0.62291  0.10456  1.0000
  H   H1684     1.0  0.69792  0.70788  0.09468  1.0000
  H   H1685     1.0  0.71839  0.72045  0.11666  1.0000
  H   H1686     1.0  0.73794  0.60815  0.12329  1.0000
  H   H1687     1.0  0.71774  0.59556  0.10121  1.0000
  C   C2123     1.0  0.69494  0.81382  0.02494  1.0000
  C   C2124     1.0  0.71647  0.82832  0.02068  1.0000
  C   C2125     1.0  0.71498  0.85987  0.01277  1.0000
  C   C2126     1.0  0.69185  0.87727  0.00889  1.0000
  C   C2127     1.0  0.67026  0.86229  0.01289  1.0000
  C   C2128     1.0  0.67175  0.83077  0.02083  1.0000
  H   H1688     1.0  0.73450  0.81531  0.02366  1.0000
  H   H1689     1.0  0.73172  0.87086  0.00974  1.0000
  H   H1690     1.0  0.65222  0.87532  0.00988  1.0000
  H   H1691     1.0  0.65500  0.81999  0.02396  1.0000
  C   C2129     1.0  0.71379  0.54813  0.00917  1.0000
  C   C2130     1.0  0.69218  0.55280  0.00044  1.0000
  C   C2131     1.0  0.67272  0.57657  0.00323  1.0000
  C   C2132     1.0  0.67473  0.59587  0.01474  1.0000
  C   C2133     1.0  0.69647  0.59142  0.02341  1.0000
  C   C2134     1.0  0.71590  0.56765  0.02062  1.0000
  H   H1692     1.0  0.69038  0.53802  0.99157  1.0000
  H   H1693     1.0  0.65597  0.57988  0.99647  1.0000
  H   H1694     1.0  0.69822  0.60604  0.03232  1.0000
  H   H1695     1.0  0.73257  0.56416  0.02743  1.0000
  P   P73       1.0  0.64057  0.69272  0.13133  1.0000
  C   C2135     1.0  0.82336  0.96300  0.01245  1.0000
  C   C2136     1.0  0.51499  0.63963  0.20167  1.0000
  C   C2137     1.0  0.50531  0.64348  0.21347  1.0000
  H   H1696     1.0  0.53446  0.63186  0.20159  1.0000
  H   H1697     1.0  0.70062  0.70199  0.19788  1.0000
  C   C2138     1.0  0.53047  0.72784  0.05762  1.0000
  C   C2139     1.0  0.55037  0.72309  0.05006  1.0000
  C   C2140     1.0  0.54459  0.71930  0.03670  1.0000
  C   C2141     1.0  0.51941  0.72018  0.03107  1.0000
  C   C2142     1.0  0.59863  0.74740  0.15551  1.0000
  H   H1698     1.0  0.53458  0.73084  0.06794  1.0000
  H   H1699     1.0  0.55952  0.71570  0.03070  1.0000
  C   C2143     1.0  0.71050  0.53199  0.06202  1.0000
  H   H1700     1.0  0.68298  0.54218  0.04556  1.0000
  H   H1701     1.0  0.70475  0.55560  0.06708  1.0000
  C   C2144     1.0  0.55866  0.63068  0.03600  1.0000
  H   H1702     1.0  0.82900  0.54189  0.99272  1.0000
  C   C2145     1.0  0.73539  0.95375  0.02736  1.0000
  H   H1703     1.0  0.77862  0.84512  0.99682  1.0000
  H   H1704     1.0  0.80676  0.66283  0.22731  1.0000
  H   H1705     1.0  0.75388  0.58212  0.99403  1.0000
  C   C2146     1.0  0.75535  0.88925  0.21490  1.0000
  C   C2147     1.0  0.74011  0.86963  0.22219  1.0000
  H   H1706     1.0  0.64359  0.63283  0.08941  1.0000
  C   C2148     1.0  0.79100  0.55911  0.99433  1.0000
  C   C2149     1.0  0.92415  0.78229  0.22623  1.0000
  C   C2150     1.0  0.55208  0.63329  0.04854  1.0000
  H   H1707     1.0  0.76779  0.96194  0.20097  1.0000
  C   C2151     1.0  0.79992  0.94293  0.05494  1.0000
  H   H1708     1.0  0.59007  0.72090  0.08925  1.0000
  H   H1709     1.0  0.76874  0.78103  0.21104  1.0000
  C   C2152     1.0  0.68357  0.72515  0.14246  1.0000
  H   H1710     1.0  0.72344  0.51913  0.13838  1.0000
  S   S301      1.0  0.81695  0.52909  0.16178  1.0000
  C   C2153     1.0  0.97140  0.51846  0.20719  1.0000
  H   H1711     1.0  0.50711  0.64303  0.18087  1.0000
  H   H1712     1.0  0.80402  0.52089  0.03159  1.0000
  H   H1713     1.0  0.82711  0.94217  0.17779  1.0000
  H   H1714     1.0  0.73208  0.90381  0.04594  1.0000
  H   H1715     1.0  0.64085  0.76889  0.20523  1.0000
  H   H1716     1.0  0.73440  0.92737  0.02314  1.0000
  C   C2154     1.0  0.79802  0.68854  0.22395  1.0000
  C   C2155     1.0  0.52849  0.62319  0.05129  1.0000
  H   H1717     1.0  0.67211  0.84955  0.98545  1.0000
  H   H1718     1.0  0.68323  0.79729  0.11492  1.0000
  C   C2156     1.0  0.77709  0.61649  0.98389  1.0000
  C   C2157     1.0  0.61478  0.70959  0.13938  1.0000
  H   H1719     1.0  0.92961  0.98371  0.21261  1.0000
  H   H1720     1.0  0.85983  0.95908  0.06706  1.0000
  H   H1721     1.0  0.90815  0.57905  0.21105  1.0000
  H   H1722     1.0  0.49032  0.73265  0.05790  1.0000
  H   H1723     1.0  0.57682  0.63922  0.03387  1.0000
  C   C2158     1.0  0.72554  0.65908  0.00108  1.0000
  C   C2159     1.0  0.72006  0.67553  0.01241  1.0000
  C   C2160     1.0  0.76239  0.69438  0.00100  1.0000
  C   C2161     1.0  0.82809  0.96318  0.07782  1.0000
  H   H1724     1.0  0.91105  0.53969  0.16445  1.0000
  C   C2162     1.0  0.70216  0.77638  0.13302  1.0000
  C   C2163     1.0  0.74601  0.66983  0.99486  1.0000
  H   H1725     1.0  0.66947  0.73894  0.01228  1.0000
  H   H1726     1.0  0.48868  0.76575  0.07741  1.0000
  H   H1727     1.0  0.71763  0.74847  0.15062  1.0000
  C   C2164     1.0  0.73267  0.78649  0.98877  1.0000
  H   H1728     1.0  0.65022  0.75315  0.11395  1.0000
  H   H1729     1.0  0.76626  0.51619  0.14997  1.0000
  C   C2165     1.0  0.73562  0.70151  0.01804  1.0000
  C   C2166     1.0  0.73763  0.84745  0.05023  1.0000
  C   C2167     1.0  0.72668  0.50803  0.14817  1.0000
  H   H1730     1.0  0.79250  0.89448  0.20961  1.0000
  H   H1731     1.0  0.55948  0.74321  0.15747  1.0000
  P   P74       1.0  0.68314  0.73292  0.22077  1.0000
  C   C2168     1.0  0.50531  0.72885  0.05197  1.0000
  C   C2169     1.0  0.77850  0.54062  0.20801  1.0000
  H   H1732     1.0  0.71379  0.63775  0.99736  1.0000
  H   H1733     1.0  0.70378  0.66787  0.01691  1.0000
  H   H1734     1.0  0.73123  0.71426  0.02683  1.0000
  S   S302      1.0  0.57117  0.55085  0.22697  1.0000
  H   H1735     1.0  0.77618  0.56961  0.20845  1.0000
  H   H1736     1.0  0.81009  0.84133  0.22245  1.0000
  P   P75       1.0  0.75238  0.65013  0.97973  1.0000
  H   H1737     1.0  0.58775  0.67547  0.12919  1.0000
  H   H1738     1.0  0.78690  0.53520  0.99970  1.0000
  H   H1739     1.0  0.70018  0.97227  0.01709  1.0000
  C   C2170     1.0  0.81783  0.95970  0.18409  1.0000
  C   C2171     1.0  0.61316  0.69038  0.19719  1.0000
  C   C2172     1.0  0.63059  0.66618  0.20395  1.0000
  H   H1740     1.0  0.83822  0.59702  0.98047  1.0000
  H   H1741     1.0  0.52180  0.55718  0.21125  1.0000
  C   C2173     1.0  0.71598  0.97922  0.02384  1.0000
  C   C2174     1.0  0.96215  0.99200  0.20289  1.0000
  C   C2175     1.0  0.72076  0.97662  0.22240  1.0000
  C   C2176     1.0  0.61686  0.72741  0.19772  1.0000
  C   C2177     1.0  0.92666  0.74102  0.20868  1.0000
  H   H1742     1.0  0.88824  0.78852  0.98140  1.0000
  C   C2178     1.0  0.72477  0.78013  0.18829  1.0000
  C   C2179     1.0  0.71894  0.80212  0.19833  1.0000
  C   C2180     1.0  0.70641  0.78816  0.20828  1.0000
  C   C2181     1.0  0.75470  0.79979  0.99500  1.0000
  H   H1743     1.0  0.71824  0.84379  0.05161  1.0000
  H   H1744     1.0  0.51531  0.71723  0.02074  1.0000
  C   C2182     1.0  0.91176  0.80269  0.20407  1.0000
  H   H1745     1.0  0.60335  0.74617  0.19248  1.0000
  C   C2183     1.0  0.68313  0.77746  0.12270  1.0000
  C   C2184     1.0  0.89376  0.81619  0.98099  1.0000
  H   H1746     1.0  0.76973  0.49943  0.04298  1.0000
  C   C2185     1.0  0.76185  0.52140  0.19972  1.0000
  C   C2186     1.0  0.73047  0.50958  0.06747  1.0000
  C   C2187     1.0  0.71790  0.74420  0.18813  1.0000
  C   C2188     1.0  0.65153  0.67889  0.21141  1.0000
  H   H1747     1.0  0.59678  0.68032  0.19160  1.0000
  H   H1748     1.0  0.62775  0.63746  0.20352  1.0000
  H   H1749     1.0  0.66468  0.65973  0.21662  1.0000
  C   C2189     1.0  0.83985  0.95633  0.06679  1.0000
  C   C2190     1.0  0.51117  0.61058  0.04145  1.0000
  H   H1750     1.0  0.76958  0.72949  0.01717  1.0000
  H   H1751     1.0  0.73465  0.79086  0.18063  1.0000
  H   H1752     1.0  0.72416  0.83002  0.19836  1.0000
  H   H1753     1.0  0.70154  0.80594  0.21574  1.0000
  H   H1754     1.0  0.64233  0.90061  0.97975  1.0000
  H   H1755     1.0  0.79217  0.87468  0.02127  1.0000
  H   H1756     1.0  0.91487  0.76307  0.18953  1.0000
  C   C2191     1.0  0.61560  0.67582  0.08801  1.0000
  C   C2192     1.0  0.74524  0.98600  0.22112  1.0000
  C   C2193     1.0  0.70562  0.73007  0.19811  1.0000
  C   C2194     1.0  0.61853  0.73530  0.14903  1.0000
  C   C2195     1.0  0.71733  0.80816  0.97966  1.0000
  C   C2196     1.0  0.66458  0.72567  0.13202  1.0000
  H   H1757     1.0  0.77926  0.70115  0.99692  1.0000
  C   C2197     1.0  0.51784  0.54971  0.20127  1.0000
  Fe  Fe149     1.0  0.60897  0.57141  0.22362  1.0000
  C   C2198     1.0  0.90436  0.87090  0.99231  1.0000
  C   C2199     1.0  0.65220  0.71004  0.99609  1.0000
  H   H1758     1.0  0.93130  0.71478  0.20511  1.0000
  H   H1759     1.0  0.60163  0.76731  0.16293  1.0000
  H   H1760     1.0  0.76060  0.96852  0.22547  1.0000
  H   H1761     1.0  0.97952  0.74700  0.22173  1.0000
  H   H1762     1.0  0.62200  0.64323  0.15066  1.0000
  H   H1763     1.0  0.86188  0.52141  0.19330  1.0000
  C   C2200     1.0  0.82588  0.94600  0.05540  1.0000
  C   C2201     1.0  0.77038  0.88590  0.04437  1.0000
  C   C2202     1.0  0.81486  0.90046  0.00847  1.0000
  H   H1764     1.0  0.89341  0.69067  0.21794  1.0000
  H   H1765     1.0  0.76834  0.94655  0.06597  1.0000
  C   C2203     1.0  0.80157  0.89904  0.01926  1.0000
  C   C2204     1.0  0.77226  0.58571  0.99107  1.0000
  H   H1766     1.0  0.88034  0.63405  0.20792  1.0000
  C   C2205     1.0  0.75079  0.50640  0.15469  1.0000
  C   C2206     1.0  0.92931  0.74746  0.22202  1.0000
  H   H1767     1.0  0.83089  0.98824  0.00957  1.0000
  H   H1768     1.0  0.79248  0.79936  0.05087  1.0000
  H   H1769     1.0  0.63681  0.74592  0.15161  1.0000
  H   H1770     1.0  0.81117  0.53775  0.22198  1.0000
  C   C2207     1.0  0.77940  0.82229  0.04966  1.0000
  C   C2208     1.0  0.89671  0.83533  0.99246  1.0000
  C   C2209     1.0  0.57107  0.70803  0.14292  1.0000
  C   C2210     1.0  0.92585  0.50442  0.18046  1.0000
  C   C2211     1.0  0.75709  0.71033  0.01250  1.0000
  C   C2212     1.0  0.57490  0.73382  0.15245  1.0000
  C   C2213     1.0  0.72517  0.68609  0.22682  1.0000
  C   C2214     1.0  0.75446  0.81785  0.05156  1.0000
  H   H1771     1.0  0.68176  0.99165  0.21800  1.0000
  C   C2215     1.0  0.78740  0.85625  0.04622  1.0000
  H   H1772     1.0  0.90446  0.82392  0.19721  1.0000
  C   C2216     1.0  0.81986  0.59400  0.98354  1.0000
  H   H1773     1.0  0.83475  0.93394  0.99629  1.0000
  H   H1774     1.0  0.55298  0.56839  0.19634  1.0000
  H   H1775     1.0  0.87012  0.55021  0.17267  1.0000
  C   C2217     1.0  0.78681  0.75104  0.22786  1.0000
  H   H1776     1.0  0.80687  0.85944  0.04499  1.0000
  H   H1777     1.0  0.56519  0.64392  0.05607  1.0000
  C   C2218     1.0  0.50188  0.52843  0.05543  1.0000
  H   H1778     1.0  0.64347  0.69112  0.00209  1.0000
  C   C2219     1.0  0.79952  0.92958  0.02687  1.0000
  H   H1779     1.0  0.70603  0.61076  0.22130  1.0000
  C   C2220     1.0  0.74552  0.88139  0.04673  1.0000
  C   C2221     1.0  0.51817  0.60714  0.02894  1.0000
  H   H1780     1.0  0.54690  0.61558  0.01649  1.0000
  C   C2222     1.0  0.78451  0.97094  0.19739  1.0000
  P   P76       1.0  0.78129  0.92984  0.04040  1.0000
  H   H1781     1.0  0.74800  0.79146  0.05398  1.0000
  C   C2223     1.0  0.70236  0.75024  0.14288  1.0000
  C   C2224     1.0  0.49534  0.53382  0.19682  1.0000
  H   H1782     1.0  0.70663  0.59877  0.14293  1.0000
  H   H1783     1.0  0.78780  0.67057  0.20459  1.0000
  H   H1784     1.0  0.74691  0.53599  0.19369  1.0000
  C   C2225     1.0  0.54173  0.61756  0.02620  1.0000
  H   H1785     1.0  0.68837  0.78288  0.99885  1.0000
  C   C2226     1.0  0.49063  0.52535  0.18370  1.0000
  C   C2227     1.0  0.91526  0.80963  0.21726  1.0000
  H   H1786     1.0  0.75539  0.72993  0.97827  1.0000
  C   C2228     1.0  0.76161  0.83462  0.99209  1.0000
  H   H1787     1.0  0.72770  0.75931  0.99105  1.0000
  C   C2229     1.0  0.66689  0.73684  0.00184  1.0000
  C   C2230     1.0  0.68796  0.60809  0.14448  1.0000
  C   C2231     1.0  0.79594  0.94910  0.18881  1.0000
  H   H1788     1.0  0.68434  0.70487  0.15014  1.0000
  C   C2232     1.0  0.60417  0.70299  0.09456  1.0000
  H   H1789     1.0  0.52396  0.62533  0.06110  1.0000
  H   H1790     1.0  0.81599  0.87735  0.00237  1.0000
  H   H1791     1.0  0.72232  0.72710  0.18033  1.0000
  H   H1792     1.0  0.68740  0.65213  0.13080  1.0000
  C   C2233     1.0  0.78830  0.94932  0.06610  1.0000
  H   H1793     1.0  0.68372  0.56741  0.15903  1.0000
  C   C2234     1.0  0.67508  0.59056  0.15353  1.0000
  H   H1794     1.0  0.71710  0.79516  0.13320  1.0000
  H   H1795     1.0  0.65679  0.64078  0.11247  1.0000
  C   C2235     1.0  0.67706  0.63839  0.13758  1.0000
  H   H1796     1.0  0.91542  0.91476  0.98060  1.0000
  C   C2236     1.0  0.78059  0.87919  0.21519  1.0000
  H   H1797     1.0  0.72063  0.87772  0.22218  1.0000
  C   C2237     1.0  0.65124  0.60330  0.15563  1.0000
  H   H1798     1.0  0.89309  0.82255  0.00148  1.0000
  Fe  Fe150     1.0  0.87148  0.97150  0.21711  1.0000
  H   H1799     1.0  0.64138  0.58995  0.16277  1.0000
  C   C2238     1.0  0.65323  0.65159  0.13963  1.0000
  C   C2239     1.0  0.63431  0.65330  0.09461  1.0000
  C   C2240     1.0  0.82556  0.93247  0.00501  1.0000
  H   H1800     1.0  0.60273  0.72943  0.11255  1.0000
  C   C2241     1.0  0.64030  0.63367  0.14871  1.0000
  C   C2242     1.0  0.59093  0.69583  0.13643  1.0000
  H   H1801     1.0  0.83894  0.97127  0.08662  1.0000
  C   C2243     1.0  0.61136  0.70756  0.10775  1.0000
  H   H1802     1.0  0.67802  0.50528  0.21645  1.0000
  H   H1803     1.0  0.54441  0.55356  0.17320  1.0000
  C   C2244     1.0  0.63000  0.68472  0.11452  1.0000
  H   H1804     1.0  0.51169  0.54414  0.06292  1.0000
  H   H1805     1.0  0.61027  0.67271  0.07775  1.0000
  C   C2245     1.0  0.80123  0.62089  0.98038  1.0000
  H   H1806     1.0  0.66413  0.58849  0.22374  1.0000
  S   S303      1.0  0.59891  0.62919  0.22747  1.0000
  C   C2246     1.0  0.63800  0.74017  0.20502  1.0000
  H   H1807     1.0  0.78832  0.92338  0.18607  1.0000
  C   C2247     1.0  0.81044  0.96155  0.02333  1.0000
  C   C2248     1.0  0.88455  0.53326  0.17818  1.0000
  C   C2249     1.0  0.65533  0.71597  0.21203  1.0000
  C   C2250     1.0  0.78732  0.69282  0.21114  1.0000
  C   C2251     1.0  0.66444  0.75218  0.12217  1.0000
  C   C2252     1.0  0.67798  0.76145  0.99415  1.0000
  H   H1808     1.0  0.79323  0.96467  0.08605  1.0000
  H   H1809     1.0  0.55269  0.69739  0.14058  1.0000
  H   H1810     1.0  0.74760  0.91223  0.20905  1.0000
  C   C2253     1.0  0.70004  0.75181  0.20836  1.0000
  H   H1811     1.0  0.49334  0.73275  0.18291  1.0000
  H   H1812     1.0  0.90652  0.88576  0.00119  1.0000
  H   H1813     1.0  0.76636  0.78323  0.00209  1.0000
  C   C2254     1.0  0.79811  0.52261  0.21575  1.0000
  C   C2255     1.0  0.93726  0.60535  0.22288  1.0000
  C   C2256     1.0  0.90588  0.66707  0.21942  1.0000
  C   C2257     1.0  0.69820  0.52441  0.04990  1.0000
  C   C2258     1.0  0.80233  0.95954  0.07748  1.0000
  C   C2259     1.0  0.91401  0.60399  0.21548  1.0000
  C   C2260     1.0  0.77647  0.75526  0.21490  1.0000
  C   C2261     1.0  0.75590  0.96247  0.03612  1.0000
  H   H1814     1.0  0.49550  0.73426  0.20654  1.0000
  H   H1815     1.0  0.83545  0.94047  0.04705  1.0000
  H   H1816     1.0  0.96202  0.96535  0.19883  1.0000
  H   H1817     1.0  0.73310  0.69784  0.21871  1.0000
  H   H1818     1.0  0.74019  0.51594  0.07678  1.0000
  C   C2262     1.0  0.81471  0.56299  0.99044  1.0000
  H   H1819     1.0  0.95956  0.53269  0.19951  1.0000
  C   C2263     1.0  0.77674  0.72619  0.20660  1.0000
  C   C2264     1.0  0.53554  0.55643  0.19278  1.0000
  C   C2265     1.0  0.48788  0.52428  0.22428  1.0000
  C   C2266     1.0  0.90936  0.88724  0.98072  1.0000
  H   H1820     1.0  0.80832  0.98582  0.02876  1.0000
  C   C2267     1.0  0.87988  0.51694  0.18983  1.0000
  C   C2268     1.0  0.89834  0.63487  0.21375  1.0000
  H   H1821     1.0  0.91104  0.83633  0.22051  1.0000
  C   C2269     1.0  0.74641  0.85621  0.98307  1.0000
  C   C2270     1.0  0.48558  0.54557  0.04551  1.0000
  C   C2271     1.0  0.50821  0.53264  0.17520  1.0000
  C   C2272     1.0  0.64819  0.70834  0.98262  1.0000
  H   H1822     1.0  0.71833  0.50603  0.20778  1.0000
  H   H1823     1.0  0.94353  0.49972  0.17667  1.0000
  C   C2273     1.0  0.67546  0.75847  0.98063  1.0000
  H   H1824     1.0  0.50441  0.52631  0.16508  1.0000
  H   H1825     1.0  0.63604  0.68832  0.97823  1.0000
  H   H1826     1.0  0.75165  0.88318  0.98085  1.0000
  H   H1827     1.0  0.94934  0.58134  0.22430  1.0000
  C   C2274     1.0  0.75716  0.99756  0.04088  1.0000
  H   H1828     1.0  0.71733  0.95238  0.22783  1.0000
  C   C2275     1.0  0.92940  0.66891  0.22672  1.0000
  C   C2276     1.0  0.57823  0.54332  0.43961  1.0000
  C   C2277     1.0  0.95775  0.95191  0.25602  1.0000
  S   S304      1.0  0.73190  0.54464  0.44955  1.0000
  Fe  Fe151     1.0  0.84223  0.76907  0.41483  1.0000
  S   S305      1.0  0.82387  0.71790  0.40804  1.0000
  S   S306      1.0  0.88273  0.78637  0.41309  1.0000
  Fe  Fe152     1.0  0.79208  0.80138  0.42242  1.0000
  S   S307      1.0  0.77124  0.75226  0.41622  1.0000
  S   S308      1.0  0.76726  0.84848  0.42765  1.0000
  Fe  Fe153     1.0  0.80430  0.72041  0.42620  1.0000
  S   S309      1.0  0.80236  0.67750  0.44234  1.0000
  Fe  Fe154     1.0  0.79188  0.75448  0.39858  1.0000
  S   S310      1.0  0.76899  0.74674  0.37876  1.0000
  S   S311      1.0  0.82429  0.76997  0.43345  1.0000
  S   S312      1.0  0.81116  0.80510  0.40430  1.0000
  H   H1829     1.0  0.65220  0.95455  0.37575  1.0000
  C   C2278     1.0  0.76542  0.64361  0.34671  1.0000
  C   C2279     1.0  0.73384  0.75935  0.44828  1.0000
  H   H1830     1.0  0.98270  0.71154  0.39363  1.0000
  S   S313      1.0  0.57697  0.59795  0.25341  1.0000
  H   H1831     1.0  0.52614  0.53084  0.25814  1.0000
  H   H1832     1.0  0.76496  0.83321  0.31140  1.0000
  S   S314      1.0  0.62623  0.55816  0.24394  1.0000
  Fe  Fe155     1.0  0.58773  0.54161  0.24767  1.0000
  Fe  Fe156     1.0  0.61408  0.61528  0.24810  1.0000
  S   S315      1.0  0.64392  0.64936  0.25905  1.0000
  C   C2280     1.0  0.74350  0.61962  0.29403  1.0000
  H   H1833     1.0  0.59260  0.56017  0.46494  1.0000
  Fe  Fe157     1.0  0.70678  0.86584  0.31292  1.0000
  S   S316      1.0  0.66483  0.86844  0.31168  1.0000
  S   S317      1.0  0.73401  0.85915  0.33172  1.0000
  Fe  Fe158     1.0  0.70570  0.89005  0.28439  1.0000
  S   S318      1.0  0.66363  0.89498  0.28151  1.0000
  S   S319      1.0  0.72339  0.89931  0.26569  1.0000
  Fe  Fe159     1.0  0.66609  0.92143  0.30076  1.0000
  S   S320      1.0  0.63862  0.96499  0.30675  1.0000
  Fe  Fe160     1.0  0.66506  0.84197  0.29235  1.0000
  S   S321      1.0  0.63489  0.80352  0.28466  1.0000
  S   S322      1.0  0.70816  0.92061  0.30297  1.0000
  S   S323      1.0  0.70697  0.83532  0.29428  1.0000
  S   S324      1.0  0.83758  0.92199  0.25826  1.0000
  C   C2281     1.0  0.75523  0.90617  0.26398  1.0000
  C   C2282     1.0  0.77382  0.90411  0.27451  1.0000
  C   C2283     1.0  0.79895  0.90894  0.27259  1.0000
  C   C2284     1.0  0.80578  0.91547  0.26012  1.0000
  C   C2285     1.0  0.78722  0.91717  0.24958  1.0000
  C   C2286     1.0  0.76209  0.91280  0.25154  1.0000
  H   H1834     1.0  0.76883  0.89900  0.28414  1.0000
  H   H1835     1.0  0.78992  0.65762  0.36359  1.0000
  C   C2287     1.0  0.77044  0.76255  0.46386  1.0000
  H   H1836     1.0  0.74782  0.91460  0.24338  1.0000
  H   H1837     1.0  0.76680  0.64796  0.30825  1.0000
  C   C2288     1.0  0.64093  0.69312  0.26548  1.0000
  C   C2289     1.0  0.66267  0.71125  0.26990  1.0000
  C   C2290     1.0  0.66122  0.74509  0.27572  1.0000
  C   C2291     1.0  0.63795  0.76127  0.27716  1.0000
  C   C2292     1.0  0.61622  0.74350  0.27252  1.0000
  C   C2293     1.0  0.61767  0.70969  0.26667  1.0000
  H   H1838     1.0  0.68076  0.69902  0.26886  1.0000
  H   H1839     1.0  0.67804  0.75863  0.27910  1.0000
  H   H1840     1.0  0.59813  0.75578  0.27359  1.0000
  H   H1841     1.0  0.60080  0.69608  0.26335  1.0000
  C   C2294     1.0  0.75838  0.77951  0.36627  1.0000
  C   C2295     1.0  0.73868  0.77124  0.35681  1.0000
  C   C2296     1.0  0.73053  0.79550  0.34639  1.0000
  C   C2297     1.0  0.74240  0.82806  0.34505  1.0000
  C   C2298     1.0  0.76199  0.83638  0.35454  1.0000
  C   C2299     1.0  0.76972  0.81259  0.36515  1.0000
  H   H1842     1.0  0.72973  0.74581  0.35756  1.0000
  H   H1843     1.0  0.71525  0.78890  0.33932  1.0000
  H   H1844     1.0  0.77149  0.86128  0.35359  1.0000
  H   H1845     1.0  0.78490  0.81944  0.37228  1.0000
  C   C2300     1.0  0.76645  0.86936  0.44274  1.0000
  C   C2301     1.0  0.75004  0.89930  0.44345  1.0000
  C   C2302     1.0  0.74909  0.91749  0.45512  1.0000
  C   C2303     1.0  0.76460  0.90587  0.46622  1.0000
  C   C2304     1.0  0.78072  0.87553  0.46559  1.0000
  C   C2305     1.0  0.78166  0.85730  0.45390  1.0000
  H   H1846     1.0  0.73823  0.90877  0.43487  1.0000
  H   H1847     1.0  0.73664  0.94082  0.45548  1.0000
  C   C2306     1.0  0.69074  0.93648  0.41678  1.0000
  H   H1848     1.0  0.79430  0.83423  0.45347  1.0000
  C   C2307     1.0  0.75050  0.58308  0.44819  1.0000
  C   C2308     1.0  0.74683  0.60461  0.43676  1.0000
  C   C2309     1.0  0.76208  0.63405  0.43489  1.0000
  C   C2310     1.0  0.78162  0.64185  0.44433  1.0000
  C   C2311     1.0  0.78524  0.62035  0.45575  1.0000
  C   C2312     1.0  0.76957  0.59155  0.45778  1.0000
  H   H1849     1.0  0.73228  0.59820  0.42923  1.0000
  H   H1850     1.0  0.75911  0.65010  0.42602  1.0000
  H   H1851     1.0  0.80072  0.62540  0.46293  1.0000
  H   H1852     1.0  0.77285  0.57508  0.46655  1.0000
  C   C2313     1.0  0.95583  0.85881  0.24599  1.0000
  H   H1853     1.0  0.69057  0.89663  0.40219  1.0000
  H   H1854     1.0  0.92301  0.86382  0.25584  1.0000
  C   C2314     1.0  0.96434  0.73845  0.41905  1.0000
  C   C2315     1.0  0.95917  0.77487  0.41571  1.0000
  C   C2316     1.0  0.93424  0.78895  0.41410  1.0000
  C   C2317     1.0  0.91394  0.76690  0.41565  1.0000
  C   C2318     1.0  0.91909  0.73035  0.41881  1.0000
  C   C2319     1.0  0.94404  0.71631  0.42046  1.0000
  H   H1855     1.0  0.97357  0.81634  0.35704  1.0000
  H   H1856     1.0  0.93062  0.81719  0.41156  1.0000
  H   H1857     1.0  0.90386  0.71283  0.41996  1.0000
  H   H1858     1.0  0.94762  0.68803  0.42293  1.0000
  C   C2320     1.0  0.94944  0.74398  0.37297  1.0000
  H   H1859     1.0  0.87279  0.70007  0.26243  1.0000
  C   C2321     1.0  0.78300  0.70218  0.34997  1.0000
  C   C2322     1.0  0.93912  0.77554  0.37775  1.0000
  C   C2323     1.0  0.91604  0.77502  0.38264  1.0000
  C   C2324     1.0  0.90325  0.74303  0.38298  1.0000
  C   C2325     1.0  0.91335  0.71154  0.37824  1.0000
  C   C2326     1.0  0.93632  0.71197  0.37324  1.0000
  Fe  Fe161     1.0  0.56251  0.60784  0.23238  1.0000
  C   C2327     1.0  0.78053  0.66676  0.35426  1.0000
  C   C2328     1.0  0.60785  0.50634  0.46229  1.0000
  C   C2329     1.0  0.70145  0.69733  0.22988  1.0000
  C   C2330     1.0  0.79780  0.71750  0.23230  1.0000
  C   C2331     1.0  0.76493  0.91093  0.38942  1.0000
  H   H1860     1.0  0.93210  0.71169  0.45410  1.0000
  C   C2332     1.0  0.72197  0.98158  0.41652  1.0000
  H   H1861     1.0  0.94899  0.80036  0.37810  1.0000
  H   H1862     1.0  0.90837  0.79910  0.38666  1.0000
  H   H1863     1.0  0.88580  0.74259  0.38722  1.0000
  H   H1864     1.0  0.90360  0.68662  0.37874  1.0000
  C   C2333     1.0  0.55188  0.91290  0.27409  1.0000
  C   C2334     1.0  0.95651  0.73173  0.34262  1.0000
  C   C2335     1.0  0.53765  0.57313  0.44042  1.0000
  C   C2336     1.0  0.89074  0.71101  0.26121  1.0000
  H   H1865     1.0  0.69760  0.77107  0.38071  1.0000
  P   P77       1.0  0.73651  0.70895  0.31599  1.0000
  C   C2337     1.0  0.75357  0.74368  0.30876  1.0000
  C   C2338     1.0  0.76625  0.80586  0.30799  1.0000
  C   C2339     1.0  0.78204  0.79728  0.29870  1.0000
  C   C2340     1.0  0.78374  0.76195  0.29443  1.0000
  C   C2341     1.0  0.76958  0.73522  0.29943  1.0000
  C   C2342     1.0  0.70760  0.72770  0.32067  1.0000
  C   C2343     1.0  0.69292  0.75234  0.31237  1.0000
  C   C2344     1.0  0.67052  0.76682  0.31591  1.0000
  C   C2345     1.0  0.66257  0.75694  0.32774  1.0000
  C   C2346     1.0  0.67698  0.73230  0.33604  1.0000
  C   C2347     1.0  0.69935  0.71758  0.33251  1.0000
  H   H1866     1.0  0.79288  0.81808  0.29479  1.0000
  H   H1867     1.0  0.79592  0.75538  0.28718  1.0000
  H   H1868     1.0  0.77133  0.70810  0.29603  1.0000
  H   H1869     1.0  0.77179  0.74266  0.33538  1.0000
  H   H1870     1.0  0.69866  0.76009  0.30311  1.0000
  C   C2348     1.0  0.81690  0.89837  0.39396  1.0000
  H   H1871     1.0  0.97298  0.67659  0.25468  1.0000
  H   H1872     1.0  0.67089  0.72471  0.34525  1.0000
  H   H1873     1.0  0.71017  0.69870  0.33916  1.0000
  H   H1874     1.0  0.50420  0.58526  0.24749  1.0000
  C   C2349     1.0  0.56602  0.59688  0.42624  1.0000
  C   C2350     1.0  0.58349  0.56907  0.43031  1.0000
  H   H1875     1.0  0.73797  0.82528  0.23531  1.0000
  C   C2351     1.0  0.96964  0.72564  0.45158  1.0000
  H   H1876     1.0  0.67553  0.92488  0.42120  1.0000
  H   H1877     1.0  0.95464  0.75164  0.25696  1.0000
  C   C2352     1.0  0.94180  0.85237  0.25623  1.0000
  H   H1878     1.0  0.89176  0.68929  0.24241  1.0000
  H   H1879     1.0  0.79274  0.86632  0.47414  1.0000
  C   C2353     1.0  0.48917  0.55727  0.23062  1.0000
  H   H1880     1.0  0.97437  0.79217  0.41437  1.0000
  H   H1881     1.0  0.87910  0.77416  0.23849  1.0000
  C   C2354     1.0  0.72472  0.80499  0.39052  1.0000
  H   H1882     1.0  0.67822  0.56938  0.44072  1.0000
  H   H1883     1.0  0.74987  0.84416  0.39848  1.0000
  H   H1884     1.0  0.68293  0.64243  0.28331  1.0000
  H   H1885     1.0  0.65861  0.91956  0.35623  1.0000
  C   C2355     1.0  0.70573  0.65372  0.24782  1.0000
  C   C2356     1.0  0.72979  0.67319  0.30470  1.0000
  H   H1886     1.0  0.79224  0.92229  0.23996  1.0000
  H   H1887     1.0  0.55056  0.52525  0.45153  1.0000
  H   H1888     1.0  0.76638  0.90829  0.41032  1.0000
  H   H1889     1.0  0.93971  0.99006  0.24180  1.0000
  H   H1890     1.0  0.72852  0.89634  0.35919  1.0000
  C   C2357     1.0  0.68779  0.88704  0.45752  1.0000
  C   C2358     1.0  0.96985  0.90298  0.47344  1.0000
  H   H1891     1.0  0.95805  0.80669  0.47318  1.0000
  C   C2359     1.0  0.55508  0.54529  0.44452  1.0000
  S   S325      1.0  0.52409  0.63656  0.22852  1.0000
  C   C2360     1.0  0.69369  0.78365  0.23971  1.0000
  C   C2361     1.0  0.69194  0.68104  0.24046  1.0000
  C   C2362     1.0  0.71281  0.97625  0.37226  1.0000
  H   H1892     1.0  0.71289  0.77942  0.23795  1.0000
  H   H1893     1.0  0.52963  0.62053  0.42813  1.0000
  H   H1894     1.0  0.98029  0.91592  0.26915  1.0000
  H   H1895     1.0  0.65706  0.92498  0.45871  1.0000
  H   H1896     1.0  0.77055  0.90960  0.36916  1.0000
  H   H1897     1.0  0.69055  0.59368  0.47196  1.0000
  C   C2363     1.0  0.71933  0.93515  0.40033  1.0000
  C   C2364     1.0  0.71897  0.77273  0.45738  1.0000
  H   H1898     1.0  0.57021  0.61676  0.41909  1.0000
  C   C2365     1.0  0.65002  0.94641  0.35524  1.0000
  C   C2366     1.0  0.70113  0.85665  0.46316  1.0000
  C   C2367     1.0  0.93685  0.73988  0.25801  1.0000
  H   H1899     1.0  0.69230  0.73014  0.47104  1.0000
  C   C2368     1.0  0.75207  0.77924  0.31299  1.0000
  C   C2369     1.0  0.98027  0.84399  0.24668  1.0000
  H   H1900     1.0  0.97293  0.70263  0.44569  1.0000
  C   C2370     1.0  0.75502  0.69165  0.33053  1.0000
  C   C2371     1.0  0.70342  0.79848  0.38210  1.0000
  H   H1901     1.0  0.69915  0.77748  0.45460  1.0000
  H   H1902     1.0  0.81598  0.89879  0.37323  1.0000
  Fe  Fe162     1.0  0.85378  0.92425  0.23898  1.0000
  H   H1903     1.0  0.69784  0.64084  0.25579  1.0000
  H   H1904     1.0  0.72561  0.75359  0.43859  1.0000
  H   H1905     1.0  0.92692  0.78857  0.23638  1.0000
  C   C2372     1.0  0.53891  0.94595  0.27120  1.0000
  C   C2373     1.0  0.75259  0.65601  0.33491  1.0000
  C   C2374     1.0  0.80513  0.90179  0.38130  1.0000
  C   C2375     1.0  0.77925  0.90795  0.37903  1.0000
  H   H1906     1.0  0.72317  0.68284  0.45400  1.0000
  H   H1907     1.0  0.75789  0.59940  0.29272  1.0000
  H   H1908     1.0  0.64522  0.76838  0.33044  1.0000
  H   H1909     1.0  0.67355  0.82209  0.36878  1.0000
  H   H1910     1.0  0.68742  0.88424  0.37172  1.0000
  C   C2376     1.0  0.70131  0.64389  0.28872  1.0000
  H   H1911     1.0  0.83684  0.89257  0.39574  1.0000
  C   C2377     1.0  0.90302  0.73114  0.27102  1.0000
  P   P78       1.0  0.78760  0.78861  0.23865  1.0000
  H   H1912     1.0  0.63687  0.56257  0.44836  1.0000
  H   H1913     1.0  0.95284  0.91760  0.46950  1.0000
  C   C2378     1.0  0.72004  0.86893  0.38506  1.0000
  H   H1914     1.0  0.71593  0.59654  0.28025  1.0000
  C   C2379     1.0  0.72141  0.94017  0.37188  1.0000
  C   C2380     1.0  0.70587  0.97964  0.34883  1.0000
  H   H1915     1.0  0.76322  0.61631  0.35018  1.0000
  H   H1916     1.0  0.71495  0.93109  0.33910  1.0000
  H   H1917     1.0  0.81171  0.89751  0.41419  1.0000
  C   C2381     1.0  0.75954  0.75410  0.45156  1.0000
  H   H1918     1.0  0.65879  0.82926  0.25973  1.0000
  H   H1919     1.0  0.93991  0.72576  0.34704  1.0000
  H   H1920     1.0  0.69399  0.90039  0.44916  1.0000
  H   H1921     1.0  0.93581  0.76081  0.27705  1.0000
  C   C2382     1.0  0.77697  0.90746  0.40210  1.0000
  C   C2383     1.0  0.59022  0.94407  0.27928  1.0000
  C   C2384     1.0  0.57752  0.91197  0.27814  1.0000
  H   H1922     1.0  0.73958  0.62067  0.25018  1.0000
  H   H1923     1.0  0.71191  0.98939  0.38135  1.0000
  H   H1924     1.0  0.77113  0.74390  0.44452  1.0000
  H   H1925     1.0  0.54207  0.88795  0.27324  1.0000
  C   C2385     1.0  0.97277  0.71146  0.23768  1.0000
  P   P79       1.0  0.98017  0.74302  0.36757  1.0000
  S   S326      1.0  0.68260  0.50902  0.46877  1.0000
  C   C2386     1.0  0.90161  0.70497  0.24984  1.0000
  H   H1926     1.0  0.65920  0.78567  0.30946  1.0000
  H   H1927     1.0  0.81319  0.90769  0.28081  1.0000
  C   C2387     1.0  0.72919  0.64247  0.24468  1.0000
  C   C2388     1.0  0.80280  0.90130  0.40435  1.0000
  S   S327      1.0  0.69541  0.97153  0.47592  1.0000
  C   C2389     1.0  0.71435  0.94380  0.34836  1.0000
  C   C2390     1.0  0.72112  0.66650  0.46254  1.0000
  H   H1928     1.0  0.61008  0.94339  0.28251  1.0000
  H   H1929     1.0  0.58761  0.88641  0.28046  1.0000
  C   C2391     1.0  0.66698  0.54679  0.43767  1.0000
  C   C2392     1.0  0.69810  0.86235  0.37695  1.0000
  H   H1930     1.0  0.97653  0.73666  0.31273  1.0000
  C   C2393     1.0  0.69342  0.83931  0.47410  1.0000
  C   C2394     1.0  0.70515  0.63765  0.46167  1.0000
  S   S328      1.0  0.88868  0.95523  0.23728  1.0000
  C   C2395     1.0  0.71992  0.61798  0.28699  1.0000
  H   H1931     1.0  0.89469  0.73571  0.27985  1.0000
  C   C2396     1.0  0.50262  0.55947  0.24285  1.0000
  C   C2397     1.0  0.73309  0.84000  0.39200  1.0000
  C   C2398     1.0  0.69932  0.92058  0.40596  1.0000
  H   H1932     1.0  0.93879  0.72323  0.32334  1.0000
  C   C2399     1.0  0.94670  0.73063  0.45640  1.0000
  C   C2400     1.0  0.76876  0.78015  0.25169  1.0000
  P   P80       1.0  0.60021  0.50688  0.44495  1.0000
  C   C2401     1.0  0.67495  0.76441  0.23274  1.0000
  C   C2402     1.0  0.51507  0.52888  0.24882  1.0000
  H   H1933     1.0  0.75665  0.64905  0.23142  1.0000
  C   C2403     1.0  0.92484  0.71922  0.24817  1.0000
  C   C2404     1.0  0.73525  0.67339  0.47428  1.0000
  C   C2405     1.0  0.75785  0.74665  0.25324  1.0000
  C   C2406     1.0  0.74198  0.74145  0.26280  1.0000
  C   C2407     1.0  0.73679  0.76960  0.27087  1.0000
  C   C2408     1.0  0.74737  0.80299  0.26934  1.0000
  C   C2409     1.0  0.76305  0.80833  0.25976  1.0000
  C   C2410     1.0  0.81981  0.79541  0.24494  1.0000
  C   C2411     1.0  0.82576  0.81713  0.25566  1.0000
  C   C2412     1.0  0.85068  0.82245  0.26033  1.0000
  C   C2413     1.0  0.86992  0.80625  0.25435  1.0000
  C   C2414     1.0  0.86424  0.78546  0.24347  1.0000
  C   C2415     1.0  0.75006  0.83977  0.22967  1.0000
  C   C2416     1.0  0.49628  0.76871  0.23165  1.0000
  H   H1934     1.0  0.92488  0.76373  0.46792  1.0000
  H   H1935     1.0  0.69489  0.63149  0.45247  1.0000
  C   C2417     1.0  0.92608  0.74546  0.26942  1.0000
  H   H1936     1.0  0.51912  0.94599  0.26807  1.0000
  H   H1937     1.0  0.80645  0.71396  0.24217  1.0000
  C   C2418     1.0  0.95578  0.73033  0.32915  1.0000
  C   C2419     1.0  0.95227  0.83156  0.26710  1.0000
  H   H1938     1.0  0.74628  0.97718  0.40163  1.0000
  P   P81       1.0  0.93926  0.71129  0.23358  1.0000
  H   H1939     1.0  0.76086  0.72467  0.24693  1.0000
  H   H1940     1.0  0.73333  0.71578  0.26381  1.0000
  H   H1941     1.0  0.72439  0.76574  0.27823  1.0000
  H   H1942     1.0  0.74306  0.82517  0.27541  1.0000
  H   H1943     1.0  0.76993  0.83498  0.25837  1.0000
  H   H1944     1.0  0.81143  0.83097  0.26028  1.0000
  H   H1945     1.0  0.85503  0.84022  0.26835  1.0000
  H   H1946     1.0  0.88922  0.81099  0.25783  1.0000
  C   C2420     1.0  0.72207  0.92415  0.35980  1.0000
  C   C2421     1.0  0.65992  0.88487  0.47410  1.0000
  H   H1947     1.0  0.62593  0.79270  0.24848  1.0000
  H   H1948     1.0  0.73521  0.78267  0.39564  1.0000
  H   H1949     1.0  0.94416  0.68713  0.36988  1.0000
  C   C2422     1.0  0.66703  0.90091  0.46290  1.0000
  C   C2423     1.0  0.64280  0.96146  0.34292  1.0000
  H   H1950     1.0  0.69140  0.69121  0.29853  1.0000
  C   C2424     1.0  0.74844  0.64711  0.30284  1.0000
  H   H1951     1.0  0.56452  0.76010  0.24867  1.0000
  H   H1952     1.0  0.94137  0.82713  0.27505  1.0000
  H   H1953     1.0  0.74016  0.78648  0.32027  1.0000
  H   H1954     1.0  0.74023  0.63810  0.32945  1.0000
  C   C2425     1.0  0.62954  0.51262  0.43850  1.0000
  P   P82       1.0  0.73120  0.91412  0.38663  1.0000
  C   C2426     1.0  0.55156  0.97835  0.27238  1.0000
  H   H1955     1.0  0.79411  0.72043  0.35604  1.0000
  H   H1956     1.0  0.71770  0.84737  0.45906  1.0000
  H   H1957     1.0  0.70215  0.82339  0.25430  1.0000
  C   C2427     1.0  0.70622  0.67155  0.29745  1.0000
  C   C2428     1.0  0.66327  0.81141  0.25214  1.0000
  C   C2429     1.0  0.69001  0.82718  0.37536  1.0000
  C   C2430     1.0  0.77028  0.71467  0.33819  1.0000
  C   C2431     1.0  0.96141  0.78475  0.46689  1.0000
  C   C2432     1.0  0.97674  0.81673  0.26781  1.0000
  C   C2433     1.0  0.98040  0.93914  0.26272  1.0000
  H   H1958     1.0  0.79048  0.75944  0.46613  1.0000
  H   H1959     1.0  0.96318  0.63811  0.23400  1.0000
  C   C2434     1.0  0.57736  0.97710  0.27642  1.0000
  C   C2435     1.0  0.83937  0.78032  0.23870  1.0000
  H   H1960     1.0  0.64575  0.94623  0.33441  1.0000
  C   C2436     1.0  0.95723  0.98085  0.24719  1.0000
  S   S329      1.0  0.94378  0.88587  0.23234  1.0000
  C   C2437     1.0  0.68777  0.80780  0.24913  1.0000
  H   H1961     1.0  0.94066  0.93848  0.25735  1.0000
  C   C2438     1.0  0.97852  0.74091  0.35017  1.0000
  H   H1962     1.0  0.54417  0.70647  0.23906  1.0000
  C   C2439     1.0  0.73059  0.96580  0.40570  1.0000
  Fe  Fe163     1.0  0.72389  0.51221  0.46754  1.0000
  C   C2440     1.0  0.64362  0.54274  0.44199  1.0000
  C   C2441     1.0  0.70205  0.96696  0.42205  1.0000
  C   C2442     1.0  0.67660  0.52067  0.42997  1.0000
  C   C2443     1.0  0.64469  0.79098  0.24571  1.0000
  C   C2444     1.0  0.54315  0.59898  0.43131  1.0000
  C   C2445     1.0  0.64641  0.96617  0.36619  1.0000
  H   H1963     1.0  0.54139  0.81928  0.24737  1.0000
  H   H1964     1.0  0.67362  0.68917  0.24291  1.0000
  H   H1965     1.0  0.50113  0.71157  0.22842  1.0000
  C   C2446     1.0  0.53250  0.79590  0.24316  1.0000
  C   C2447     1.0  0.72974  0.78078  0.46988  1.0000
  C   C2448     1.0  0.65045  0.76750  0.23606  1.0000
  C   C2449     1.0  0.94264  0.76007  0.46412  1.0000
  H   H1966     1.0  0.69512  0.52332  0.42703  1.0000
  H   H1967     1.0  0.51984  0.57459  0.44428  1.0000
  C   C2450     1.0  0.60222  0.53643  0.46954  1.0000
  C   C2451     1.0  0.53415  0.73243  0.23849  1.0000
  Fe  Fe164     1.0  0.90297  0.90483  0.22873  1.0000
  C   C2452     1.0  0.54557  0.76262  0.24388  1.0000
  C   C2453     1.0  0.73888  0.65861  0.23417  1.0000
  H   H1968     1.0  0.60092  0.56771  0.42610  1.0000
  H   H1969     1.0  0.63588  0.75111  0.23155  1.0000
  H   H1970     1.0  0.96570  0.86152  0.45938  1.0000
  H   H1971     1.0  0.74735  0.69597  0.47462  1.0000
  H   H1972     1.0  0.82147  0.70092  0.47543  1.0000
  C   C2454     1.0  0.97699  0.73792  0.32315  1.0000
  C   C2455     1.0  0.97939  0.99710  0.24504  1.0000
  H   H1973     1.0  0.49824  0.82500  0.23671  1.0000
  C   C2456     1.0  0.70509  0.99586  0.36077  1.0000
  S   S330      1.0  0.86954  0.87260  0.23179  1.0000
  C   C2457     1.0  0.50966  0.73544  0.23241  1.0000
  C   C2458     1.0  0.77538  0.82925  0.22996  1.0000
  H   H1974     1.0  0.69559  0.97909  0.43052  1.0000
  C   C2459     1.0  0.75566  0.77566  0.47304  1.0000
  C   C2460     1.0  0.70289  0.61616  0.47261  1.0000
  C   C2461     1.0  0.97708  0.87102  0.46780  1.0000
  C   C2462     1.0  0.63189  0.99620  0.34152  1.0000
  C   C2463     1.0  0.94500  0.63769  0.22844  1.0000
  H   H1975     1.0  0.69975  0.99466  0.33992  1.0000
  H   H1976     1.0  0.48753  0.99583  0.27502  1.0000
  H   H1977     1.0  0.83561  0.76525  0.22996  1.0000
  C   C2464     1.0  0.50796  0.79900  0.23707  1.0000
  C   C2465     1.0  0.80240  0.93935  0.51206  1.0000
  S   S331      1.0  0.88799  0.56072  0.70199  1.0000
  H   H1978     1.0  0.68143  0.79710  0.50349  1.0000
  C   C2466     1.0  0.66629  0.71210  0.48355  1.0000
  S   S332      1.0  0.83731  0.52696  0.71031  1.0000
  C   C2467     1.0  0.76100  0.83631  0.51708  1.0000
  Fe  Fe165     1.0  0.85181  0.58298  0.70800  1.0000
  S   S333      1.0  0.82339  0.62703  0.69942  1.0000
  C   C2468     1.0  0.49753  0.95633  0.71025  1.0000
  H   H1979     1.0  0.53986  0.79732  0.57423  1.0000
  Fe  Fe166     1.0  0.79670  0.91373  0.66449  1.0000
  S   S334      1.0  0.75467  0.91204  0.66022  1.0000
  S   S335      1.0  0.82223  0.95921  0.65913  1.0000
  Fe  Fe167     1.0  0.80157  0.83159  0.67247  1.0000
  S   S336      1.0  0.76015  0.82456  0.66856  1.0000
  S   S337      1.0  0.83289  0.78912  0.67877  1.0000
  Fe  Fe168     1.0  0.76093  0.85903  0.65047  1.0000
  S   S338      1.0  0.74753  0.84681  0.62923  1.0000
  Fe  Fe169     1.0  0.75668  0.87757  0.67859  1.0000
  S   S339      1.0  0.73565  0.87980  0.69641  1.0000
  S   S340      1.0  0.80276  0.86267  0.65378  1.0000
  S   S341      1.0  0.79832  0.88278  0.68342  1.0000
  S   S342      1.0  0.62725  0.93999  0.70591  1.0000
  Fe  Fe170     1.0  0.65293  0.77540  0.54600  1.0000
  S   S343      1.0  0.67449  0.73762  0.56076  1.0000
  S   S344      1.0  0.67706  0.80228  0.53235  1.0000
  Fe  Fe171     1.0  0.60226  0.75286  0.55399  1.0000
  S   S345      1.0  0.62088  0.71357  0.56915  1.0000
  S   S346      1.0  0.56020  0.76791  0.54969  1.0000
  Fe  Fe172     1.0  0.64832  0.75699  0.57462  1.0000
  S   S347      1.0  0.65777  0.76835  0.59632  1.0000
  Fe  Fe173     1.0  0.64587  0.69777  0.55399  1.0000
  S   S348      1.0  0.66087  0.64121  0.55039  1.0000
  S   S349      1.0  0.62830  0.79751  0.56021  1.0000
  S   S350      1.0  0.62576  0.73425  0.53854  1.0000
  Fe  Fe174     1.0  0.69170  0.52485  0.48947  1.0000
  S   S351      1.0  0.66641  0.57110  0.49533  1.0000
  H   H1980     1.0  0.79181  0.98919  0.50161  1.0000
  H   H1981     1.0  0.50243  0.80297  0.58557  1.0000
  C   C2469     1.0  0.67760  0.93877  0.61178  1.0000
  S   S352      1.0  0.65838  0.95936  0.50675  1.0000
  C   C2470     1.0  0.67143  0.84623  0.52555  1.0000
  C   C2471     1.0  0.64902  0.86569  0.52629  1.0000
  C   C2472     1.0  0.64508  0.90013  0.52030  1.0000
  C   C2473     1.0  0.66358  0.91549  0.51368  1.0000
  C   C2474     1.0  0.68602  0.89607  0.51302  1.0000
  C   C2475     1.0  0.68984  0.86158  0.51890  1.0000
  H   H1982     1.0  0.63465  0.85403  0.53133  1.0000
  H   H1983     1.0  0.62760  0.91491  0.52078  1.0000
  H   H1984     1.0  0.70038  0.90755  0.50792  1.0000
  H   H1985     1.0  0.70715  0.84666  0.51831  1.0000
  C   C2476     1.0  0.66598  0.59097  0.51064  1.0000
  C   C2477     1.0  0.68095  0.57748  0.52166  1.0000
  C   C2478     1.0  0.67929  0.59338  0.53372  1.0000
  C   C2479     1.0  0.66298  0.62322  0.53487  1.0000
  C   C2480     1.0  0.64819  0.63698  0.52381  1.0000
  C   C2481     1.0  0.64962  0.62079  0.51178  1.0000
  H   H1986     1.0  0.69356  0.55452  0.52092  1.0000
  H   H1987     1.0  0.69072  0.58246  0.54222  1.0000
  H   H1988     1.0  0.63539  0.65969  0.52456  1.0000
  H   H1989     1.0  0.63787  0.63123  0.50333  1.0000
  C   C2482     1.0  0.72256  0.82393  0.62051  1.0000
  C   C2483     1.0  0.70112  0.81437  0.62598  1.0000
  C   C2484     1.0  0.68148  0.79775  0.61841  1.0000
  C   C2485     1.0  0.68307  0.78992  0.60533  1.0000
  C   C2486     1.0  0.70467  0.79899  0.59994  1.0000
  C   C2487     1.0  0.72411  0.81615  0.60743  1.0000
  H   H1990     1.0  0.69951  0.82028  0.63598  1.0000
  H   H1991     1.0  0.66490  0.79096  0.62273  1.0000
  H   H1992     1.0  0.70658  0.79233  0.59006  1.0000
  H   H1993     1.0  0.74061  0.82319  0.60308  1.0000
  C   C2488     1.0  0.70531  0.89683  0.69857  1.0000
  C   C2489     1.0  0.69809  0.89633  0.71112  1.0000
  C   C2490     1.0  0.67430  0.90956  0.71345  1.0000
  C   C2491     1.0  0.65736  0.92325  0.70324  1.0000
  C   C2492     1.0  0.66458  0.92404  0.69067  1.0000
  C   C2493     1.0  0.68846  0.91085  0.68832  1.0000
  H   H1994     1.0  0.93172  0.94712  0.71541  1.0000
  Fe  Fe175     1.0  0.68831  0.98477  0.49618  1.0000
  H   H1995     1.0  0.65160  0.93481  0.68271  1.0000
  H   H1996     1.0  0.69380  0.91153  0.67863  1.0000
  C   C2494     1.0  0.51030  0.75311  0.59682  1.0000
  C   C2495     1.0  0.82710  0.67269  0.69459  1.0000
  C   C2496     1.0  0.84971  0.68493  0.69114  1.0000
  C   C2497     1.0  0.85130  0.72077  0.68654  1.0000
  C   C2498     1.0  0.83032  0.74477  0.68527  1.0000
  C   C2499     1.0  0.80791  0.73273  0.68899  1.0000
  C   C2500     1.0  0.80626  0.69690  0.69355  1.0000
  H   H1997     1.0  0.86573  0.66644  0.69165  1.0000
  H   H1998     1.0  0.86875  0.72978  0.68367  1.0000
  H   H1999     1.0  0.79189  0.75117  0.68829  1.0000
  H   H2000     1.0  0.78868  0.68787  0.69625  1.0000
  H   H2001     1.0  0.64171  0.69983  0.49786  1.0000
  H   H2002     1.0  0.50560  0.78293  0.65878  1.0000
  H   H2003     1.0  0.63094  0.50828  0.49904  1.0000
  H   H2004     1.0  0.61116  0.52178  0.52301  1.0000
  C   C2501     1.0  0.97659  0.81314  0.72189  1.0000
  C   C2502     1.0  0.50877  0.76364  0.54705  1.0000
  C   C2503     1.0  0.53175  0.74539  0.55115  1.0000
  C   C2504     1.0  0.53135  0.71041  0.55641  1.0000
  C   C2505     1.0  0.50835  0.69416  0.55758  1.0000
  C   C2506     1.0  0.54968  0.61767  0.55431  1.0000
  H   H2005     1.0  0.50873  0.79069  0.54298  1.0000
  H   H2006     1.0  0.54876  0.69605  0.55970  1.0000
  H   H2007     1.0  0.50832  0.66724  0.56173  1.0000
  C   C2507     1.0  0.57509  0.72705  0.51837  1.0000
  H   H2008     1.0  0.76137  0.88720  0.50661  1.0000
  H   H2009     1.0  0.74225  0.95737  0.70291  1.0000
  H   H2010     1.0  0.55966  0.70182  0.53421  1.0000
  H   H2011     1.0  0.51792  0.68938  0.52403  1.0000
  H   H2012     1.0  0.66691  0.95051  0.61894  1.0000
  H   H2013     1.0  0.90908  0.84760  0.70967  1.0000
  C   C2508     1.0  0.73424  0.65050  0.48514  1.0000
  H   H2014     1.0  0.54675  0.61054  0.57466  1.0000
  H   H2015     1.0  0.68169  0.69855  0.71319  1.0000
  C   C2509     1.0  0.52068  0.76897  0.64110  1.0000
  H   H2016     1.0  0.75674  0.78306  0.52504  1.0000
  C   C2510     1.0  0.79605  0.93793  0.53475  1.0000
  C   C2511     1.0  0.95628  0.79363  0.72520  1.0000
  H   H2017     1.0  0.66903  0.90956  0.72313  1.0000
  H   H2018     1.0  0.51926  0.83509  0.68979  1.0000
  C   C2512     1.0  0.92795  0.83811  0.71315  1.0000
  H   H2019     1.0  0.73023  0.76291  0.50588  1.0000
  C   C2513     1.0  0.56536  0.62574  0.54482  1.0000
  H   H2020     1.0  0.77254  0.84519  0.52552  1.0000
  C   C2514     1.0  0.54830  0.72037  0.59271  1.0000
  C   C2515     1.0  0.73955  0.74103  0.69286  1.0000
  C   C2516     1.0  0.73071  0.71550  0.70109  1.0000
  C   C2517     1.0  0.72583  0.68084  0.69673  1.0000
  C   C2518     1.0  0.73015  0.67157  0.68420  1.0000
  C   C2519     1.0  0.73983  0.69680  0.67602  1.0000
  C   C2520     1.0  0.74374  0.73184  0.68032  1.0000
  P   P83       1.0  0.74661  0.68463  0.66004  1.0000
  C   C2521     1.0  0.77187  0.71132  0.65554  1.0000
  C   C2522     1.0  0.75647  0.63752  0.66046  1.0000
  C   C2523     1.0  0.74889  0.61513  0.65015  1.0000
  C   C2524     1.0  0.75690  0.57881  0.65058  1.0000
  C   C2525     1.0  0.77254  0.56464  0.66127  1.0000
  C   C2526     1.0  0.78016  0.58676  0.67155  1.0000
  C   C2527     1.0  0.77214  0.62297  0.67116  1.0000
  C   C2528     1.0  0.76668  0.74503  0.64919  1.0000
  C   C2529     1.0  0.78611  0.76577  0.64572  1.0000
  C   C2530     1.0  0.81085  0.75343  0.64872  1.0000
  C   C2531     1.0  0.81621  0.72007  0.65505  1.0000
  C   C2532     1.0  0.79686  0.69911  0.65849  1.0000
  C   C2533     1.0  0.71945  0.69366  0.64840  1.0000
  C   C2534     1.0  0.69563  0.69850  0.65244  1.0000
  C   C2535     1.0  0.67493  0.70722  0.64339  1.0000
  C   C2536     1.0  0.67789  0.71120  0.63027  1.0000
  C   C2537     1.0  0.70149  0.70627  0.62618  1.0000
  C   C2538     1.0  0.72217  0.69732  0.63517  1.0000
  H   H2021     1.0  0.74343  0.76794  0.69621  1.0000
  H   H2022     1.0  0.72779  0.72257  0.71086  1.0000
  H   H2023     1.0  0.71917  0.66091  0.70313  1.0000
  H   H2024     1.0  0.72643  0.64453  0.68101  1.0000
  H   H2025     1.0  0.75079  0.75180  0.67414  1.0000
  H   H2026     1.0  0.73689  0.62554  0.64177  1.0000
  H   H2027     1.0  0.75104  0.56165  0.64260  1.0000
  H   H2028     1.0  0.82065  0.96521  0.56181  1.0000
  H   H2029     1.0  0.79247  0.57605  0.67984  1.0000
  H   H2030     1.0  0.77847  0.63967  0.67920  1.0000
  H   H2031     1.0  0.74770  0.75574  0.64704  1.0000
  H   H2032     1.0  0.78201  0.79180  0.64092  1.0000
  H   H2033     1.0  0.82590  0.77020  0.64648  1.0000
  H   H2034     1.0  0.83545  0.71105  0.65773  1.0000
  H   H2035     1.0  0.80171  0.67395  0.66372  1.0000
  H   H2036     1.0  0.69300  0.69594  0.66256  1.0000
  H   H2037     1.0  0.65662  0.71129  0.64653  1.0000
  H   H2038     1.0  0.66200  0.71861  0.62324  1.0000
  H   H2039     1.0  0.70374  0.71008  0.61602  1.0000
  H   H2040     1.0  0.74038  0.69397  0.63183  1.0000
  H   H2041     1.0  0.73798  0.59725  0.51596  1.0000
  C   C2539     1.0  0.73941  0.84886  0.49567  1.0000
  H   H2042     1.0  0.70414  0.99399  0.69499  1.0000
  C   C2540     1.0  0.70248  0.92746  0.61528  1.0000
  H   H2043     1.0  0.71107  0.93012  0.62514  1.0000
  H   H2044     1.0  0.57644  0.87364  0.56366  1.0000
  P   P84       1.0  0.75512  0.65523  0.49986  1.0000
  C   C2541     1.0  0.76807  0.61051  0.50466  1.0000
  C   C2542     1.0  0.77950  0.68586  0.49696  1.0000
  H   H2045     1.0  0.51669  0.95156  0.71454  1.0000
  H   H2046     1.0  0.50937  0.59675  0.71067  1.0000
  C   C2543     1.0  0.78589  0.99243  0.52170  1.0000
  C   C2544     1.0  0.80275  0.73965  0.50223  1.0000
  C   C2545     1.0  0.78440  0.71566  0.50483  1.0000
  C   C2546     1.0  0.79010  0.59692  0.50021  1.0000
  C   C2547     1.0  0.79932  0.56200  0.50376  1.0000
  C   C2548     1.0  0.78674  0.54031  0.51180  1.0000
  C   C2549     1.0  0.76487  0.55346  0.51629  1.0000
  C   C2550     1.0  0.75545  0.58824  0.51268  1.0000
  C   C2551     1.0  0.73855  0.67039  0.51299  1.0000
  C   C2552     1.0  0.75082  0.66924  0.52566  1.0000
  C   C2553     1.0  0.73783  0.67825  0.53608  1.0000
  C   C2554     1.0  0.71250  0.68830  0.53394  1.0000
  C   C2555     1.0  0.70022  0.68960  0.52139  1.0000
  C   C2556     1.0  0.71313  0.68062  0.51093  1.0000
  H   H2047     1.0  0.90902  0.99580  0.62705  1.0000
  H   H2048     1.0  0.83046  0.75282  0.48967  1.0000
  C   C2557     1.0  0.73019  0.81398  0.49538  1.0000
  H   H2049     1.0  0.71549  0.60533  0.49263  1.0000
  C   C2558     1.0  0.94827  0.85707  0.70980  1.0000
  Fe  Fe176     1.0  0.90260  0.56178  0.72315  1.0000
  H   H2050     1.0  0.82808  0.92969  0.58235  1.0000
  C   C2559     1.0  0.80496  0.95852  0.56694  1.0000
  H   H2051     1.0  0.77396  0.72086  0.51288  1.0000
  C   C2560     1.0  0.51523  0.76240  0.62790  1.0000
  S   S353      1.0  0.89149  0.50514  0.72720  1.0000
  C   C2561     1.0  0.66632  0.93390  0.59919  1.0000
  H   H2052     1.0  0.51289  0.64481  0.69436  1.0000
  H   H2053     1.0  0.63678  0.97464  0.53304  1.0000
  H   H2054     1.0  0.77030  0.66051  0.52749  1.0000
  H   H2055     1.0  0.74718  0.67663  0.54586  1.0000
  H   H2056     1.0  0.70218  0.69432  0.54203  1.0000
  H   H2057     1.0  0.68047  0.69664  0.51990  1.0000
  H   H2058     1.0  0.70312  0.68071  0.50134  1.0000
  C   C2562     1.0  0.71715  0.87446  0.55121  1.0000
  C   C2563     1.0  0.72003  0.83770  0.55428  1.0000
  C   C2564     1.0  0.70585  0.82232  0.56321  1.0000
  C   C2565     1.0  0.68820  0.84338  0.56881  1.0000
  C   C2566     1.0  0.68509  0.88034  0.56575  1.0000
  C   C2567     1.0  0.70018  0.89591  0.55714  1.0000
  P   P85       1.0  0.66445  0.90833  0.57413  1.0000
  C   C2568     1.0  0.65583  0.94880  0.56441  1.0000
  C   C2569     1.0  0.63670  0.88428  0.57666  1.0000
  C   C2570     1.0  0.61456  0.88910  0.56817  1.0000
  C   C2571     1.0  0.59327  0.87052  0.57041  1.0000
  C   C2572     1.0  0.59386  0.84711  0.58113  1.0000
  C   C2573     1.0  0.61573  0.84222  0.58963  1.0000
  C   C2574     1.0  0.63706  0.86060  0.58741  1.0000
  C   C2575     1.0  0.78660  0.98969  0.61203  1.0000
  C   C2576     1.0  0.87603  0.97133  0.69162  1.0000
  H   H2059     1.0  0.79658  0.92274  0.54375  1.0000
  S   S354      1.0  0.94250  0.58066  0.72746  1.0000
  C   C2577     1.0  0.64865  0.94611  0.55107  1.0000
  C   C2578     1.0  0.67994  0.91787  0.58996  1.0000
  C   C2579     1.0  0.70491  0.90652  0.59358  1.0000
  C   C2580     1.0  0.71613  0.91156  0.60615  1.0000
  P   P86       1.0  0.77569  0.99652  0.54712  1.0000
  C   C2581     1.0  0.59558  0.80826  0.71248  1.0000
  H   H2060     1.0  0.66250  0.98613  0.58005  1.0000
  H   H2061     1.0  0.72777  0.88604  0.54405  1.0000
  H   H2062     1.0  0.73275  0.82085  0.54950  1.0000
  H   H2063     1.0  0.70826  0.79386  0.56560  1.0000
  H   H2064     1.0  0.67716  0.83076  0.57558  1.0000
  H   H2065     1.0  0.69874  0.92449  0.55489  1.0000
  C   C2582     1.0  0.63473  0.78026  0.72248  1.0000
  H   H2066     1.0  0.90204  0.69615  0.70229  1.0000
  H   H2067     1.0  0.57756  0.83217  0.58271  1.0000
  H   H2068     1.0  0.61643  0.82341  0.59779  1.0000
  H   H2069     1.0  0.65394  0.85574  0.59401  1.0000
  H   H2070     1.0  0.74968  0.93600  0.58607  1.0000
  H   H2071     1.0  0.80262  0.96886  0.63078  1.0000
  C   C2583     1.0  0.49471  0.63827  0.69701  1.0000
  C   C2584     1.0  0.80375  0.92076  0.52396  1.0000
  H   H2072     1.0  0.64816  0.92000  0.54662  1.0000
  H   H2073     1.0  0.71562  0.89268  0.58690  1.0000
  H   H2074     1.0  0.73516  0.90179  0.60902  1.0000
  C   C2585     1.0  0.49045  0.76514  0.62200  1.0000
  H   H2075     1.0  0.94298  0.97992  0.68202  1.0000
  H   H2076     1.0  0.85715  0.96919  0.69410  1.0000
  C   C2586     1.0  0.59993  0.63012  0.56177  1.0000
  C   C2587     1.0  0.58481  0.72215  0.50664  1.0000
  C   C2588     1.0  0.58558  0.68786  0.50140  1.0000
  H   H2077     1.0  0.60304  0.63901  0.54161  1.0000
  H   H2078     1.0  0.61951  0.63437  0.56467  1.0000
  H   H2079     1.0  0.57450  0.75359  0.52251  1.0000
  C   C2589     1.0  0.79298  0.68109  0.48631  1.0000
  C   C2590     1.0  0.61021  0.53681  0.48279  1.0000
  S   S355      1.0  0.72865  0.98364  0.50415  1.0000
  C   C2591     1.0  0.67301  0.85419  0.47968  1.0000
  H   H2080     1.0  0.53043  0.75539  0.62240  1.0000
  H   H2081     1.0  0.79361  0.51296  0.51432  1.0000
  H   H2082     1.0  0.81604  0.55144  0.50010  1.0000
  C   C2592     1.0  0.51519  0.78005  0.58786  1.0000
  C   C2593     1.0  0.76067  0.96193  0.56901  1.0000
  C   C2594     1.0  0.64213  0.97701  0.54336  1.0000
  H   H2083     1.0  0.93575  0.73660  0.70946  1.0000
  C   C2595     1.0  0.53654  0.77716  0.58146  1.0000
  H   H2084     1.0  0.91235  0.94407  0.66880  1.0000
  H   H2085     1.0  0.51598  0.53397  0.72394  1.0000
  H   H2086     1.0  0.50739  0.96532  0.69104  1.0000
  H   H2087     1.0  0.91585  0.79245  0.72338  1.0000
  H   H2088     1.0  0.54186  0.86518  0.70853  1.0000
  C   C2596     1.0  0.88299  0.95410  0.68072  1.0000
  H   H2089     1.0  0.81044  0.89289  0.52472  1.0000
  H   H2090     1.0  0.71111  0.88591  0.71910  1.0000
  C   C2597     1.0  0.90712  0.95733  0.67730  1.0000
  C   C2598     1.0  0.65996  0.74977  0.50163  1.0000
  C   C2599     1.0  0.50994  0.84030  0.69825  1.0000
  C   C2600     1.0  0.76505  0.94201  0.58065  1.0000
  S   S356      1.0  0.73263  0.52991  0.48797  1.0000
  H   H2091     1.0  0.94564  0.50950  0.68675  1.0000
  C   C2601     1.0  0.81636  0.73413  0.49175  1.0000
  C   C2602     1.0  0.71727  0.62265  0.48431  1.0000
  H   H2092     1.0  0.73504  0.94859  0.54122  1.0000
  C   C2603     1.0  0.55560  0.53878  0.50455  1.0000
  C   C2604     1.0  0.48622  0.85380  0.72013  1.0000
  C   C2605     1.0  0.58420  0.62235  0.57113  1.0000
  H   H2093     1.0  0.59843  0.57765  0.53296  1.0000
  C   C2606     1.0  0.71055  0.99246  0.70525  1.0000
  H   H2094     1.0  0.64681  0.94178  0.59673  1.0000
  C   C2607     1.0  0.62383  0.50728  0.48889  1.0000
  C   C2608     1.0  0.79349  0.97515  0.51094  1.0000
  C   C2609     1.0  0.50149  0.77810  0.64852  1.0000
  C   C2610     1.0  0.78059  0.96983  0.56195  1.0000
  C   C2611     1.0  0.58604  0.56699  0.52517  1.0000
  C   C2612     1.0  0.56315  0.58472  0.52069  1.0000
  C   C2613     1.0  0.59051  0.63251  0.54869  1.0000
  C   C2614     1.0  0.55905  0.61631  0.56741  1.0000
  C   C2615     1.0  0.52684  0.72299  0.59907  1.0000
  H   H2095     1.0  0.86953  0.93857  0.67485  1.0000
  H   H2096     1.0  0.78875  0.65949  0.47972  1.0000
  H   H2097     1.0  0.56952  0.74523  0.57881  1.0000
  C   C2616     1.0  0.51105  0.86401  0.71991  1.0000
  H   H2098     1.0  0.56098  0.69707  0.59440  1.0000
  C   C2617     1.0  0.68335  0.73630  0.47952  1.0000
  H   H2099     1.0  0.57701  0.63237  0.50350  1.0000
  P   P87       1.0  0.55362  0.62621  0.52784  1.0000
  C   C2618     1.0  0.59341  0.53517  0.51951  1.0000
  H   H2100     1.0  0.53015  0.61278  0.55173  1.0000
  C   C2619     1.0  0.57637  0.65855  0.50781  1.0000
  C   C2620     1.0  0.56658  0.66333  0.51964  1.0000
  H   H2101     1.0  0.76467  0.78237  0.48245  1.0000
  H   H2102     1.0  0.65129  0.75489  0.51036  1.0000
  H   H2103     1.0  0.94520  0.88133  0.70376  1.0000
  H   H2104     1.0  0.59320  0.68400  0.49233  1.0000
  C   C2621     1.0  0.52282  0.85734  0.70887  1.0000
  H   H2105     1.0  0.69490  0.64155  0.72494  1.0000
  C   C2622     1.0  0.55320  0.74755  0.58397  1.0000
  C   C2623     1.0  0.97256  0.84473  0.71425  1.0000
  C   C2624     1.0  0.50561  0.60055  0.52801  1.0000
  C   C2625     1.0  0.68879  0.76759  0.48650  1.0000
  H   H2106     1.0  0.80770  0.92590  0.50358  1.0000
  C   C2626     1.0  0.81144  0.70486  0.48379  1.0000
  C   C2627     1.0  0.80925  0.93854  0.57858  1.0000
  C   C2628     1.0  0.65672  0.98305  0.56987  1.0000
  C   C2629     1.0  0.67410  0.77297  0.70555  1.0000
  C   C2630     1.0  0.89855  0.67540  0.72143  1.0000
  H   H2107     1.0  0.77417  0.96755  0.61034  1.0000
  H   H2108     1.0  0.80629  0.76271  0.50827  1.0000
  C   C2631     1.0  0.50767  0.66515  0.52485  1.0000
  H   H2109     1.0  0.80018  0.61264  0.49388  1.0000
  C   C2632     1.0  0.70273  0.98144  0.53416  1.0000
  C   C2633     1.0  0.66148  0.75029  0.69658  1.0000
  C   C2634     1.0  0.66526  0.75245  0.68351  1.0000
  C   C2635     1.0  0.68112  0.77795  0.67923  1.0000
  C   C2636     1.0  0.69313  0.80136  0.68801  1.0000
  C   C2637     1.0  0.68974  0.79888  0.70111  1.0000
  C   C2638     1.0  0.78730  0.97406  0.53370  1.0000
  C   C2639     1.0  0.92433  0.97784  0.68478  1.0000
  H   H2110     1.0  0.59182  0.74495  0.50167  1.0000
  C   C2640     1.0  0.51984  0.63097  0.52631  1.0000
  C   C2641     1.0  0.54826  0.57078  0.51013  1.0000
  H   H2111     1.0  0.51459  0.57408  0.52970  1.0000
  H   H2112     1.0  0.53981  0.76690  0.64561  1.0000
  H   H2113     1.0  0.59158  0.62104  0.58126  1.0000
  C   C2642     1.0  0.57805  0.52080  0.50932  1.0000
  H   H2114     1.0  0.63064  0.81392  0.70500  1.0000
  H   H2115     1.0  0.69113  0.95865  0.53196  1.0000
  H   H2116     1.0  0.61354  0.90670  0.55973  1.0000
  C   C2643     1.0  0.73695  0.79007  0.50594  1.0000
  H   H2117     1.0  0.52308  0.70151  0.60570  1.0000
  Fe  Fe177     1.0  0.73592  0.97364  0.48358  1.0000
  C   C2644     1.0  0.91739  0.99558  0.69566  1.0000
  H   H2118     1.0  0.64846  0.73127  0.69968  1.0000
  H   H2119     1.0  0.65556  0.73478  0.67666  1.0000
  H   H2120     1.0  0.68393  0.77995  0.66910  1.0000
  H   H2121     1.0  0.70509  0.82165  0.68468  1.0000
  H   H2122     1.0  0.69904  0.81782  0.70760  1.0000
  H   H2123     1.0  0.75477  0.53612  0.52222  1.0000
  H   H2124     1.0  0.88377  0.65754  0.71816  1.0000
  C   C2645     1.0  0.65454  0.71889  0.49458  1.0000
  H   H2125     1.0  0.73480  0.86765  0.48757  1.0000
  C   C2646     1.0  0.56658  0.69764  0.52499  1.0000
  H   H2126     1.0  0.77884  0.53657  0.66160  1.0000
  H   H2127     1.0  0.53100  0.58466  0.50617  1.0000
  C   C2647     1.0  0.49262  0.61105  0.70631  1.0000
  Fe  Fe178     1.0  0.61198  0.93322  0.72534  1.0000
  C   C2648     1.0  0.75217  0.80133  0.51679  1.0000
  C   C2649     1.0  0.75468  0.85999  0.50650  1.0000
  C   C2650     1.0  0.67713  0.77379  0.49769  1.0000
  C   C2651     1.0  0.73205  0.97182  0.70971  1.0000
  H   H2128     1.0  0.66736  0.84283  0.48847  1.0000
  C   C2652     1.0  0.62129  0.80171  0.71258  1.0000
  H   H2129     1.0  0.79262  0.91458  0.59443  1.0000
  C   C2653     1.0  0.93189  0.80667  0.72087  1.0000
  H   H2130     1.0  0.58539  0.82522  0.70490  1.0000
  C   C2654     1.0  0.78928  0.93010  0.58540  1.0000
  C   C2655     1.0  0.80259  0.99040  0.62354  1.0000
  H   H2131     1.0  0.60686  0.56057  0.48830  1.0000
  H   H2132     1.0  0.82316  0.70227  0.72476  1.0000
  C   C2656     1.0  0.72755  0.97585  0.53947  1.0000
  C   C2657     1.0  0.48576  0.74731  0.54816  1.0000
  C   C2658     1.0  0.92785  0.72026  0.71660  1.0000
  C   C2659     1.0  0.48537  0.71236  0.55343  1.0000
  H   H2133     1.0  0.75685  0.95318  0.72631  1.0000
  C   C2660     1.0  0.68282  0.69774  0.72359  1.0000
  H   H2134     1.0  0.87670  0.51112  0.64701  1.0000
  H   H2135     1.0  0.54391  0.52792  0.49651  1.0000
  H   H2136     1.0  0.74179  0.97137  0.56567  1.0000
  P   P88       1.0  0.66790  0.77128  0.72229  1.0000
  C   C2661     1.0  0.74018  0.96932  0.72293  1.0000
  S   S357      1.0  0.76481  0.92905  0.48094  1.0000
  C   C2662     1.0  0.90879  0.69722  0.71247  1.0000
  H   H2137     1.0  0.94272  0.51909  0.70998  1.0000
  C   C2663     1.0  0.48515  0.82990  0.69850  1.0000
  P   P89       1.0  0.71048  0.79972  0.48137  1.0000
  C   C2664     1.0  0.94888  0.95644  0.72044  1.0000
  C   C2665     1.0  0.89320  0.99173  0.69915  1.0000
  H   H2138     1.0  0.65041  0.99480  0.72165  1.0000
  C   C2666     1.0  0.95734  0.99085  0.71773  1.0000
  C   C2667     1.0  0.58316  0.79430  0.72243  1.0000
  H   H2139     1.0  0.56337  0.80037  0.72253  1.0000
  Fe  Fe179     1.0  0.87508  0.50469  0.70632  1.0000
  C   C2668     1.0  0.49225  0.96395  0.69700  1.0000
  H   H2140     1.0  0.97661  0.68692  0.72178  1.0000
  H   H2141     1.0  0.64458  0.89671  0.47865  1.0000
  H   H2142     1.0  0.97920  0.94124  0.48832  1.0000
  H   H2143     1.0  0.66256  0.68767  0.47826  1.0000
  H   H2144     1.0  0.82989  0.57616  0.77821  1.0000
  C   C2669     1.0  0.70696  0.58139  0.95862  1.0000
  C   C2670     1.0  0.95329  0.62342  0.76332  1.0000
  Fe  Fe180     1.0  0.85934  0.73265  0.90949  1.0000
  S   S358      1.0  0.82631  0.76303  0.89850  1.0000
  S   S359      1.0  0.89791  0.75521  0.90699  1.0000
  Fe  Fe181     1.0  0.82464  0.67891  0.92005  1.0000
  S   S360      1.0  0.78948  0.70526  0.90970  1.0000
  S   S361      1.0  0.82732  0.63379  0.93539  1.0000
  Fe  Fe182     1.0  0.81132  0.70927  0.89248  1.0000
  S   S362      1.0  0.79643  0.71053  0.87079  1.0000
  Fe  Fe183     1.0  0.80662  0.75728  0.91627  1.0000
  S   S363      1.0  0.78087  0.80251  0.92243  1.0000
  S   S364      1.0  0.84569  0.67907  0.90240  1.0000
  S   S365      1.0  0.84040  0.73089  0.92765  1.0000
  H   H2145     1.0  0.82191  0.63686  0.72931  1.0000
  H   H2146     1.0  0.93350  0.82486  0.77040  1.0000
  C   C2671     1.0  0.67368  0.50362  0.83021  1.0000
  C   C2672     1.0  0.59646  0.77364  0.73248  1.0000
  H   H2147     1.0  0.95970  0.78930  0.78768  1.0000
  S   S366      1.0  0.58154  0.91934  0.75669  1.0000
  C   C2673     1.0  0.59566  0.50809  0.76386  1.0000
  C   C2674     1.0  0.86048  0.69741  0.95831  1.0000
  S   S367      1.0  0.63047  0.94898  0.74479  1.0000
  Fe  Fe184     1.0  0.61793  0.89507  0.75168  1.0000
  S   S368      1.0  0.64729  0.86061  0.76468  1.0000
  Fe  Fe185     1.0  0.59282  0.97241  0.74850  1.0000
  H   H2148     1.0  0.93357  0.80877  0.74760  1.0000
  H   H2149     1.0  0.77109  0.63899  0.80406  1.0000
  Fe  Fe186     1.0  0.71551  0.61423  0.80933  1.0000
  S   S369      1.0  0.67350  0.61406  0.80597  1.0000
  S   S370      1.0  0.73649  0.60905  0.82988  1.0000
  Fe  Fe187     1.0  0.71956  0.60420  0.78051  1.0000
  S   S371      1.0  0.67783  0.60214  0.77543  1.0000
  S   S372      1.0  0.74380  0.60989  0.76406  1.0000
  Fe  Fe188     1.0  0.67603  0.64977  0.78833  1.0000
  S   S373      1.0  0.64627  0.69388  0.78132  1.0000
  Fe  Fe189     1.0  0.67805  0.56635  0.79324  1.0000
  C   C2675     1.0  0.76943  0.66828  0.95629  1.0000
  S   S374      1.0  0.71767  0.65365  0.79268  1.0000
  S   S375      1.0  0.72014  0.56484  0.79737  1.0000
  C   C2676     1.0  0.64743  0.81317  0.76773  1.0000
  C   C2677     1.0  0.62572  0.79368  0.76563  1.0000
  C   C2678     1.0  0.62594  0.75700  0.76954  1.0000
  C   C2679     1.0  0.64793  0.73910  0.77539  1.0000
  C   C2680     1.0  0.66998  0.75813  0.77688  1.0000
  C   C2681     1.0  0.66965  0.79502  0.77316  1.0000
  H   H2150     1.0  0.60859  0.80721  0.76135  1.0000
  H   H2151     1.0  0.60885  0.74249  0.76822  1.0000
  H   H2152     1.0  0.68705  0.74482  0.78134  1.0000
  H   H2153     1.0  0.68661  0.80977  0.77477  1.0000
  C   C2682     1.0  0.80741  0.53751  0.75155  1.0000
  C   C2683     1.0  0.79587  0.52775  0.76251  1.0000
  C   C2684     1.0  0.77626  0.54940  0.76649  1.0000
  C   C2685     1.0  0.76787  0.58086  0.75944  1.0000
  C   C2686     1.0  0.77902  0.59009  0.74832  1.0000
  C   C2687     1.0  0.79849  0.56838  0.74433  1.0000
  H   H2154     1.0  0.68802  0.91909  0.76542  1.0000
  H   H2155     1.0  0.76769  0.54182  0.77500  1.0000
  H   H2156     1.0  0.77256  0.61420  0.74274  1.0000
  C   C2688     1.0  0.77817  0.68251  0.85996  1.0000
  C   C2689     1.0  0.77341  0.64678  0.86311  1.0000
  C   C2690     1.0  0.76053  0.62494  0.85381  1.0000
  C   C2691     1.0  0.75178  0.63858  0.84131  1.0000
  C   C2692     1.0  0.75595  0.67459  0.83827  1.0000
  C   C2693     1.0  0.76909  0.69631  0.84753  1.0000
  H   H2157     1.0  0.78002  0.63578  0.87263  1.0000
  H   H2158     1.0  0.75734  0.59721  0.85632  1.0000
  H   H2159     1.0  0.74918  0.68563  0.82877  1.0000
  H   H2160     1.0  0.77244  0.72399  0.84500  1.0000
  C   C2694     1.0  0.78401  0.82875  0.93658  1.0000
  C   C2695     1.0  0.76662  0.85731  0.93771  1.0000
  C   C2696     1.0  0.76905  0.87998  0.94844  1.0000
  C   C2697     1.0  0.78900  0.87444  0.95818  1.0000
  C   C2698     1.0  0.80583  0.84501  0.95732  1.0000
  C   C2699     1.0  0.80336  0.82226  0.94658  1.0000
  H   H2161     1.0  0.75152  0.86254  0.93006  1.0000
  H   H2162     1.0  0.75593  0.90246  0.94895  1.0000
  H   H2163     1.0  0.82127  0.84050  0.96481  1.0000
  H   H2164     1.0  0.81684  0.80047  0.94579  1.0000
  C   C2700     1.0  0.76762  0.55078  0.94065  1.0000
  C   C2701     1.0  0.78833  0.55360  0.94992  1.0000
  C   C2702     1.0  0.80632  0.57933  0.94819  1.0000
  C   C2703     1.0  0.80364  0.60284  0.93731  1.0000
  C   C2704     1.0  0.78253  0.60083  0.92826  1.0000
  C   C2705     1.0  0.76470  0.57475  0.92989  1.0000
  H   H2165     1.0  0.79082  0.53540  0.95825  1.0000
  H   H2166     1.0  0.82260  0.58067  0.95523  1.0000
  H   H2167     1.0  0.78022  0.61881  0.91986  1.0000
  H   H2168     1.0  0.74871  0.57284  0.92269  1.0000
  C   C2706     1.0  0.72144  0.74570  0.93463  1.0000
  H   H2169     1.0  0.71506  0.69305  0.94238  1.0000
  C   C2707     1.0  0.94212  0.60696  0.75214  1.0000
  H   H2170     1.0  0.96799  0.69660  0.93601  1.0000
  H   H2171     1.0  0.92355  0.59682  0.75180  1.0000
  H   H2172     1.0  0.94334  0.62589  0.77169  1.0000
  H   H2173     1.0  0.62146  0.98648  0.79551  1.0000
  Fe  Fe190     1.0  0.85437  0.53065  0.73090  1.0000
  C   C2708     1.0  0.94849  0.76542  0.90799  1.0000
  C   C2709     1.0  0.92983  0.74622  0.91329  1.0000
  C   C2710     1.0  0.93715  0.72089  0.92328  1.0000
  C   C2711     1.0  0.96267  0.71564  0.92808  1.0000
  C   C2712     1.0  0.95517  0.60322  0.74139  1.0000
  H   H2174     1.0  0.94317  0.78516  0.90029  1.0000
  H   H2175     1.0  0.92315  0.70568  0.92741  1.0000
  H   H2176     1.0  0.62692  0.86109  0.94125  1.0000
  C   C2713     1.0  0.95178  0.66771  0.87720  1.0000
  C   C2714     1.0  0.85882  0.76193  0.96125  1.0000
  H   H2177     1.0  0.61136  0.55003  0.77587  1.0000
  H   H2178     1.0  0.67554  0.74970  0.74961  1.0000
  H   H2179     1.0  0.78502  0.74667  0.94231  1.0000
  H   H2180     1.0  0.84891  0.78571  0.96414  1.0000
  C   C2715     1.0  0.81041  0.62697  0.80418  1.0000
  H   H2181     1.0  0.85191  0.67146  0.95870  1.0000
  C   C2716     1.0  0.68254  0.50229  0.92144  1.0000
  C   C2717     1.0  0.49486  0.59390  0.74492  1.0000
  H   H2182     1.0  0.76919  0.63969  0.95439  1.0000
  C   C2718     1.0  0.70141  0.77240  0.95645  1.0000
  H   H2183     1.0  0.50837  0.52660  0.76728  1.0000
  H   H2184     1.0  0.67723  0.95061  0.78477  1.0000
  H   H2185     1.0  0.70947  0.82495  0.94877  1.0000
  H   H2186     1.0  0.95026  0.63040  0.86143  1.0000
  C   C2719     1.0  0.71322  0.72187  0.94367  1.0000
  C   C2720     1.0  0.67949  0.72627  0.74405  1.0000
  C   C2721     1.0  0.95761  0.50347  0.75221  1.0000
  C   C2722     1.0  0.77860  0.72861  0.94944  1.0000
  H   H2187     1.0  0.98143  0.67623  0.90377  1.0000
  S   S376      1.0  0.60159  0.87839  0.73201  1.0000
  C   C2723     1.0  0.71006  0.79611  0.94738  1.0000
  C   C2724     1.0  0.69227  0.66323  0.74371  1.0000
  C   C2725     1.0  0.70136  0.64505  0.97192  1.0000
  H   H2188     1.0  0.61176  0.50551  0.75855  1.0000
  C   C2726     1.0  0.53813  0.57569  0.75135  1.0000
  C   C2727     1.0  0.49443  0.50795  0.76381  1.0000
  H   H2189     1.0  0.80581  0.64468  0.97510  1.0000
  C   C2728     1.0  0.62210  0.76652  0.73250  1.0000
  C   C2729     1.0  0.98114  0.51716  0.75578  1.0000
  C   C2730     1.0  0.69891  0.50616  0.82865  1.0000
  H   H2190     1.0  0.57591  0.82428  0.84604  1.0000
  H   H2191     1.0  0.74585  0.82118  0.74270  1.0000
  H   H2192     1.0  0.55423  0.53732  0.73920  1.0000
  C   C2731     1.0  0.49416  0.57134  0.73424  1.0000
  H   H2193     1.0  0.91042  0.88116  0.96032  1.0000
  H   H2194     1.0  0.94405  0.73904  0.86749  1.0000
  Fe  Fe191     1.0  0.76529  0.94628  0.97658  1.0000
  C   C2732     1.0  0.66718  0.82650  0.96650  1.0000
  C   C2733     1.0  0.96011  0.75207  0.87219  1.0000
  C   C2734     1.0  0.91743  0.62846  0.87109  1.0000
  H   H2195     1.0  0.90920  0.60775  0.86499  1.0000
  H   H2196     1.0  0.70914  0.55685  0.95340  1.0000
  C   C2735     1.0  0.95930  0.78958  0.87315  1.0000
  C   C2736     1.0  0.89793  0.55345  0.77169  1.0000
  H   H2197     1.0  0.93561  0.70239  0.77362  1.0000
  C   C2737     1.0  0.84098  0.88122  0.93651  1.0000
  C   C2738     1.0  0.83673  0.86789  0.92404  1.0000
  C   C2739     1.0  0.85027  0.83745  0.92072  1.0000
  C   C2740     1.0  0.86783  0.82000  0.92989  1.0000
  C   C2741     1.0  0.87231  0.83325  0.94243  1.0000
  C   C2742     1.0  0.85858  0.86388  0.94571  1.0000
  P   P90       1.0  0.89426  0.80905  0.95422  1.0000
  C   C2743     1.0  0.88177  0.76500  0.95626  1.0000
  C   C2744     1.0  0.92504  0.80627  0.94900  1.0000
  C   C2745     1.0  0.82918  0.69156  0.73445  1.0000
  H   H2198     1.0  0.94058  0.77240  0.96533  1.0000
  C   C2746     1.0  0.63264  0.88411  0.96011  1.0000
  H   H2199     1.0  0.57556  0.55439  0.78869  1.0000
  C   C2747     1.0  0.93042  0.82475  0.93779  1.0000
  C   C2748     1.0  0.77789  0.69173  0.94720  1.0000
  C   C2749     1.0  0.89812  0.83276  0.96924  1.0000
  P   P91       1.0  0.96113  0.75234  0.73494  1.0000
  C   C2750     1.0  0.88320  0.70025  0.95320  1.0000
  C   C2751     1.0  0.89375  0.73393  0.95207  1.0000
  H   H2200     1.0  0.71318  0.86043  0.96976  1.0000
  H   H2201     1.0  0.55826  0.76790  0.76328  1.0000
  C   C2752     1.0  0.54096  0.83389  0.83403  1.0000
  C   C2753     1.0  0.72000  0.78277  0.93653  1.0000
  C   C2754     1.0  0.78485  0.65896  0.78670  1.0000
  H   H2202     1.0  0.68042  0.50724  0.94186  1.0000
  H   H2203     1.0  0.82981  0.90407  0.93921  1.0000
  H   H2204     1.0  0.82243  0.88052  0.91707  1.0000
  H   H2205     1.0  0.84680  0.82693  0.91110  1.0000
  H   H2206     1.0  0.87781  0.79598  0.92724  1.0000
  H   H2207     1.0  0.86054  0.87385  0.95543  1.0000
  H   H2208     1.0  0.65699  0.80997  0.94683  1.0000
  C   C2755     1.0  0.94085  0.64133  0.86915  1.0000
  P   P92       1.0  0.98277  0.68337  0.87559  1.0000
  H   H2209     1.0  0.60445  0.96676  0.81560  1.0000
  H   H2210     1.0  0.91614  0.84046  0.93178  1.0000
  C   C2756     1.0  0.76193  0.68151  0.96784  1.0000
  H   H2211     1.0  0.80277  0.67348  0.77017  1.0000
  C   C2757     1.0  0.94492  0.79270  0.75498  1.0000
  H   H2212     1.0  0.89213  0.67646  0.94965  1.0000
  H   H2213     1.0  0.91079  0.73561  0.94758  1.0000
  H   H2214     1.0  0.72102  0.77592  0.73049  1.0000
  H   H2215     1.0  0.93408  0.69883  0.74884  1.0000
  C   C2758     1.0  0.68006  0.96607  0.77614  1.0000
  C   C2759     1.0  0.76203  0.71878  0.96982  1.0000
  C   C2760     1.0  0.61737  0.93503  0.78663  1.0000
  C   C2761     1.0  0.61556  0.95913  0.79661  1.0000
  C   C2762     1.0  0.60595  0.94795  0.80790  1.0000
  C   C2763     1.0  0.59806  0.91263  0.80919  1.0000
  C   C2764     1.0  0.59956  0.88841  0.79911  1.0000
  C   C2765     1.0  0.60939  0.89986  0.78789  1.0000
  P   P93       1.0  0.58886  0.84296  0.80020  1.0000
  C   C2766     1.0  0.61493  0.81081  0.80325  1.0000
  C   C2767     1.0  0.56991  0.83917  0.81335  1.0000
  C   C2768     1.0  0.58138  0.83237  0.82602  1.0000
  S   S377      1.0  0.86727  0.58715  0.72890  1.0000
  H   H2216     1.0  0.72708  0.80112  0.92968  1.0000
  H   H2217     1.0  0.95599  0.90725  0.73191  1.0000
  C   C2769     1.0  0.88192  0.52592  0.77400  1.0000
  C   C2770     1.0  0.61085  0.77537  0.80732  1.0000
  C   C2771     1.0  0.63077  0.75009  0.80955  1.0000
  C   C2772     1.0  0.65497  0.76015  0.80804  1.0000
  C   C2773     1.0  0.65926  0.79548  0.80423  1.0000
  C   C2774     1.0  0.63932  0.82066  0.80170  1.0000
  C   C2775     1.0  0.57019  0.83406  0.78512  1.0000
  C   C2776     1.0  0.55474  0.86170  0.77874  1.0000
  C   C2777     1.0  0.54067  0.85548  0.76693  1.0000
  C   C2778     1.0  0.54196  0.82175  0.76134  1.0000
  C   C2779     1.0  0.55706  0.79396  0.76768  1.0000
  C   C2780     1.0  0.57108  0.80001  0.77954  1.0000
  H   H2218     1.0  0.62461  0.94365  0.77781  1.0000
  C   C2781     1.0  0.53760  0.55303  0.74081  1.0000
  C   C2782     1.0  0.98011  0.80702  0.87889  1.0000
  H   H2219     1.0  0.59061  0.90459  0.81798  1.0000
  H   H2220     1.0  0.61060  0.88153  0.78003  1.0000
  H   H2221     1.0  0.60152  0.82923  0.82796  1.0000
  H   H2222     1.0  0.90017  0.65832  0.74134  1.0000
  C   C2783     1.0  0.64535  0.88068  0.97257  1.0000
  C   C2784     1.0  0.68677  0.69370  0.75062  1.0000
  H   H2223     1.0  0.55518  0.57768  0.75785  1.0000
  H   H2224     1.0  0.59219  0.76705  0.80848  1.0000
  H   H2225     1.0  0.62746  0.72240  0.81217  1.0000
  H   H2226     1.0  0.67027  0.74024  0.80944  1.0000
  H   H2227     1.0  0.67796  0.80300  0.80275  1.0000
  H   H2228     1.0  0.64312  0.84744  0.79834  1.0000
  H   H2229     1.0  0.55381  0.88830  0.78276  1.0000
  H   H2230     1.0  0.50927  0.84418  0.81970  1.0000
  H   H2231     1.0  0.94597  0.70288  0.89302  1.0000
  H   H2232     1.0  0.58297  0.77826  0.78409  1.0000
  C   C2785     1.0  0.97355  0.80316  0.94171  1.0000
  H   H2233     1.0  0.52978  0.83177  0.84200  1.0000
  C   C2786     1.0  0.83115  0.62930  0.79732  1.0000
  C   C2787     1.0  0.90474  0.64190  0.88105  1.0000
  H   H2234     1.0  0.83647  0.61157  0.75118  1.0000
  H   H2235     1.0  0.91663  0.54689  0.76941  1.0000
  H   H2236     1.0  0.78393  0.68126  0.93839  1.0000
  H   H2237     1.0  0.90511  0.67985  0.89644  1.0000
  C   C2788     1.0  0.84827  0.72826  0.96232  1.0000
  C   C2789     1.0  0.82938  0.59617  0.84724  1.0000
  C   C2790     1.0  0.82593  0.59466  0.86033  1.0000
  C   C2791     1.0  0.83451  0.62216  0.86843  1.0000
  C   C2792     1.0  0.84641  0.65133  0.86345  1.0000
  C   C2793     1.0  0.85012  0.65299  0.85032  1.0000
  C   C2794     1.0  0.84151  0.62514  0.84225  1.0000
  P   P94       1.0  0.86438  0.69145  0.84363  1.0000
  C   C2795     1.0  0.84483  0.70750  0.82923  1.0000
  C   C2796     1.0  0.86577  0.72673  0.85531  1.0000
  C   C2797     1.0  0.84494  0.74988  0.85618  1.0000
  C   C2798     1.0  0.84570  0.77597  0.86569  1.0000
  C   C2799     1.0  0.86726  0.77923  0.87433  1.0000
  C   C2800     1.0  0.88796  0.75609  0.87358  1.0000
  C   C2801     1.0  0.88706  0.72951  0.86428  1.0000
  C   C2802     1.0  0.85502  0.72634  0.81937  1.0000
  C   C2803     1.0  0.83987  0.73782  0.80811  1.0000
  C   C2804     1.0  0.81438  0.73114  0.80673  1.0000
  C   C2805     1.0  0.80400  0.71330  0.81666  1.0000
  C   C2806     1.0  0.81914  0.70146  0.82784  1.0000
  C   C2807     1.0  0.89545  0.68009  0.83960  1.0000
  C   C2808     1.0  0.90231  0.64454  0.83678  1.0000
  C   C2809     1.0  0.92620  0.63623  0.83344  1.0000
  C   C2810     1.0  0.94349  0.66322  0.83298  1.0000
  C   C2811     1.0  0.93694  0.69860  0.83585  1.0000
  C   C2812     1.0  0.91295  0.70712  0.83899  1.0000
  H   H2238     1.0  0.82203  0.57534  0.84090  1.0000
  H   H2239     1.0  0.81592  0.57278  0.86413  1.0000
  H   H2240     1.0  0.83099  0.62173  0.87848  1.0000
  H   H2241     1.0  0.85184  0.67299  0.86986  1.0000
  H   H2242     1.0  0.84355  0.62635  0.83204  1.0000
  H   H2243     1.0  0.82772  0.74696  0.84991  1.0000
  H   H2244     1.0  0.82922  0.79277  0.86665  1.0000
  H   H2245     1.0  0.86766  0.79881  0.88192  1.0000
  H   H2246     1.0  0.90439  0.75800  0.88052  1.0000
  H   H2247     1.0  0.90277  0.71068  0.86432  1.0000
  H   H2248     1.0  0.87457  0.73232  0.82033  1.0000
  H   H2249     1.0  0.84784  0.75206  0.80046  1.0000
  H   H2250     1.0  0.80260  0.73994  0.79801  1.0000
  H   H2251     1.0  0.78419  0.70842  0.81568  1.0000
  H   H2252     1.0  0.81072  0.68770  0.83542  1.0000
  H   H2253     1.0  0.88938  0.62310  0.83714  1.0000
  H   H2254     1.0  0.93133  0.60878  0.83120  1.0000
  H   H2255     1.0  0.96194  0.65675  0.83033  1.0000
  H   H2256     1.0  0.95041  0.71951  0.83550  1.0000
  H   H2257     1.0  0.90806  0.73488  0.84090  1.0000
  S   S378      1.0  0.65186  0.52071  0.79762  1.0000
  H   H2258     1.0  0.94258  0.80516  0.86943  1.0000
  C   C2813     1.0  0.59546  0.53320  0.77363  1.0000
  H   H2259     1.0  0.73353  0.98561  0.74191  1.0000
  S   S379      1.0  0.72424  0.94872  0.96947  1.0000
  C   C2814     1.0  0.67393  0.83538  0.73574  1.0000
  C   C2815     1.0  0.67712  0.72852  0.73046  1.0000
  H   H2260     1.0  0.74621  0.58464  0.96433  1.0000
  C   C2816     1.0  0.83676  0.64035  0.74939  1.0000
  H   H2261     1.0  0.84866  0.61618  0.80131  1.0000
  H   H2262     1.0  0.72484  0.87557  0.75060  1.0000
  C   C2817     1.0  0.65400  0.82960  0.95407  1.0000
  C   C2818     1.0  0.57526  0.53556  0.78088  1.0000
  H   H2263     1.0  0.67888  0.88458  0.74599  1.0000
  C   C2819     1.0  0.84919  0.57043  0.77679  1.0000
  H   H2264     1.0  0.72961  0.73549  0.92632  1.0000
  H   H2265     1.0  0.90224  0.61018  0.77017  1.0000
  H   H2266     1.0  0.65392  0.84000  0.73391  1.0000
  S   S380      1.0  0.79457  0.90482  0.97109  1.0000
  H   H2267     1.0  0.69838  0.71627  0.96173  1.0000
  C   C2820     1.0  0.72577  0.82505  0.74083  1.0000
  H   H2268     1.0  0.77030  0.77107  0.96218  1.0000
  C   C2821     1.0  0.92681  0.69923  0.73872  1.0000
  H   H2269     1.0  0.54047  0.51355  0.78459  1.0000
  S   S381      1.0  0.83348  0.51155  0.74741  1.0000
  C   C2822     1.0  0.70354  0.73515  0.95462  1.0000
  C   C2823     1.0  0.90768  0.67616  0.73453  1.0000
  H   H2270     1.0  0.53148  0.81746  0.75201  1.0000
  H   H2271     1.0  0.80679  0.57573  0.73572  1.0000
  H   H2272     1.0  0.83752  0.74331  0.74239  1.0000
  C   C2824     1.0  0.51677  0.59605  0.75342  1.0000
  H   H2273     1.0  0.58698  0.76349  0.74036  1.0000
  C   C2825     1.0  0.83735  0.71457  0.74437  1.0000
  C   C2826     1.0  0.88966  0.58946  0.77209  1.0000
  H   H2274     1.0  0.68737  0.53011  0.92010  1.0000
  S   S382      1.0  0.57499  0.96022  0.72842  1.0000
  C   C2827     1.0  0.63684  0.85845  0.95089  1.0000
  C   C2828     1.0  0.94429  0.78661  0.95660  1.0000
  H   H2275     1.0  0.97963  0.83610  0.87959  1.0000
  H   H2276     1.0  0.65565  0.73177  0.96448  1.0000
  C   C2829     1.0  0.68812  0.86080  0.74268  1.0000
  H   H2277     1.0  0.83028  0.72618  0.96589  1.0000
  H   H2278     1.0  0.81194  0.61283  0.81345  1.0000
  H   H2279     1.0  0.63187  0.75066  0.74045  1.0000
  C   C2830     1.0  0.52941  0.84086  0.82147  1.0000
  H   H2280     1.0  0.70641  0.53229  0.82675  1.0000
  C   C2831     1.0  0.54380  0.84354  0.81116  1.0000
  C   C2832     1.0  0.82860  0.65457  0.73700  1.0000
  H   H2281     1.0  0.53444  0.84900  0.80153  1.0000
  C   C2833     1.0  0.84509  0.70050  0.75683  1.0000
  C   C2834     1.0  0.69040  0.66527  0.73022  1.0000
  H   H2282     1.0  0.76669  0.66915  0.78233  1.0000
  C   C2835     1.0  0.84529  0.66315  0.75936  1.0000
  C   C2836     1.0  0.86531  0.59836  0.77473  1.0000
  H   H2283     1.0  0.85096  0.71874  0.76446  1.0000
  C   C2837     1.0  0.88498  0.67732  0.79555  1.0000
  H   H2284     1.0  0.87139  0.67011  0.80190  1.0000
  P   P95       1.0  0.85488  0.64508  0.77549  1.0000
  C   C2838     1.0  0.71398  0.85568  0.74526  1.0000
  C   C2839     1.0  0.88136  0.66986  0.78232  1.0000
  C   C2840     1.0  0.89950  0.68008  0.77441  1.0000
  C   C2841     1.0  0.92123  0.69616  0.77970  1.0000
  H   H2285     1.0  0.89733  0.67441  0.76419  1.0000
  C   C2842     1.0  0.97752  0.63634  0.76385  1.0000
  C   C2843     1.0  0.92487  0.70295  0.79288  1.0000
  H   H2286     1.0  0.90951  0.69908  0.81098  1.0000
  C   C2844     1.0  0.90664  0.69387  0.80077  1.0000
  C   C2845     1.0  0.91509  0.66889  0.88883  1.0000
  H   H2287     1.0  0.69281  0.95349  0.74533  1.0000
  C   C2846     1.0  0.56693  0.82967  0.83630  1.0000
  C   C2847     1.0  0.93840  0.68183  0.88689  1.0000
  H   H2288     1.0  0.84502  0.51303  0.77800  1.0000
  C   C2848     1.0  0.78726  0.64168  0.79885  1.0000
  C   C2849     1.0  0.82892  0.64669  0.78508  1.0000
  H   H2289     1.0  0.66696  0.58421  0.95439  1.0000
  C   C2850     1.0  0.90645  0.86817  0.96925  1.0000
  H   H2290     1.0  0.66163  0.52774  0.82924  1.0000
  C   C2851     1.0  0.55535  0.51258  0.77844  1.0000
  H   H2291     1.0  0.68813  0.69201  0.76110  1.0000
  Fe  Fe192     1.0  0.56591  0.90620  0.73637  1.0000
  H   H2292     1.0  0.52919  0.87714  0.76191  1.0000
  H   H2293     1.0  0.61961  0.90672  0.95762  1.0000
  C   C2852     1.0  0.80553  0.66142  0.77981  1.0000
  C   C2853     1.0  0.97944  0.61615  0.74191  1.0000
  C   C2854     1.0  0.93656  0.72215  0.72979  1.0000
  C   C2855     1.0  0.94477  0.80189  0.76793  1.0000
  H   H2294     1.0  0.94199  0.71482  0.79698  1.0000
  C   C2856     1.0  0.85768  0.53444  0.77667  1.0000
  H   H2295     1.0  0.95855  0.83664  0.92535  1.0000
  H   H2296     1.0  0.88688  0.63146  0.88277  1.0000
  C   C2857     1.0  0.95947  0.78186  0.77767  1.0000
  C   C2858     1.0  0.72797  0.59729  0.96489  1.0000
  C   C2859     1.0  0.97406  0.75234  0.77447  1.0000
  C   C2860     1.0  0.77044  0.74223  0.96069  1.0000
  C   C2861     1.0  0.68635  0.94829  0.76522  1.0000
  P   P96       1.0  0.68999  0.79039  0.97077  1.0000
  H   H2297     1.0  0.69810  0.63806  0.74884  1.0000
  C   C2862     1.0  0.97414  0.74292  0.76155  1.0000
  C   C2863     1.0  0.66237  0.85181  0.97578  1.0000
  C   C2864     1.0  0.95458  0.82306  0.93416  1.0000
  C   C2865     1.0  0.68932  0.96796  0.75390  1.0000
  S   S383      1.0  0.52655  0.88439  0.73373  1.0000
  C   C2866     1.0  0.65950  0.73278  0.97490  1.0000
  H   H2298     1.0  0.69880  0.66969  0.97705  1.0000
  C   C2867     1.0  0.68318  0.59695  0.95913  1.0000
  S   S384      1.0  0.74541  0.51714  0.94192  1.0000
  C   C2868     1.0  0.95987  0.76339  0.75167  1.0000
  H   H2299     1.0  0.51727  0.61377  0.76157  1.0000
  H   H2300     1.0  0.94282  0.52088  0.74724  1.0000
  C   C2869     1.0  0.72675  0.98737  0.73172  1.0000
  C   C2870     1.0  0.68039  0.62884  0.96575  1.0000
  C   C2871     1.0  0.97401  0.75969  0.91264  1.0000
  C   C2872     1.0  0.72444  0.84313  0.97683  1.0000
  C   C2873     1.0  0.51580  0.55103  0.73224  1.0000
  C   C2874     1.0  0.98157  0.73166  0.87725  1.0000
  C   C2875     1.0  0.72530  0.62906  0.97175  1.0000
  C   C2876     1.0  0.96840  0.78482  0.95289  1.0000
  H   H2301     1.0  0.80222  0.50348  0.76801  1.0000
  C   C2877     1.0  0.98132  0.73501  0.92283  1.0000
  C   C2878     1.0  0.68562  0.80453  0.73131  1.0000
  H   H2302     1.0  0.66194  0.64082  0.96620  1.0000
  C   C2879     1.0  0.71165  0.79952  0.73390  1.0000
  H   H2303     1.0  0.98309  0.76884  0.95855  1.0000
  C   C2880     1.0  0.96258  0.93371  0.72980  1.0000
  H   H2304     1.0  0.88799  0.49797  0.77336  1.0000
