data_image0
_chemical_formula_structural       C2SH2C2FeCSFeHSFeHCS2C2HC6H4C5SC3H2CFeCHC4H3C3PHCHSCH6C3H2C4H4CH4CH2FeSHC4HC5H2C2H3CSC5PC3HC2H4CH2CHCH3CH2CH2CH4C2HPC3H2CHC11HC2HCHC2HCHCH3C2H3CHC2HC5HC3H2CSC2HSC2SFeSFeSCHC6H4C2FeH2C5H3C2H3CHCH2CH2CH5C4H2CHC6H2CHCH3PC2H2SH2CHC3HCHC2FeC7PC4HC4H2C4SC2H6PCH4C3HCH3CH3C4H4FeS2FeS2Fe2HS3H2FeS2FeSFeSCHSC4HC3HC7H4C6H3SCHCHC7H4CH2C2HCHC3HSC7HC2SH2CH5CHC3PC2HSC3HC2HCH3SCH2CHCHFeH4C3H3CHC4HC3HCHFeHC2SCHCH3CH2CHCHCPC5HPH3CHC6HPHCHC2PC3HC5H3C2HCHC5H2C9H7C3H4CH7C2HCH4CHCHCHC3SHC2H4CHCH2PH3CSCHC3H3CFeCHCHCSCH2S2FeSHFeSFeS2CHSFeS2FeSFeSHSHCHC7H5C2PC6H6CFeHC7HC5HSC3HCH2C3PC19H19C3HCSH2CHCH2C7PC10HC8H17C2H3CHC3H3CSC2H2CH2C3HC4H4C4HFeSC4HC2HCH2SH2SC4SCH2C2HC2HC2HSHFeSFeS4HFeSCHFeSCHC2HSHCFeS2FeHFeS2C6HCH4SH2C6H4CHC6H4C7H4C2FeHC2HC3H3CHCHCH2SFeHSCH5CHC2HCHCH3CH2SCPH3C2H2SHCHCSC7H2CH4SCHCHPH5C9H3CH2C3FeHC2HC3H2C2HC2HCHC4HC4SCHCH2C3HC2PCHCH2C3HCHCH2C2H2CHCHCFeC2PHPHCH2CHC2HC3S3CS3HFeSFeC2FeSFeS3CSFeSHCFeSCSC6H4C6H4CHCHCHCHCHC4HCH3C6H4C3SH3PC3HCHCH5C7SC2H2PCHCHC3H7CH3C2HC3HC2H2C3HCHC2H3C2HCH2CH2CHC3HCHC2H2C2HCHCH2C2H2CSH4C2H2SHC3HCHC2H2C3H2CHC2H2C5HCFeH4CHCHC2H2PHCPSFeHC2HC4HCH2C3HC2FeCHC3HCSCH2C2FeC2HSFeSHSFe2SH2CSC2SFeSFeCH2FeSH2FeS2HSC6H9CH2CPC6H4PC6H4C5HSC4FeC5H2C3H2CH2C3HC2H2C2HSCH2CHCHCHCHC3SHCHC6PC19H18CH2CH2PHC8H3CHC3H3CHCH2CH2C3PC8HC4H5CHCH2CH2C2HPCH4C5SH2SHCHCHCFeC2FeCFeSHC2H2C2HCHCSHC3HSHSH2C2FeCSC3H3CHC3HCH3C4HSC4S3CFeSFeSC3SFeSHCSCS2FeS3CFeSHC7H4C5FeC2H2CHC4HC6H4C6H8C6PC11HC4H6C2H3C2H11CH2CP2HCHC2H2C5H6FeH2C4H4CFeHCFeHC3HC4HSHC2HCFeHCHC5HPC4HC3HCSH2C3HC3H6C6H2C4H5CH3C2HC2H2CSH3C2HCHCH4PHFeC6HCSCHCH3CH2CHC2S2FeSFeSCFeS2FeSHSCSCH2CHC7HCHC2H2C4HC5PH2C6H4C6H7SH3C2H2C2SHC6PFeC4HC3H2C7H2CH2C2H5FeH7CFeH3C3H5PC3HC3H3FeCHC2H3C3H2CH3C2H4CHCH4C4HCH5C4H3CHCHSHC2HC5HCHCPCHC4HCHCHCSHCSHC4HC4HCSCSC5HC3HFeC2H3CHCHCH3C5FeSFeCS2FeSFeSCFeS2FeSHSHC2H2C6H4C6H6C7H4C6H4C6PHC6FeHCH2CHCH7CH3C3HC3PC19H6CH2CSC2H4CHSHCHCH4C5H4CFeHCH4SC2H2C2HC3H2C4HCFeHCHCHC2SHCHC3HCHCH3C3H3CHCH2C2H2C3SC2HC2H2PCH4CHPCHC2HC3SHSH3C2HCH2C2FeSCSCSC2HC2HCH2C5H4SH4C2HSHSFeSFeSC3SH2CH3C3HSHC6H2C6H6C3H2C2SH2CH4C7PC14HPCH16CH4C7H3C2HC3HC2HC2SFeH3CSC4SCH3CSH2CH2CHSHSFeSFeSH2PCSCH4C2H3C6H4C2HCHCHC2HC2HCHC3HC2HC3H4C3SC3SCH2C2HFeHCHC2H2CHCHC3HCHCHC2H2C2H3PCHC2H4C2HC3HPHC2H
_chemical_formula_sum              "C1440 S192 H1152 Fe96 P48"
_cell_length_a       56.3623
_cell_length_b       36.4902
_cell_length_c       53.5717
_cell_angle_alpha    90.1772
_cell_angle_beta     103.563
_cell_angle_gamma    90.3511

_space_group_name_H-M_alt    "P 1"
_space_group_IT_number       1

loop_
  _space_group_symop_operation_xyz
  'x, y, z'

loop_
  _atom_site_type_symbol
  _atom_site_label
  _atom_site_symmetry_multiplicity
  _atom_site_fract_x
  _atom_site_fract_y
  _atom_site_fract_z
  _atom_site_occupancy
  C   C1        1.0  0.01660  0.08203  0.01327  1.0000
  C   C2        1.0  0.01782  0.04100  0.20982  1.0000
  S   S1        1.0  0.09026  0.04505  0.32328  1.0000
  H   H1        1.0  0.28459  0.18614  0.13389  1.0000
  H   H2        1.0  0.01796  0.37653  0.42416  1.0000
  C   C3        1.0  0.08900  0.03628  0.00852  1.0000
  C   C4        1.0  0.01367  0.26830  0.17582  1.0000
  Fe  Fe1       1.0  0.04639  0.34138  0.37298  1.0000
  C   C5        1.0  0.25827  0.00783  0.31818  1.0000
  S   S2        1.0  0.06601  0.38034  0.40489  1.0000
  Fe  Fe2       1.0  0.04582  0.26260  0.34879  1.0000
  H   H3        1.0  0.15725  0.05795  0.34888  1.0000
  S   S3        1.0  0.07349  0.21514  0.34894  1.0000
  Fe  Fe3       1.0  0.01609  0.32599  0.31864  1.0000
  H   H4        1.0  0.00596  0.07560  0.04915  1.0000
  C   C6        1.0  0.11542  0.03615  0.24554  1.0000
  S   S4        1.0  0.05616  0.31926  0.33748  1.0000
  S   S5        1.0  0.03878  0.28467  0.38580  1.0000
  C   C7        1.0  0.15018  0.07930  0.31042  1.0000
  C   C8        1.0  0.99625  0.41585  0.16146  1.0000
  H   H5        1.0  0.19360  0.09358  0.27659  1.0000
  C   C9        1.0  0.08601  0.09236  0.33101  1.0000
  C   C10       1.0  0.06250  0.10780  0.32358  1.0000
  C   C11       1.0  0.05816  0.14485  0.32919  1.0000
  C   C12       1.0  0.07733  0.16737  0.34234  1.0000
  C   C13       1.0  0.10079  0.15188  0.34988  1.0000
  C   C14       1.0  0.10511  0.11487  0.34429  1.0000
  H   H6        1.0  0.04747  0.09094  0.31339  1.0000
  H   H7        1.0  0.04002  0.15606  0.32309  1.0000
  H   H8        1.0  0.11582  0.16874  0.36010  1.0000
  H   H9        1.0  0.12324  0.10376  0.35054  1.0000
  C   C15       1.0  0.04023  0.26591  0.21855  1.0000
  C   C16       1.0  0.20060  0.07521  0.31561  1.0000
  C   C17       1.0  0.17469  0.18976  0.21685  1.0000
  C   C18       1.0  0.11319  0.12444  0.26387  1.0000
  C   C19       1.0  0.00063  0.02211  0.14835  1.0000
  S   S6        1.0  0.00719  0.35220  0.35344  1.0000
  C   C20       1.0  0.08978  0.43137  0.38052  1.0000
  C   C21       1.0  0.08176  0.42212  0.40249  1.0000
  C   C22       1.0  0.08708  0.44610  0.42373  1.0000
  H   H10       1.0  0.08610  0.41297  0.36421  1.0000
  H   H11       1.0  0.08107  0.43911  0.44086  1.0000
  C   C23       1.0  0.02507  0.29048  0.22732  1.0000
  Fe  Fe4       1.0  0.00010  0.29458  0.36446  1.0000
  C   C24       1.0  0.00182  0.08847  0.03046  1.0000
  H   H12       1.0  0.07172  0.30162  0.45821  1.0000
  C   C25       1.0  0.08783  0.45437  0.30535  1.0000
  C   C26       1.0  0.07392  0.42358  0.30846  1.0000
  C   C27       1.0  0.05146  0.42797  0.31484  1.0000
  C   C28       1.0  0.04301  0.46308  0.31837  1.0000
  H   H13       1.0  0.03441  0.43855  0.41478  1.0000
  H   H14       1.0  0.07054  0.08712  0.01060  1.0000
  H   H15       1.0  0.05520  0.23869  0.45831  1.0000
  C   C29       1.0  0.99995  0.39174  0.45437  1.0000
  C   C30       1.0  0.04151  0.11620  0.48805  1.0000
  C   C31       1.0  0.14604  0.01335  0.21433  1.0000
  P   P1        1.0  0.00102  0.44062  0.44884  1.0000
  H   H16       1.0  0.13748  0.10993  0.42317  1.0000
  C   C32       1.0  0.31485  0.14993  0.14767  1.0000
  H   H17       1.0  0.02542  0.46592  0.32296  1.0000
  S   S7        1.0  0.00787  0.35115  0.27857  1.0000
  C   C33       1.0  0.10044  0.47879  0.42317  1.0000
  H   H18       1.0  0.25807  0.02815  0.30352  1.0000
  H   H19       1.0  0.08043  0.39627  0.30586  1.0000
  H   H20       1.0  0.04051  0.40408  0.31687  1.0000
  H   H21       1.0  0.07090  0.06048  0.38053  1.0000
  H   H22       1.0  0.10276  0.04120  0.02607  1.0000
  H   H23       1.0  0.05001  0.04617  0.27224  1.0000
  C   C34       1.0  0.09056  0.11847  0.24656  1.0000
  C   C35       1.0  0.15450  0.13550  0.24282  1.0000
  C   C36       1.0  0.15800  0.16434  0.20298  1.0000
  H   H24       1.0  0.03009  0.11830  0.44692  1.0000
  H   H25       1.0  0.11396  0.15825  0.43883  1.0000
  C   C37       1.0  0.09006  0.00452  0.99423  1.0000
  C   C38       1.0  0.04800  0.43748  0.48112  1.0000
  C   C39       1.0  0.30838  0.01446  0.14891  1.0000
  C   C40       1.0  0.07112  0.45194  0.49240  1.0000
  H   H26       1.0  0.10422  0.04357  0.25868  1.0000
  H   H27       1.0  0.13440  0.11856  0.20492  1.0000
  H   H28       1.0  0.09587  0.20610  0.40309  1.0000
  H   H29       1.0  0.11204  0.26886  0.40325  1.0000
  C   C41       1.0  0.11173  0.00206  0.23321  1.0000
  H   H30       1.0  0.03197  0.06406  0.01919  1.0000
  H   H31       1.0  0.08879  0.09926  0.23080  1.0000
  H   H32       1.0  0.29853  0.23221  0.16849  1.0000
  H   H33       1.0  0.00854  0.43422  0.17436  1.0000
  C   C42       1.0  0.30327  0.01286  0.12211  1.0000
  H   H34       1.0  0.11594  0.06102  0.39395  1.0000
  H   H35       1.0  0.00454  0.05649  0.19609  1.0000
  Fe  Fe5       1.0  0.11612  0.99477  0.32587  1.0000
  S   S8        1.0  0.00619  0.26832  0.32798  1.0000
  H   H36       1.0  0.11023  0.47007  0.36327  1.0000
  C   C43       1.0  0.29470  0.04535  0.25907  1.0000
  C   C44       1.0  0.30122  0.18165  0.14847  1.0000
  C   C45       1.0  0.06990  0.13763  0.24941  1.0000
  C   C46       1.0  0.07184  0.16353  0.26907  1.0000
  H   H37       1.0  0.13063  0.07965  0.30839  1.0000
  C   C47       1.0  0.13406  0.05964  0.24171  1.0000
  C   C48       1.0  0.31612  0.33185  0.47922  1.0000
  C   C49       1.0  0.16524  0.06687  0.33336  1.0000
  C   C50       1.0  0.09445  0.17048  0.28577  1.0000
  C   C51       1.0  0.00087  0.06179  0.11199  1.0000
  H   H38       1.0  0.20206  0.05412  0.35349  1.0000
  H   H39       1.0  0.05637  0.25554  0.23175  1.0000
  C   C52       1.0  0.04340  0.03542  0.25290  1.0000
  C   C53       1.0  0.03088  0.45876  0.46402  1.0000
  H   H40       1.0  0.15280  0.16569  0.18220  1.0000
  H   H41       1.0  0.05240  0.13255  0.23631  1.0000
  H   H42       1.0  0.04635  0.23588  0.18599  1.0000
  C   C54       1.0  0.31391  0.03827  0.10857  1.0000
  S   S9        1.0  0.30837  0.01493  0.32761  1.0000
  C   C55       1.0  0.14975  0.04757  0.22654  1.0000
  C   C56       1.0  0.01154  0.18631  0.41996  1.0000
  C   C57       1.0  0.19045  0.06471  0.33594  1.0000
  C   C58       1.0  0.11502  0.15085  0.28335  1.0000
  C   C59       1.0  0.05961  0.15662  0.46154  1.0000
  P   P2        1.0  0.14042  0.10203  0.25954  1.0000
  C   C60       1.0  0.00939  0.36701  0.43903  1.0000
  C   C61       1.0  0.14776  0.13749  0.21591  1.0000
  C   C62       1.0  0.26969  0.03760  0.25333  1.0000
  H   H43       1.0  0.03142  0.02975  0.13096  1.0000
  C   C63       1.0  0.28085  0.99543  0.33295  1.0000
  C   C64       1.0  0.01287  0.03730  0.13074  1.0000
  H   H44       1.0  0.31019  0.03660  0.08777  1.0000
  H   H45       1.0  0.01984  0.08113  0.23996  1.0000
  H   H46       1.0  0.16519  0.06416  0.22460  1.0000
  H   H47       1.0  0.10010  0.31686  0.43078  1.0000
  C   C65       1.0  0.10355  0.46371  0.38011  1.0000
  H   H48       1.0  0.17542  0.16172  0.27745  1.0000
  H   H49       1.0  0.19360  0.20864  0.25445  1.0000
  C   C66       1.0  0.17080  0.16170  0.25664  1.0000
  H   H50       1.0  0.01368  0.18932  0.44046  1.0000
  C   C67       1.0  0.02611  0.00699  0.20306  1.0000
  H   H51       1.0  0.18249  0.21071  0.20683  1.0000
  H   H52       1.0  0.22014  0.07312  0.31761  1.0000
  H   H53       1.0  0.00962  0.25937  0.15600  1.0000
  C   C68       1.0  0.18099  0.18853  0.24367  1.0000
  H   H54       1.0  0.00285  0.37101  0.18774  1.0000
  H   H55       1.0  0.30848  0.13036  0.13231  1.0000
  C   C69       1.0  0.18553  0.08708  0.29249  1.0000
  H   H56       1.0  0.05587  0.17824  0.27151  1.0000
  H   H57       1.0  0.30117  0.07342  0.26174  1.0000
  C   C70       1.0  0.16021  0.08968  0.28989  1.0000
  H   H58       1.0  0.09596  0.19087  0.30086  1.0000
  H   H59       1.0  0.13233  0.15646  0.29666  1.0000
  H   H60       1.0  0.04706  0.10798  0.39626  1.0000
  H   H61       1.0  0.15829  0.00399  0.20285  1.0000
  C   C71       1.0  0.02649  0.05513  0.23466  1.0000
  C   C72       1.0  0.03455  0.25486  0.19280  1.0000
  H   H62       1.0  0.25673  0.05977  0.25143  1.0000
  P   P3        1.0  0.06156  0.17211  0.43016  1.0000
  C   C73       1.0  0.07879  0.13751  0.41803  1.0000
  C   C74       1.0  0.03156  0.17798  0.40959  1.0000
  C   C75       1.0  0.02843  0.17699  0.38285  1.0000
  H   H63       1.0  0.30782  0.38602  0.49094  1.0000
  H   H64       1.0  0.02938  0.29920  0.24729  1.0000
  C   C76       1.0  0.00732  0.32924  0.44229  1.0000
  H   H65       1.0  0.02813  0.09545  0.48973  1.0000
  C   C77       1.0  0.10436  0.13720  0.42600  1.0000
  C   C78       1.0  0.11774  0.10971  0.41735  1.0000
  C   C79       1.0  0.10565  0.08203  0.40105  1.0000
  C   C80       1.0  0.08019  0.08173  0.39347  1.0000
  C   C81       1.0  0.06677  0.10911  0.40210  1.0000
  C   C82       1.0  0.07539  0.21710  0.43182  1.0000
  C   C83       1.0  0.06839  0.24455  0.44705  1.0000
  C   C84       1.0  0.07767  0.28022  0.44704  1.0000
  C   C85       1.0  0.09371  0.28886  0.43157  1.0000
  C   C86       1.0  0.10047  0.26182  0.41609  1.0000
  C   C87       1.0  0.09129  0.22612  0.41612  1.0000
  H   H66       1.0  0.04385  0.17229  0.37453  1.0000
  C   C88       1.0  0.26143  0.00123  0.25075  1.0000
  C   C89       1.0  0.99828  0.29293  0.18452  1.0000
  H   H67       1.0  0.10522  0.45091  0.30035  1.0000
  C   C90       1.0  0.04256  0.12937  0.46385  1.0000
  H   H68       1.0  0.29713  0.32377  0.47273  1.0000
  C   C91       1.0  0.31145  0.01676  0.26206  1.0000
  C   C92       1.0  0.10911  0.48749  0.40147  1.0000
  H   H69       1.0  0.24201  0.99586  0.24664  1.0000
  C   C93       1.0  0.07641  0.16910  0.48364  1.0000
  H   H70       1.0  0.02833  0.44074  0.36801  1.0000
  C   C94       1.0  0.01632  0.44376  0.40315  1.0000
  H   H71       1.0  0.09043  0.18890  0.48222  1.0000
  H   H72       1.0  0.01018  0.07290  0.09815  1.0000
  H   H73       1.0  0.06551  0.01245  0.17674  1.0000
  C   C95       1.0  0.99646  0.44736  0.41459  1.0000
  C   C96       1.0  0.07064  0.06199  0.99980  1.0000
  H   H74       1.0  0.21880  0.00393  0.31072  1.0000
  H   H75       1.0  0.30031  0.99454  0.15942  1.0000
  H   H76       1.0  0.06196  0.00660  0.04975  1.0000
  C   C97       1.0  0.00424  0.30397  0.21042  1.0000
  H   H77       1.0  0.04368  0.40971  0.48564  1.0000
  C   C98       1.0  0.30908  0.20761  0.16794  1.0000
  C   C99       1.0  0.05158  0.00148  0.24635  1.0000
  H   H78       1.0  0.01376  0.31041  0.42966  1.0000
  C   C100      1.0  0.01288  0.44506  0.37649  1.0000
  C   C101      1.0  0.23596  0.99442  0.32236  1.0000
  C   C102      1.0  0.32210  0.36693  0.48943  1.0000
  C   C103      1.0  0.00547  0.18281  0.36666  1.0000
  C   C104      1.0  0.07926  0.48960  0.30855  1.0000
  H   H79       1.0  0.00333  0.18266  0.34603  1.0000
  C   C105      1.0  0.99590  0.31577  0.46089  1.0000
  C   C106      1.0  0.07727  0.48765  0.48673  1.0000
  C   C107      1.0  0.32406  0.04162  0.16219  1.0000
  H   H80       1.0  0.32792  0.04204  0.18291  1.0000
  H   H81       1.0  0.03257  0.09661  0.91190  1.0000
  C   C108      1.0  0.31167  0.48826  0.65283  1.0000
  S   S10       1.0  0.09621  0.46239  0.84203  1.0000
  C   C109      1.0  0.08060  0.37807  0.74651  1.0000
  C   C110      1.0  0.05512  0.29263  0.76201  1.0000
  H   H82       1.0  0.16359  0.43661  0.78073  1.0000
  S   S11       1.0  0.04958  0.18983  0.82509  1.0000
  C   C111      1.0  0.06892  0.19389  0.94725  1.0000
  C   C112      1.0  0.09910  0.40321  0.74508  1.0000
  S   S12       1.0  0.05336  0.21809  0.88350  1.0000
  Fe  Fe6       1.0  0.04924  0.24469  0.84482  1.0000
  S   S13       1.0  0.07284  0.28913  0.83104  1.0000
  Fe  Fe7       1.0  0.05075  0.16323  0.86348  1.0000
  S   S14       1.0  0.07959  0.12337  0.88515  1.0000
  C   C113      1.0  0.03542  0.28816  0.71682  1.0000
  H   H83       1.0  0.06434  0.47309  0.71491  1.0000
  C   C114      1.0  0.09023  0.41408  0.83861  1.0000
  C   C115      1.0  0.07758  0.39682  0.85519  1.0000
  C   C116      1.0  0.07196  0.35890  0.85312  1.0000
  C   C117      1.0  0.07924  0.33736  0.83462  1.0000
  C   C118      1.0  0.09240  0.35447  0.81839  1.0000
  C   C119      1.0  0.09762  0.39254  0.82013  1.0000
  H   H84       1.0  0.07186  0.41300  0.86966  1.0000
  H   H85       1.0  0.06208  0.34633  0.86593  1.0000
  H   H86       1.0  0.09862  0.33812  0.80436  1.0000
  H   H87       1.0  0.10756  0.40516  0.80740  1.0000
  C   C120      1.0  0.00952  0.07519  0.93582  1.0000
  C   C121      1.0  0.01608  0.37920  0.81967  1.0000
  Fe  Fe8       1.0  0.01235  0.21407  0.87508  1.0000
  H   H88       1.0  0.11801  0.39664  0.75339  1.0000
  H   H89       1.0  0.10745  0.45713  0.73278  1.0000
  C   C122      1.0  0.01407  0.33862  0.78337  1.0000
  C   C123      1.0  0.01103  0.09803  0.98874  1.0000
  C   C124      1.0  0.10163  0.06309  0.91109  1.0000
  C   C125      1.0  0.08106  0.07590  0.89302  1.0000
  C   C126      1.0  0.06306  0.05062  0.88133  1.0000
  H   H90       1.0  0.11569  0.08234  0.92023  1.0000
  H   H91       1.0  0.04729  0.05995  0.86723  1.0000
  H   H92       1.0  0.23250  0.44306  0.73782  1.0000
  C   C127      1.0  0.04643  0.19688  0.95376  1.0000
  C   C128      1.0  0.07946  0.15951  0.94652  1.0000
  H   H93       1.0  0.09629  0.15694  0.94018  1.0000
  H   H94       1.0  0.07777  0.21807  0.94186  1.0000
  H   H95       1.0  0.04156  0.01909  0.94427  1.0000
  C   C129      1.0  0.09320  0.43729  0.73351  1.0000
  H   H96       1.0  0.30209  0.15978  0.90555  1.0000
  C   C130      1.0  0.07533  0.15586  0.50783  1.0000
  H   H97       1.0  0.01765  0.47611  0.76910  1.0000
  H   H98       1.0  0.29645  0.22679  0.90898  1.0000
  C   C131      1.0  0.04177  0.30909  0.73951  1.0000
  H   H99       1.0  0.02520  0.30002  0.69915  1.0000
  H   H100      1.0  0.00582  0.07147  0.82382  1.0000
  C   C132      1.0  0.05601  0.38684  0.73623  1.0000
  H   H101      1.0  0.07582  0.10170  0.95082  1.0000
  H   H102      1.0  0.14440  0.38363  0.86598  1.0000
  H   H103      1.0  0.06023  0.30822  0.77964  1.0000
  H   H104      1.0  0.00649  0.31595  0.63622  1.0000
  H   H105      1.0  0.31200  0.47068  0.58148  1.0000
  C   C133      1.0  0.17737  0.46111  0.75056  1.0000
  C   C134      1.0  0.00454  0.36233  0.71535  1.0000
  C   C135      1.0  0.05480  0.23487  0.73964  1.0000
  C   C136      1.0  0.04198  0.25119  0.71692  1.0000
  H   H106      1.0  0.04263  0.41925  0.77600  1.0000
  H   H107      1.0  0.17897  0.48702  0.85883  1.0000
  C   C137      1.0  0.19684  0.46325  0.73857  1.0000
  H   H108      1.0  0.03390  0.43121  0.81803  1.0000
  C   C138      1.0  0.01571  0.08251  0.91243  1.0000
  C   C139      1.0  0.05265  0.05550  0.97714  1.0000
  C   C140      1.0  0.04532  0.13088  0.95985  1.0000
  C   C141      1.0  0.00007  0.07172  0.88928  1.0000
  C   C142      1.0  0.27990  0.37596  0.85610  1.0000
  C   C143      1.0  0.06881  0.44628  0.72336  1.0000
  H   H109      1.0  0.03684  0.23497  0.69949  1.0000
  H   H110      1.0  0.07113  0.24311  0.77998  1.0000
  C   C144      1.0  0.05028  0.42129  0.72480  1.0000
  H   H111      1.0  0.08551  0.35228  0.75618  1.0000
  C   C145      1.0  0.07302  0.99876  0.97103  1.0000
  H   H112      1.0  0.12067  0.01613  0.93064  1.0000
  H   H113      1.0  0.29845  0.37374  0.86751  1.0000
  H   H114      1.0  0.03770  0.22338  0.95314  1.0000
  P   P4        1.0  0.02949  0.08962  0.96575  1.0000
  C   C146      1.0  0.31752  0.17827  0.90712  1.0000
  C   C147      1.0  0.31189  0.47555  0.60141  1.0000
  H   H115      1.0  0.01305  0.38415  0.83864  1.0000
  H   H116      1.0  0.02769  0.47180  0.66971  1.0000
  S   S15       1.0  0.00977  0.15839  0.85670  1.0000
  H   H117      1.0  0.20037  0.45968  0.82837  1.0000
  H   H118      1.0  0.00505  0.07771  0.87142  1.0000
  C   C148      1.0  0.05424  0.02394  0.96254  1.0000
  H   H119      1.0  0.28489  0.43133  0.84426  1.0000
  C   C149      1.0  0.03463  0.16558  0.95996  1.0000
  C   C150      1.0  0.08692  0.00007  0.90479  1.0000
  C   C151      1.0  0.06769  0.12812  0.95262  1.0000
  H   H120      1.0  0.03151  0.42934  0.71756  1.0000
  C   C152      1.0  0.06143  0.25566  0.76216  1.0000
  H   H121      1.0  0.05698  0.11927  0.52880  1.0000
  C   C153      1.0  0.02588  0.36514  0.77152  1.0000
  C   C154      1.0  0.00622  0.36987  0.69012  1.0000
  Fe  Fe9       1.0  0.00874  0.18918  0.81980  1.0000
  C   C155      1.0  0.10451  0.02550  0.91704  1.0000
  C   C156      1.0  0.15125  0.30699  0.77565  1.0000
  C   C157      1.0  0.16596  0.27876  0.77027  1.0000
  C   C158      1.0  0.19131  0.28332  0.77582  1.0000
  C   C159      1.0  0.20201  0.31582  0.78725  1.0000
  C   C160      1.0  0.18743  0.34366  0.79375  1.0000
  C   C161      1.0  0.16189  0.33958  0.78690  1.0000
  P   P5        1.0  0.20097  0.38629  0.80750  1.0000
  C   C162      1.0  0.18477  0.40565  0.82968  1.0000
  C   C163      1.0  0.23200  0.38183  0.82609  1.0000
  C   C164      1.0  0.24839  0.41150  0.82820  1.0000
  C   C165      1.0  0.27230  0.40838  0.84292  1.0000
  H   H122      1.0  0.05229  0.99352  0.87757  1.0000
  C   C166      1.0  0.06601  0.01293  0.88718  1.0000
  C   C167      1.0  0.23950  0.34980  0.84012  1.0000
  C   C168      1.0  0.16964  0.38400  0.84125  1.0000
  C   C169      1.0  0.15686  0.40000  0.85788  1.0000
  H   H123      1.0  0.01700  0.16893  0.96420  1.0000
  H   H124      1.0  0.02387  0.37289  0.68557  1.0000
  C   C170      1.0  0.18822  0.44277  0.83642  1.0000
  C   C171      1.0  0.19949  0.41637  0.78054  1.0000
  C   C172      1.0  0.21861  0.41764  0.76782  1.0000
  C   C173      1.0  0.21738  0.44132  0.74706  1.0000
  S   S16       1.0  0.00828  0.24497  0.83791  1.0000
  C   C174      1.0  0.01050  0.48078  0.74875  1.0000
  C   C175      1.0  0.17864  0.43760  0.77140  1.0000
  H   H125      1.0  0.13157  0.30362  0.77113  1.0000
  H   H126      1.0  0.15770  0.25346  0.76160  1.0000
  H   H127      1.0  0.20267  0.26170  0.77117  1.0000
  H   H128      1.0  0.22162  0.31925  0.79084  1.0000
  H   H129      1.0  0.15018  0.36149  0.79043  1.0000
  H   H130      1.0  0.24274  0.43726  0.81868  1.0000
  P   P6        1.0  0.03193  0.35608  0.74038  1.0000
  C   C176      1.0  0.26346  0.34678  0.85486  1.0000
  H   H131      1.0  0.14968  0.44976  0.87650  1.0000
  H   H132      1.0  0.22682  0.32733  0.83988  1.0000
  H   H133      1.0  0.16753  0.35489  0.83752  1.0000
  H   H134      1.0  0.05946  0.20606  0.73992  1.0000
  C   C177      1.0  0.03276  0.39874  0.78410  1.0000
  C   C178      1.0  0.32110  0.44916  0.61989  1.0000
  C   C179      1.0  0.00930  0.34562  0.80739  1.0000
  H   H135      1.0  0.23463  0.40080  0.77411  1.0000
  C   C180      1.0  0.32091  0.45547  0.64555  1.0000
  H   H136      1.0  0.00905  0.31218  0.77438  1.0000
  H   H137      1.0  0.08819  0.16581  0.52486  1.0000
  H   H138      1.0  0.26922  0.32193  0.86551  1.0000
  C   C181      1.0  0.02775  0.40575  0.80800  1.0000
  H   H139      1.0  0.00097  0.32462  0.81685  1.0000
  H   H140      1.0  0.99933  0.00706  0.80889  1.0000
  H   H141      1.0  0.08439  0.43536  0.50537  1.0000
  C   C182      1.0  0.15989  0.43727  0.86392  1.0000
  C   C183      1.0  0.05780  0.12956  0.51005  1.0000
  C   C184      1.0  0.17600  0.45841  0.85363  1.0000
  C   C185      1.0  0.31435  0.21604  0.90905  1.0000
  H   H142      1.0  0.06171  0.48254  0.64879  1.0000
  H   H143      1.0  0.16168  0.47870  0.74434  1.0000
  H   H144      1.0  0.99798  0.23081  0.73818  1.0000
  H   H145      1.0  0.19609  0.48225  0.72292  1.0000
  Fe  Fe10      1.0  0.13778  0.65935  0.42804  1.0000
  S   S17       1.0  0.14709  0.66301  0.47132  1.0000
  S   S18       1.0  0.13447  0.70314  0.39633  1.0000
  Fe  Fe11      1.0  0.13570  0.57413  0.42943  1.0000
  S   S19       1.0  0.14542  0.57227  0.47265  1.0000
  S   S20       1.0  0.12735  0.52710  0.40025  1.0000
  Fe  Fe12      1.0  0.11856  0.61878  0.47016  1.0000
  Fe  Fe13      1.0  0.17340  0.61627  0.47072  1.0000
  H   H146      1.0  0.02124  0.91958  0.14401  1.0000
  S   S21       1.0  0.10776  0.61801  0.42698  1.0000
  S   S22       1.0  0.16545  0.61509  0.42753  1.0000
  S   S23       1.0  0.02670  0.81637  0.05099  1.0000
  H   H147      1.0  0.21112  0.88560  0.38209  1.0000
  H   H148      1.0  0.31669  0.95872  0.26259  1.0000
  Fe  Fe14      1.0  0.12409  0.91460  0.34709  1.0000
  S   S24       1.0  0.14997  0.90167  0.32229  1.0000
  S   S25       1.0  0.11586  0.87591  0.37810  1.0000
  Fe  Fe15      1.0  0.12360  0.93107  0.29075  1.0000
  S   S26       1.0  0.11719  0.91006  0.24947  1.0000
  Fe  Fe16      1.0  0.16691  0.95705  0.33370  1.0000
  S   S27       1.0  0.09632  0.94066  0.31463  1.0000
  C   C186      1.0  0.31203  0.84315  0.28765  1.0000
  H   H149      1.0  0.20546  0.91502  0.30188  1.0000
  S   S28       1.0  0.11620  0.91042  0.03168  1.0000
  C   C187      1.0  0.28291  0.95353  0.03841  1.0000
  C   C188      1.0  0.28399  0.95503  0.01261  1.0000
  C   C189      1.0  0.23921  0.93820  0.02461  1.0000
  C   C190      1.0  0.26890  0.90837  0.21896  1.0000
  H   H150      1.0  0.22203  0.93196  0.02942  1.0000
  C   C191      1.0  0.19690  0.84611  0.40522  1.0000
  C   C192      1.0  0.26038  0.94506  0.04424  1.0000
  C   C193      1.0  0.18898  0.92184  0.26170  1.0000
  H   H151      1.0  0.29014  0.93842  0.30462  1.0000
  C   C194      1.0  0.27051  0.88129  0.17022  1.0000
  C   C195      1.0  0.04452  0.86719  0.19872  1.0000
  C   C196      1.0  0.06577  0.86797  0.18951  1.0000
  C   C197      1.0  0.08780  0.88151  0.20519  1.0000
  C   C198      1.0  0.08891  0.89388  0.23035  1.0000
  C   C199      1.0  0.06768  0.89307  0.23958  1.0000
  C   C200      1.0  0.04563  0.87984  0.22382  1.0000
  H   H152      1.0  0.06529  0.85766  0.17046  1.0000
  H   H153      1.0  0.10413  0.88183  0.19790  1.0000
  H   H154      1.0  0.06826  0.90234  0.25891  1.0000
  H   H155      1.0  0.02935  0.87903  0.23121  1.0000
  C   C201      1.0  0.05022  0.84553  0.04559  1.0000
  C   C202      1.0  0.06194  0.87170  0.06351  1.0000
  C   C203      1.0  0.08184  0.89209  0.05886  1.0000
  C   C204      1.0  0.09019  0.88632  0.03637  1.0000
  C   C205      1.0  0.07795  0.86098  0.01824  1.0000
  C   C206      1.0  0.05798  0.84100  0.02274  1.0000
  H   H156      1.0  0.05601  0.87564  0.08111  1.0000
  H   H157      1.0  0.09112  0.91183  0.07296  1.0000
  H   H158      1.0  0.30213  0.86383  0.37881  1.0000
  S   S29       1.0  0.20847  0.95451  0.35021  1.0000
  C   C207      1.0  0.27186  0.82685  0.36505  1.0000
  H   H159      1.0  0.13349  0.70478  0.99508  1.0000
  C   C208      1.0  0.19311  0.92646  0.23719  1.0000
  H   H160      1.0  0.29171  0.90254  0.09590  1.0000
  C   C209      1.0  0.08999  0.56823  0.34246  1.0000
  C   C210      1.0  0.12945  0.75137  0.39202  1.0000
  C   C211      1.0  0.12934  0.76690  0.36794  1.0000
  C   C212      1.0  0.12562  0.80485  0.36348  1.0000
  C   C213      1.0  0.12174  0.82796  0.38300  1.0000
  C   C214      1.0  0.12183  0.81239  0.40709  1.0000
  C   C215      1.0  0.12596  0.77455  0.41168  1.0000
  H   H161      1.0  0.13210  0.74943  0.35254  1.0000
  H   H162      1.0  0.12527  0.81614  0.34477  1.0000
  H   H163      1.0  0.11893  0.82982  0.42243  1.0000
  H   H164      1.0  0.12646  0.76342  0.43042  1.0000
  C   C216      1.0  0.17247  0.90643  0.41990  1.0000
  H   H165      1.0  0.21725  0.54480  0.48828  1.0000
  H   H166      1.0  0.07734  0.81955  0.44751  1.0000
  C   C217      1.0  0.18057  0.81353  0.34718  1.0000
  C   C218      1.0  0.24174  0.82330  0.39091  1.0000
  H   H167      1.0  0.00009  0.57283  0.32753  1.0000
  C   C219      1.0  0.19454  0.78974  0.36527  1.0000
  H   H168      1.0  0.09773  0.98356  0.23659  1.0000
  C   C220      1.0  0.30320  0.65005  0.46158  1.0000
  C   C221      1.0  0.19576  0.75251  0.35889  1.0000
  C   C222      1.0  0.05198  0.84339  0.38593  1.0000
  H   H169      1.0  0.15745  0.75250  0.29937  1.0000
  S   S30       1.0  0.01327  0.78147  0.11869  1.0000
  C   C223      1.0  0.08250  0.97310  0.15674  1.0000
  C   C224      1.0  0.06817  0.67850  0.38845  1.0000
  C   C225      1.0  0.05592  0.64614  0.39180  1.0000
  C   C226      1.0  0.04349  0.64384  0.41147  1.0000
  C   C227      1.0  0.04261  0.67423  0.42724  1.0000
  C   C228      1.0  0.05409  0.70730  0.42332  1.0000
  C   C229      1.0  0.06744  0.70883  0.40423  1.0000
  H   H170      1.0  0.05524  0.89579  0.12741  1.0000
  C   C230      1.0  0.06175  0.61111  0.31704  1.0000
  C   C231      1.0  0.32606  0.52429  0.47762  1.0000
  S   S31       1.0  0.14192  0.96932  0.36018  1.0000
  H   H171      1.0  0.00068  0.50754  0.48087  1.0000
  H   H172      1.0  0.02427  0.76123  0.38946  1.0000
  C   C232      1.0  0.03581  0.78492  0.39579  1.0000
  H   H173      1.0  0.01596  0.94966  0.09072  1.0000
  H   H174      1.0  0.17303  0.73644  0.00965  1.0000
  H   H175      1.0  0.07886  0.67992  0.37411  1.0000
  H   H176      1.0  0.05704  0.62236  0.37995  1.0000
  H   H177      1.0  0.03498  0.61826  0.41488  1.0000
  C   C233      1.0  0.07776  0.75276  0.46888  1.0000
  H   H178      1.0  0.07734  0.73346  0.40144  1.0000
  C   C234      1.0  0.01229  0.56459  0.24335  1.0000
  C   C235      1.0  0.23965  0.74391  0.45880  1.0000
  C   C236      1.0  0.28457  0.91185  0.18037  1.0000
  P   P7        1.0  0.08302  0.72706  0.99591  1.0000
  C   C237      1.0  0.01965  0.95902  0.07282  1.0000
  C   C238      1.0  0.30164  0.68120  0.44585  1.0000
  H   H179      1.0  0.11412  0.65445  0.34837  1.0000
  S   S32       1.0  0.30884  0.96244  0.06417  1.0000
  C   C239      1.0  0.23697  0.92254  0.25487  1.0000
  C   C240      1.0  0.24021  0.94002  0.99878  1.0000
  C   C241      1.0  0.10062  0.73907  0.46751  1.0000
  H   H180      1.0  0.25866  0.93681  0.37166  1.0000
  C   C242      1.0  0.10677  0.59672  0.35051  1.0000
  C   C243      1.0  0.23590  0.96937  0.34204  1.0000
  H   H181      1.0  0.32445  0.81247  0.14254  1.0000
  C   C244      1.0  0.15667  0.74863  0.01323  1.0000
  H   H182      1.0  0.25921  0.94402  0.06408  1.0000
  H   H183      1.0  0.18387  0.70305  0.43941  1.0000
  H   H184      1.0  0.21982  0.93151  0.21470  1.0000
  S   S33       1.0  0.08655  0.61070  0.48934  1.0000
  C   C245      1.0  0.25845  0.95637  0.35647  1.0000
  H   H185      1.0  0.25270  0.78882  0.43989  1.0000
  H   H186      1.0  0.30110  0.96155  0.00774  1.0000
  C   C246      1.0  0.06750  0.57504  0.32531  1.0000
  H   H187      1.0  0.09439  0.54110  0.35028  1.0000
  C   C247      1.0  0.04421  0.52473  0.36865  1.0000
  H   H188      1.0  0.22195  0.69899  0.47365  1.0000
  Fe  Fe17      1.0  0.00730  0.81833  0.08384  1.0000
  H   H189      1.0  0.27100  0.87102  0.15134  1.0000
  H   H190      1.0  0.23966  0.79326  0.35544  1.0000
  H   H191      1.0  0.27821  0.71542  0.41785  1.0000
  H   H192      1.0  0.06132  0.51072  0.36976  1.0000
  C   C248      1.0  0.22034  0.71964  0.45880  1.0000
  C   C249      1.0  0.07869  0.63953  0.32495  1.0000
  C   C250      1.0  0.00361  0.94956  0.04955  1.0000
  H   H193      1.0  0.29087  0.85232  0.24949  1.0000
  H   H194      1.0  0.09818  0.79377  0.02482  1.0000
  H   H195      1.0  0.07421  0.66733  0.31856  1.0000
  C   C251      1.0  0.27739  0.86297  0.40396  1.0000
  H   H196      1.0  0.05335  0.98605  0.09097  1.0000
  C   C252      1.0  0.31949  0.85689  0.31268  1.0000
  C   C253      1.0  0.27822  0.97233  0.25403  1.0000
  C   C254      1.0  0.11267  0.74779  0.00790  1.0000
  C   C255      1.0  0.16807  0.76289  0.31758  1.0000
  H   H197      1.0  0.00338  0.78395  0.42789  1.0000
  C   C256      1.0  0.30593  0.89194  0.11144  1.0000
  C   C257      1.0  0.10119  0.63233  0.34170  1.0000
  C   C258      1.0  0.05049  0.78668  0.42091  1.0000
  H   H198      1.0  0.24480  0.84040  0.17645  1.0000
  C   C259      1.0  0.03553  0.52830  0.39089  1.0000
  H   H199      1.0  0.06435  0.98589  0.26066  1.0000
  Fe  Fe18      1.0  0.00261  0.83187  0.13827  1.0000
  H   H200      1.0  0.18277  0.71019  0.33076  1.0000
  C   C260      1.0  0.25916  0.64179  0.44673  1.0000
  C   C261      1.0  0.13409  0.73102  0.00461  1.0000
  S   S34       1.0  0.01622  0.85030  0.18009  1.0000
  C   C262      1.0  0.19675  0.74823  0.42028  1.0000
  H   H201      1.0  0.15711  0.86781  0.44205  1.0000
  C   C263      1.0  0.16948  0.87164  0.42955  1.0000
  H   H202      1.0  0.24257  0.62711  0.44774  1.0000
  H   H203      1.0  0.20688  0.73371  0.37220  1.0000
  H   H204      1.0  0.03341  0.99114  0.00864  1.0000
  C   C264      1.0  0.05737  0.92158  0.13784  1.0000
  H   H205      1.0  0.05328  0.86474  0.37226  1.0000
  H   H206      1.0  0.16245  0.92947  0.42491  1.0000
  C   C265      1.0  0.28077  0.96898  0.35181  1.0000
  H   H207      1.0  0.10443  0.98470  0.00084  1.0000
  C   C266      1.0  0.01366  0.54661  0.39006  1.0000
  H   H208      1.0  0.31724  0.90207  0.33803  1.0000
  C   C267      1.0  0.25498  0.87746  0.20867  1.0000
  P   P8        1.0  0.26789  0.92524  0.25052  1.0000
  C   C268      1.0  0.21607  0.77260  0.41998  1.0000
  C   C269      1.0  0.28795  0.89795  0.27466  1.0000
  C   C270      1.0  0.29573  0.91155  0.29979  1.0000
  C   C271      1.0  0.02458  0.74528  0.45465  1.0000
  C   C272      1.0  0.29624  0.86348  0.26870  1.0000
  H   H209      1.0  0.15623  0.81858  0.30979  1.0000
  P   P9        1.0  0.21255  0.80746  0.39540  1.0000
  H   H210      1.0  0.24063  0.67984  0.41828  1.0000
  H   H211      1.0  0.04304  0.74003  0.06842  1.0000
  H   H212      1.0  0.08999  0.51310  0.30543  1.0000
  C   C273      1.0  0.12110  0.74580  0.48756  1.0000
  H   H213      1.0  0.04878  0.82137  0.00862  1.0000
  C   C274      1.0  0.03799  0.93528  0.14718  1.0000
  C   C275      1.0  0.04054  0.96838  0.16094  1.0000
  C   C276      1.0  0.06554  0.81753  0.42847  1.0000
  C   C277      1.0  0.25010  0.81237  0.36931  1.0000
  C   C278      1.0  0.06034  0.50894  0.46972  1.0000
  C   C279      1.0  0.03730  0.49449  0.45831  1.0000
  H   H214      1.0  0.29608  0.92503  0.16939  1.0000
  P   P10       1.0  0.04465  0.53917  0.31805  1.0000
  H   H215      1.0  0.28151  0.60860  0.47526  1.0000
  C   C280      1.0  0.28380  0.92540  0.20464  1.0000
  H   H216      1.0  0.06519  0.53669  0.46545  1.0000
  C   C281      1.0  0.16736  0.80012  0.32345  1.0000
  C   C282      1.0  0.30331  0.98041  0.25974  1.0000
  P   P11       1.0  0.05168  0.74783  0.44209  1.0000
  C   C283      1.0  0.00833  0.96103  0.02617  1.0000
  C   C284      1.0  0.28154  0.63108  0.46227  1.0000
  C   C285      1.0  0.23260  0.91866  0.27951  1.0000
  H   H217      1.0  0.00680  0.54908  0.40726  1.0000
  C   C286      1.0  0.20870  0.91805  0.28282  1.0000
  C   C287      1.0  0.21699  0.92715  0.23377  1.0000
  C   C288      1.0  0.25574  0.86408  0.18436  1.0000
  C   C289      1.0  0.23758  0.77027  0.43945  1.0000
  C   C290      1.0  0.27923  0.69159  0.43006  1.0000
  H   H218      1.0  0.07849  0.86890  0.41654  1.0000
  H   H219      1.0  0.18986  0.93813  0.39533  1.0000
  H   H220      1.0  0.12392  0.59124  0.36413  1.0000
  C   C291      1.0  0.19892  0.72180  0.43949  1.0000
  C   C292      1.0  0.25805  0.67164  0.43030  1.0000
  H   H221      1.0  0.27801  0.81885  0.34812  1.0000
  C   C293      1.0  0.18774  0.91124  0.40307  1.0000
  H   H222      1.0  0.29491  0.94906  0.21207  1.0000
  C   C294      1.0  0.07390  0.71143  0.02426  1.0000
  C   C295      1.0  0.18231  0.73910  0.33527  1.0000
  C   C296      1.0  0.28546  0.85221  0.38231  1.0000
  C   C297      1.0  0.25565  0.84857  0.40828  1.0000
  C   C298      1.0  0.19983  0.88126  0.39565  1.0000
  H   H223      1.0  0.24938  0.85780  0.42487  1.0000
  H   H224      1.0  0.17956  0.84237  0.35141  1.0000
  C   C299      1.0  0.08173  0.67726  0.03500  1.0000
  C   C300      1.0  0.07500  0.66533  0.05720  1.0000
  C   C301      1.0  0.06083  0.68774  0.06909  1.0000
  C   C302      1.0  0.05369  0.72227  0.05900  1.0000
  C   C303      1.0  0.06039  0.73423  0.03684  1.0000
  C   C304      1.0  0.32246  0.56116  0.48279  1.0000
  C   C305      1.0  0.11436  0.78121  0.02121  1.0000
  C   C306      1.0  0.13689  0.79883  0.02973  1.0000
  C   C307      1.0  0.15804  0.78268  0.02554  1.0000
  H   H225      1.0  0.09469  0.92935  0.13565  1.0000
  H   H226      1.0  0.25626  0.74209  0.47377  1.0000
  H   H227      1.0  0.08426  0.85600  0.00103  1.0000
  H   H228      1.0  0.17048  0.92141  0.26439  1.0000
  H   H229      1.0  0.17542  0.79680  0.03152  1.0000
  H   H230      1.0  0.17826  0.81477  0.42935  1.0000
  H   H231      1.0  0.17984  0.74983  0.40574  1.0000
  C   C308      1.0  0.18153  0.84153  0.42219  1.0000
  C   C309      1.0  0.32492  0.91498  0.12391  1.0000
  C   C310      1.0  0.07963  0.94043  0.14262  1.0000
  H   H232      1.0  0.13784  0.82535  0.03917  1.0000
  H   H233      1.0  0.09313  0.65994  0.02631  1.0000
  H   H234      1.0  0.08088  0.63882  0.06531  1.0000
  H   H235      1.0  0.05557  0.67861  0.08628  1.0000
  C   C311      1.0  0.30577  0.85508  0.11845  1.0000
  H   H236      1.0  0.05513  0.76142  0.02979  1.0000
  H   H237      1.0  0.10273  0.72350  0.45093  1.0000
  H   H238      1.0  0.24743  0.91652  0.29636  1.0000
  H   H239      1.0  0.04593  0.51671  0.40869  1.0000
  H   H240      1.0  0.24356  0.86365  0.21946  1.0000
  H   H241      1.0  0.29791  0.95920  0.36338  1.0000
  H   H242      1.0  0.28778  0.88300  0.41716  1.0000
  C   C312      1.0  0.06622  0.84573  0.41101  1.0000
  C   C313      1.0  0.31110  0.89091  0.31879  1.0000
  H   H243      1.0  0.04962  0.96099  0.21672  1.0000
  C   C314      1.0  0.32472  0.84120  0.13779  1.0000
  H   H244      1.0  0.29121  0.83714  0.10843  1.0000
  H   H245      1.0  0.04400  0.61755  0.30503  1.0000
  H   H246      1.0  0.29887  0.87731  0.01846  1.0000
  H   H247      1.0  0.31751  0.69795  0.44587  1.0000
  C   C315      1.0  0.03660  0.81316  0.37839  1.0000
  H   H248      1.0  0.30806  0.56781  0.49212  1.0000
  C   C316      1.0  0.03122  0.53978  0.34541  1.0000
  H   H249      1.0  0.17770  0.92953  0.22091  1.0000
  C   C317      1.0  0.04064  0.97964  0.07293  1.0000
  H   H250      1.0  0.03305  0.67160  0.44243  1.0000
  C   C318      1.0  0.31294  0.87514  0.00777  1.0000
  C   C319      1.0  0.02245  0.54486  0.28793  1.0000
  C   C320      1.0  0.02461  0.72318  0.47609  1.0000
  S   S35       1.0  0.99949  0.86935  0.10410  1.0000
  H   H251      1.0  0.00347  0.94123  0.21217  1.0000
  C   C321      1.0  0.02896  0.56257  0.26723  1.0000
  C   C322      1.0  0.00388  0.76634  0.44419  1.0000
  H   H252      1.0  0.04705  0.57412  0.26928  1.0000
  H   H253      1.0  0.03432  0.90827  0.00031  1.0000
  H   H254      1.0  0.02574  0.81127  0.35885  1.0000
  H   H255      1.0  0.04041  0.70684  0.48459  1.0000
  C   C323      1.0  0.04314  0.98743  0.22149  1.0000
  H   H256      1.0  0.31871  0.81689  0.28289  1.0000
  C   C324      1.0  0.06305  0.98705  0.16591  1.0000
  H   H257      1.0  0.09984  0.98751  0.16066  1.0000
  H   H258      1.0  0.32550  0.94326  0.11797  1.0000
  P   P12       1.0  0.01497  0.98784  0.17125  1.0000
  H   H259      1.0  0.02434  0.51129  0.44522  1.0000
  H   H260      1.0  0.12441  0.96361  0.20888  1.0000
  H   H261      1.0  0.01736  0.57828  0.22741  1.0000
  C   C325      1.0  0.02925  0.98228  0.02644  1.0000
  S   S36       1.0  0.14239  0.98588  0.30017  1.0000
  C   C326      1.0  0.00976  0.55937  0.34490  1.0000
  H   H262      1.0  0.31406  0.50351  0.48247  1.0000
  C   C327      1.0  0.00081  0.56223  0.36709  1.0000
  C   C328      1.0  0.00442  0.72240  0.48705  1.0000
  C   C329      1.0  0.05693  0.49415  0.31546  1.0000
  H   H263      1.0  0.13882  0.73589  0.48626  1.0000
  H   H264      1.0  0.00088  0.86810  0.99739  1.0000
  H   H265      1.0  0.10459  0.49676  0.43975  1.0000
  C   C330      1.0  0.99942  0.52783  0.28402  1.0000
  Fe  Fe19      1.0  0.13083  0.90138  0.99582  1.0000
  C   C331      1.0  0.07564  0.77273  0.49073  1.0000
  H   H266      1.0  0.05824  0.78387  0.49219  1.0000
  C   C332      1.0  0.12697  0.99065  0.21763  1.0000
  H   H267      1.0  0.29127  0.99173  0.11168  1.0000
  C   C333      1.0  0.04543  0.99129  0.04974  1.0000
  S   S37       1.0  0.16380  0.86785  0.99377  1.0000
  C   C334      1.0  0.05501  0.81369  0.95031  1.0000
  H   H268      1.0  0.02099  0.53384  0.70046  1.0000
  H   H269      1.0  0.28742  0.86603  0.97155  1.0000
  S   S38       1.0  0.14469  0.54393  0.84065  1.0000
  S   S39       1.0  0.10775  0.87716  0.95977  1.0000
  Fe  Fe20      1.0  0.17437  0.91462  0.97127  1.0000
  S   S40       1.0  0.15324  0.89198  0.93286  1.0000
  H   H270      1.0  0.01160  0.95936  0.91227  1.0000
  Fe  Fe21      1.0  0.12129  0.92451  0.93985  1.0000
  S   S41       1.0  0.09060  0.95206  0.91022  1.0000
  Fe  Fe22      1.0  0.14130  0.84680  0.95576  1.0000
  S   S42       1.0  0.14196  0.78432  0.95036  1.0000
  S   S43       1.0  0.14305  0.95032  0.97627  1.0000
  C   C335      1.0  0.23856  0.51850  0.83908  1.0000
  H   H271      1.0  0.02989  0.73552  0.98598  1.0000
  S   S44       1.0  0.03642  0.71037  0.56070  1.0000
  Fe  Fe23      1.0  0.12234  0.58951  0.81822  1.0000
  S   S45       1.0  0.13986  0.58283  0.78473  1.0000
  S   S46       1.0  0.11317  0.64897  0.82701  1.0000
  Fe  Fe24      1.0  0.16017  0.53485  0.80562  1.0000
  S   S47       1.0  0.30105  0.51213  0.53330  1.0000
  Fe  Fe25      1.0  0.10945  0.54354  0.76858  1.0000
  S   S48       1.0  0.09276  0.54220  0.72544  1.0000
  H   H272      1.0  0.25499  0.53899  0.73358  1.0000
  S   S49       1.0  0.09061  0.55215  0.80062  1.0000
  H   H273      1.0  0.22603  0.52146  0.85145  1.0000
  C   C336      1.0  0.25103  0.55041  0.60253  1.0000
  H   H274      1.0  0.09894  0.68359  0.51275  1.0000
  C   C337      1.0  0.02108  0.78292  0.96204  1.0000
  C   C338      1.0  0.03005  0.61570  0.68336  1.0000
  C   C339      1.0  0.03439  0.61072  0.71004  1.0000
  C   C340      1.0  0.05423  0.58980  0.72335  1.0000
  C   C341      1.0  0.06939  0.57228  0.70988  1.0000
  C   C342      1.0  0.06505  0.57713  0.68315  1.0000
  C   C343      1.0  0.04568  0.59918  0.66999  1.0000
  H   H275      1.0  0.02207  0.62260  0.72040  1.0000
  H   H276      1.0  0.05735  0.58623  0.74390  1.0000
  H   H277      1.0  0.07670  0.56372  0.67256  1.0000
  H   H278      1.0  0.04253  0.60274  0.64947  1.0000
  H   H279      1.0  0.07846  0.61742  0.91905  1.0000
  C   C344      1.0  0.25417  0.53117  0.50842  1.0000
  C   C345      1.0  0.07955  0.63799  0.93393  1.0000
  P   P13       1.0  0.29156  0.55848  0.64371  1.0000
  C   C346      1.0  0.14005  0.75712  0.92236  1.0000
  C   C347      1.0  0.14711  0.72073  0.92472  1.0000
  C   C348      1.0  0.14392  0.69712  0.90325  1.0000
  C   C349      1.0  0.13108  0.70640  0.87655  1.0000
  C   C350      1.0  0.12724  0.74691  0.87647  1.0000
  C   C351      1.0  0.13100  0.77033  0.89803  1.0000
  H   H280      1.0  0.15531  0.71031  0.94367  1.0000
  H   H281      1.0  0.15129  0.67035  0.90900  1.0000
  H   H282      1.0  0.12054  0.76283  0.85949  1.0000
  H   H283      1.0  0.12640  0.79909  0.89566  1.0000
  H   H284      1.0  0.00171  0.78088  0.96115  1.0000
  H   H285      1.0  0.05993  0.89650  0.96979  1.0000
  C   C352      1.0  0.09536  0.69599  0.95320  1.0000
  Fe  Fe26      1.0  0.11391  0.50568  0.82061  1.0000
  H   H286      1.0  0.29969  0.53993  0.73675  1.0000
  C   C353      1.0  0.32464  0.86685  0.96735  1.0000
  C   C354      1.0  0.08290  0.67335  0.51830  1.0000
  C   C355      1.0  0.07157  0.69460  0.53424  1.0000
  C   C356      1.0  0.05059  0.68180  0.54156  1.0000
  C   C357      1.0  0.04118  0.64725  0.53299  1.0000
  C   C358      1.0  0.23698  0.59263  0.50558  1.0000
  C   C359      1.0  0.03003  0.81114  0.94914  1.0000
  H   H287      1.0  0.02504  0.63704  0.53842  1.0000
  C   C360      1.0  0.00721  0.93929  0.97334  1.0000
  C   C361      1.0  0.27676  0.54400  0.52319  1.0000
  C   C362      1.0  0.27930  0.58138  0.52923  1.0000
  C   C363      1.0  0.09389  0.66937  0.93407  1.0000
  C   C364      1.0  0.00426  0.51282  0.64752  1.0000
  H   H288      1.0  0.29643  0.59158  0.54075  1.0000
  S   S50       1.0  0.19810  0.52561  0.79747  1.0000
  C   C365      1.0  0.04329  0.91193  0.96366  1.0000
  C   C366      1.0  0.01235  0.72526  0.86634  1.0000
  C   C367      1.0  0.25956  0.60547  0.52046  1.0000
  H   H289      1.0  0.09051  0.79100  0.96549  1.0000
  C   C368      1.0  0.25444  0.55171  0.67039  1.0000
  H   H290      1.0  0.26171  0.63424  0.52535  1.0000
  H   H291      1.0  0.10293  0.83252  0.78687  1.0000
  C   C369      1.0  0.03145  0.72376  0.68944  1.0000
  C   C370      1.0  0.04749  0.74719  0.68050  1.0000
  C   C371      1.0  0.03841  0.78009  0.66842  1.0000
  P   P14       1.0  0.07872  0.73319  0.68266  1.0000
  C   C372      1.0  0.08801  0.70484  0.71083  1.0000
  C   C373      1.0  0.08038  0.70694  0.65446  1.0000
  C   C374      1.0  0.06122  0.68327  0.64294  1.0000
  C   C375      1.0  0.06237  0.66337  0.62091  1.0000
  C   C376      1.0  0.08266  0.66672  0.61031  1.0000
  C   C377      1.0  0.10220  0.68925  0.62216  1.0000
  C   C378      1.0  0.10122  0.70899  0.64433  1.0000
  C   C379      1.0  0.09816  0.67007  0.70922  1.0000
  C   C380      1.0  0.10502  0.64830  0.73113  1.0000
  C   C381      1.0  0.10184  0.66103  0.75472  1.0000
  C   C382      1.0  0.09187  0.69554  0.75650  1.0000
  C   C383      1.0  0.08457  0.71720  0.73460  1.0000
  C   C384      1.0  0.09830  0.77321  0.68479  1.0000
  C   C385      1.0  0.09755  0.79452  0.66280  1.0000
  C   C386      1.0  0.11259  0.82542  0.66404  1.0000
  C   C387      1.0  0.12868  0.83515  0.68717  1.0000
  C   C388      1.0  0.12985  0.81385  0.70905  1.0000
  C   C389      1.0  0.11480  0.78294  0.70790  1.0000
  C   C390      1.0  0.03687  0.92595  0.93879  1.0000
  H   H292      1.0  0.03769  0.52164  0.74644  1.0000
  H   H293      1.0  0.13460  0.76982  0.52500  1.0000
  H   H294      1.0  0.03764  0.69759  0.69792  1.0000
  H   H295      1.0  0.04989  0.79843  0.66065  1.0000
  H   H296      1.0  0.04534  0.68022  0.65085  1.0000
  H   H297      1.0  0.04734  0.64580  0.61172  1.0000
  H   H298      1.0  0.08309  0.65210  0.59276  1.0000
  H   H299      1.0  0.11798  0.69160  0.61398  1.0000
  H   H300      1.0  0.11669  0.72590  0.65339  1.0000
  H   H301      1.0  0.10058  0.65933  0.69114  1.0000
  H   H302      1.0  0.11259  0.62130  0.72980  1.0000
  H   H303      1.0  0.10697  0.64412  0.77167  1.0000
  H   H304      1.0  0.08975  0.70513  0.77495  1.0000
  H   H305      1.0  0.07636  0.74360  0.73617  1.0000
  H   H306      1.0  0.08535  0.78714  0.64461  1.0000
  H   H307      1.0  0.11174  0.84177  0.64700  1.0000
  H   H308      1.0  0.14034  0.85910  0.68811  1.0000
  H   H309      1.0  0.14253  0.82119  0.72693  1.0000
  H   H310      1.0  0.11640  0.76672  0.72503  1.0000
  C   C391      1.0  0.24558  0.54689  0.69251  1.0000
  C   C392      1.0  0.06240  0.76089  0.97857  1.0000
  C   C393      1.0  0.11878  0.76525  0.50934  1.0000
  H   H311      1.0  0.25190  0.50234  0.50363  1.0000
  C   C394      1.0  0.25107  0.62360  0.58729  1.0000
  S   S51       1.0  0.21396  0.93289  0.97304  1.0000
  H   H312      1.0  0.09413  0.79351  0.52790  1.0000
  H   H313      1.0  0.01963  0.56417  0.60053  1.0000
  C   C395      1.0  0.28696  0.54343  0.71827  1.0000
  H   H314      1.0  0.05497  0.60932  0.95250  1.0000
  C   C396      1.0  0.02131  0.54400  0.61563  1.0000
  H   H315      1.0  0.07902  0.72122  0.54084  1.0000
  H   H316      1.0  0.07480  0.97513  0.95933  1.0000
  C   C397      1.0  0.26801  0.61183  0.60924  1.0000
  C   C398      1.0  0.02449  0.72707  0.75967  1.0000
  C   C399      1.0  0.02427  0.68969  0.75396  1.0000
  C   C400      1.0  0.03755  0.66530  0.77196  1.0000
  C   C401      1.0  0.05126  0.67832  0.79557  1.0000
  C   C402      1.0  0.05214  0.71598  0.80113  1.0000
  C   C403      1.0  0.03815  0.74017  0.78327  1.0000
  P   P15       1.0  0.06982  0.73290  0.83157  1.0000
  C   C404      1.0  0.05173  0.73065  0.85535  1.0000
  C   C405      1.0  0.09676  0.70498  0.84190  1.0000
  C   C406      1.0  0.09628  0.66985  0.86305  1.0000
  C   C407      1.0  0.12162  0.64341  0.87373  1.0000
  C   C408      1.0  0.14819  0.65299  0.86398  1.0000
  C   C409      1.0  0.14905  0.68862  0.84342  1.0000
  C   C410      1.0  0.12337  0.71407  0.83179  1.0000
  C   C411      1.0  0.06296  0.73432  0.88160  1.0000
  C   C412      1.0  0.04897  0.73379  0.89998  1.0000
  C   C413      1.0  0.02369  0.72918  0.89238  1.0000
  H   H317      1.0  0.23980  0.51623  0.77609  1.0000
  C   C414      1.0  0.02627  0.72611  0.84786  1.0000
  C   C415      1.0  0.07903  0.77977  0.82762  1.0000
  C   C416      1.0  0.07794  0.80675  0.84614  1.0000
  C   C417      1.0  0.08599  0.84252  0.84336  1.0000
  C   C418      1.0  0.09496  0.85178  0.82201  1.0000
  C   C419      1.0  0.09590  0.82528  0.80338  1.0000
  C   C420      1.0  0.08802  0.78942  0.80618  1.0000
  C   C421      1.0  0.27164  0.51096  0.80746  1.0000
  H   H318      1.0  0.29659  0.52894  0.59392  1.0000
  H   H319      1.0  0.03743  0.63628  0.76760  1.0000
  H   H320      1.0  0.06143  0.65903  0.80927  1.0000
  H   H321      1.0  0.03776  0.76917  0.78750  1.0000
  H   H322      1.0  0.07969  0.66333  0.86891  1.0000
  H   H323      1.0  0.12089  0.62022  0.88602  1.0000
  H   H324      1.0  0.16407  0.63591  0.87030  1.0000
  H   H325      1.0  0.16549  0.69398  0.83694  1.0000
  H   H326      1.0  0.12397  0.73560  0.81821  1.0000
  H   H327      1.0  0.08250  0.73805  0.88793  1.0000
  H   H328      1.0  0.05774  0.73714  0.92013  1.0000
  H   H329      1.0  0.26380  0.94992  0.97310  1.0000
  H   H330      1.0  0.08910  0.76916  0.79170  1.0000
  H   H331      1.0  0.01706  0.72330  0.82781  1.0000
  H   H332      1.0  0.07134  0.80040  0.86301  1.0000
  H   H333      1.0  0.08550  0.86306  0.85794  1.0000
  H   H334      1.0  0.10129  0.87951  0.82003  1.0000
  C   C422      1.0  0.00690  0.73306  0.68641  1.0000
  C   C423      1.0  0.06775  0.66004  0.97196  1.0000
  H   H335      1.0  0.00668  0.81412  0.65543  1.0000
  H   H336      1.0  0.05766  0.52832  0.61391  1.0000
  H   H337      1.0  0.27034  0.51276  0.87047  1.0000
  C   C424      1.0  0.30262  0.51520  0.63443  1.0000
  H   H338      1.0  0.30458  0.61989  0.68060  1.0000
  C   C425      1.0  0.22971  0.51970  0.81240  1.0000
  C   C426      1.0  0.31144  0.66978  0.54749  1.0000
  C   C427      1.0  0.24642  0.51561  0.79672  1.0000
  H   H339      1.0  0.06191  0.83517  0.93995  1.0000
  H   H340      1.0  0.01371  0.67969  0.73562  1.0000
  H   H341      1.0  0.24153  0.55475  0.65209  1.0000
  C   C428      1.0  0.27970  0.55272  0.67210  1.0000
  S   S52       1.0  0.13052  0.49462  0.78717  1.0000
  C   C429      1.0  0.23424  0.56225  0.58053  1.0000
  C   C430      1.0  0.26278  0.94837  0.99298  1.0000
  H   H342      1.0  0.25112  0.65184  0.58114  1.0000
  H   H343      1.0  0.01764  0.83103  0.93822  1.0000
  C   C431      1.0  0.07336  0.63890  0.50957  1.0000
  H   H344      1.0  0.22151  0.60776  0.55553  1.0000
  H   H345      1.0  0.28419  0.50804  0.79510  1.0000
  C   C432      1.0  0.30294  0.50857  0.60861  1.0000
  C   C433      1.0  0.29585  0.54846  0.69625  1.0000
  C   C434      1.0  0.08273  0.69113  0.97265  1.0000
  H   H346      1.0  0.31541  0.54879  0.69817  1.0000
  C   C435      1.0  0.00223  0.53889  0.62793  1.0000
  C   C436      1.0  0.23429  0.59880  0.57287  1.0000
  C   C437      1.0  0.26376  0.51359  0.84982  1.0000
  C   C438      1.0  0.07118  0.78865  0.96492  1.0000
  H   H347      1.0  0.10371  0.67327  0.91921  1.0000
  H   H348      1.0  0.10608  0.72062  0.95259  1.0000
  H   H349      1.0  0.01402  0.74588  0.74577  1.0000
  H   H350      1.0  0.22609  0.54636  0.69114  1.0000
  C   C439      1.0  0.28054  0.51009  0.83415  1.0000
  C   C440      1.0  0.05250  0.62600  0.51710  1.0000
  C   C441      1.0  0.31655  0.59110  0.65031  1.0000
  C   C442      1.0  0.03715  0.75748  0.97634  1.0000
  H   H351      1.0  0.01291  0.72875  0.90668  1.0000
  Fe  Fe27      1.0  0.00440  0.69525  0.57837  1.0000
  S   S53       1.0  0.99569  0.63811  0.58954  1.0000
  C   C443      1.0  0.01602  0.94742  0.93129  1.0000
  C   C444      1.0  0.02866  0.91869  0.98090  1.0000
  C   C445      1.0  0.26828  0.57500  0.61689  1.0000
  C   C446      1.0  0.30653  0.86879  0.98129  1.0000
  H   H352      1.0  0.25098  0.52182  0.60795  1.0000
  C   C447      1.0  0.31208  0.66435  0.52179  1.0000
  C   C448      1.0  0.02572  0.49215  0.65473  1.0000
  H   H353      1.0  0.28103  0.63141  0.61989  1.0000
  C   C449      1.0  0.09603  0.77864  0.51095  1.0000
  H   H354      1.0  0.31236  0.49257  0.67293  1.0000
  H   H355      1.0  0.31913  0.86258  0.94683  1.0000
  S   S54       1.0  0.00402  0.71996  0.61697  1.0000
  H   H356      1.0  0.00484  0.70584  0.50395  1.0000
  H   H357      1.0  0.04853  0.92118  0.92563  1.0000
  S   S55       1.0  0.00433  0.64166  0.66788  1.0000
  C   C450      1.0  0.01385  0.78934  0.66551  1.0000
  C   C451      1.0  0.26183  0.54275  0.71644  1.0000
  C   C452      1.0  0.04272  0.52371  0.62314  1.0000
  C   C453      1.0  0.04496  0.49787  0.64274  1.0000
  S   S56       1.0  0.31215  0.50362  0.84894  1.0000
  C   C454      1.0  0.06640  0.63340  0.95282  1.0000
  H   H358      1.0  0.29719  0.68632  0.55220  1.0000
  H   H359      1.0  0.04501  0.59936  0.51053  1.0000
  C   C455      1.0  0.02168  0.50666  0.73606  1.0000
  C   C456      1.0  0.23444  0.55524  0.49963  1.0000
  H   H360      1.0  0.22145  0.54298  0.56904  1.0000
  C   C457      1.0  0.01226  0.51337  0.70995  1.0000
  C   C458      1.0  0.99809  0.76580  0.67443  1.0000
  H   H361      1.0  0.05678  0.65655  0.98589  1.0000
  C   C459      1.0  0.31833  0.61795  0.66954  1.0000
  C   C460      1.0  0.00128  0.95421  0.94847  1.0000
  H   H362      1.0  0.29837  0.67735  0.50699  1.0000
  S   S57       1.0  0.21268  0.62442  0.49523  1.0000
  H   H363      1.0  0.09518  0.49890  0.49537  1.0000
  Fe  Fe28      1.0  0.48140  0.22572  0.46106  1.0000
  S   S58       1.0  0.44754  0.18975  0.44629  1.0000
  Fe  Fe29      1.0  0.51796  0.28242  0.44964  1.0000
  S   S59       1.0  0.52865  0.31410  0.41735  1.0000
  S   S60       1.0  0.51756  0.22072  0.45074  1.0000
  S   S61       1.0  0.48012  0.28735  0.45644  1.0000
  S   S62       1.0  0.37125  0.03218  0.31431  1.0000
  H   H364      1.0  0.46814  0.43496  0.46893  1.0000
  Fe  Fe30      1.0  0.40291  0.01898  0.34741  1.0000
  S   S63       1.0  0.43525  0.05602  0.36638  1.0000
  C   C461      1.0  0.65867  0.29899  0.05412  1.0000
  H   H365      1.0  0.66031  0.47836  0.03493  1.0000
  Fe  Fe31      1.0  0.62543  0.45287  0.11815  1.0000
  S   S64       1.0  0.59138  0.41761  0.10413  1.0000
  C   C462      1.0  0.54026  0.13022  0.45923  1.0000
  H   H366      1.0  0.33681  0.22213  0.20164  1.0000
  C   C463      1.0  0.35161  0.19067  0.45099  1.0000
  C   C464      1.0  0.36864  0.09022  0.19801  1.0000
  H   H367      1.0  0.64108  0.44386  0.22005  1.0000
  S   S65       1.0  0.57183  0.29848  0.01417  1.0000
  H   H368      1.0  0.44093  0.25289  0.01874  1.0000
  C   C465      1.0  0.42922  0.25409  0.99954  1.0000
  Fe  Fe32      1.0  0.39399  0.01385  0.05546  1.0000
  S   S66       1.0  0.40396  0.05387  0.02628  1.0000
  S   S67       1.0  0.36977  0.02359  0.08310  1.0000
  Fe  Fe33      1.0  0.64668  0.46841  0.35377  1.0000
  H   H369      1.0  0.57854  0.48694  0.05835  1.0000
  Fe  Fe34      1.0  0.63981  0.44347  0.40686  1.0000
  S   S68       1.0  0.53679  0.28877  0.49112  1.0000
  S   S69       1.0  0.62880  0.40309  0.43448  1.0000
  C   C466      1.0  0.53696  0.11443  0.43488  1.0000
  C   C467      1.0  0.51489  0.09972  0.00166  1.0000
  C   C468      1.0  0.45761  0.15116  0.02891  1.0000
  C   C469      1.0  0.45313  0.13699  0.05183  1.0000
  C   C470      1.0  0.43728  0.10674  0.05154  1.0000
  C   C471      1.0  0.42530  0.09069  0.02820  1.0000
  H   H370      1.0  0.52161  0.00359  0.06294  1.0000
  C   C472      1.0  0.55007  0.47796  0.35846  1.0000
  H   H371      1.0  0.34340  0.18076  0.43180  1.0000
  H   H372      1.0  0.43399  0.09627  0.06930  1.0000
  H   H373      1.0  0.47078  0.12626  0.47889  1.0000
  H   H374      1.0  0.62309  0.27814  0.40545  1.0000
  S   S70       1.0  0.53027  0.20975  0.99504  1.0000
  H   H375      1.0  0.35512  0.07999  0.25654  1.0000
  H   H376      1.0  0.45056  0.34730  0.48514  1.0000
  C   C473      1.0  0.58595  0.38637  0.07793  1.0000
  C   C474      1.0  0.60378  0.37824  0.06449  1.0000
  C   C475      1.0  0.59904  0.35164  0.04474  1.0000
  C   C476      1.0  0.57644  0.33314  0.03815  1.0000
  C   C477      1.0  0.55839  0.34206  0.05109  1.0000
  C   C478      1.0  0.56317  0.36848  0.07090  1.0000
  H   H377      1.0  0.62133  0.39196  0.06962  1.0000
  H   H378      1.0  0.61302  0.34508  0.03469  1.0000
  H   H379      1.0  0.54094  0.32804  0.04621  1.0000
  H   H380      1.0  0.54925  0.37467  0.08113  1.0000
  C   C479      1.0  0.36035  0.22671  0.45469  1.0000
  H   H381      1.0  0.39882  0.06357  0.26858  1.0000
  C   C480      1.0  0.44458  0.15238  0.42426  1.0000
  C   C481      1.0  0.42186  0.13436  0.41636  1.0000
  C   C482      1.0  0.41859  0.10492  0.39866  1.0000
  C   C483      1.0  0.43808  0.09300  0.38872  1.0000
  C   C484      1.0  0.46087  0.11070  0.39691  1.0000
  C   C485      1.0  0.46414  0.14016  0.41457  1.0000
  H   H382      1.0  0.40663  0.14344  0.42381  1.0000
  H   H383      1.0  0.40096  0.09160  0.39262  1.0000
  H   H384      1.0  0.47606  0.10178  0.38935  1.0000
  H   H385      1.0  0.48176  0.15352  0.42054  1.0000
  C   C486      1.0  0.36581  0.08074  0.24217  1.0000
  C   C487      1.0  0.55607  0.34006  0.42244  1.0000
  C   C488      1.0  0.56248  0.35737  0.40151  1.0000
  C   C489      1.0  0.58437  0.37775  0.40490  1.0000
  C   C490      1.0  0.60002  0.38086  0.42930  1.0000
  C   C491      1.0  0.59325  0.36434  0.45025  1.0000
  C   C492      1.0  0.57151  0.34392  0.44688  1.0000
  H   H386      1.0  0.55064  0.35455  0.38254  1.0000
  H   H387      1.0  0.58937  0.39037  0.38860  1.0000
  H   H388      1.0  0.60490  0.36729  0.46921  1.0000
  H   H389      1.0  0.56685  0.33095  0.46319  1.0000
  C   C493      1.0  0.41380  0.12785  0.12104  1.0000
  C   C494      1.0  0.64569  0.46028  0.23736  1.0000
  Fe  Fe35      1.0  0.34826  0.99603  0.33374  1.0000
  H   H390      1.0  0.56752  0.04812  0.47827  1.0000
  C   C495      1.0  0.54343  0.41240  0.99703  1.0000
  C   C496      1.0  0.33459  0.30716  0.47746  1.0000
  H   H391      1.0  0.64090  0.20415  0.47807  1.0000
  C   C497      1.0  0.60434  0.14713  0.04553  1.0000
  C   C498      1.0  0.33478  0.06740  0.14869  1.0000
  C   C499      1.0  0.51174  0.06706  0.44709  1.0000
  H   H392      1.0  0.42503  0.00522  0.99486  1.0000
  H   H393      1.0  0.41561  0.06912  0.11714  1.0000
  H   H394      1.0  0.46200  0.14952  0.06997  1.0000
  C   C500      1.0  0.32955  0.06546  0.12174  1.0000
  H   H395      1.0  0.59345  0.21954  0.00495  1.0000
  C   C501      1.0  0.59024  0.45055  0.17415  1.0000
  H   H396      1.0  0.57325  0.00077  0.01546  1.0000
  C   C502      1.0  0.33063  0.20193  0.18661  1.0000
  H   H397      1.0  0.56195  0.24672  0.43566  1.0000
  H   H398      1.0  0.63263  0.42004  0.26057  1.0000
  S   S71       1.0  0.61565  0.47270  0.37382  1.0000
  Fe  Fe36      1.0  0.49211  0.22023  0.99972  1.0000
  H   H399      1.0  0.52485  0.36086  0.46164  1.0000
  S   S72       1.0  0.65761  0.43966  0.15071  1.0000
  C   C503      1.0  0.62712  0.44802  0.01940  1.0000
  H   H400      1.0  0.63865  0.11913  0.05737  1.0000
  H   H401      1.0  0.38366  0.05659  0.14053  1.0000
  H   H402      1.0  0.34710  0.13927  0.46907  1.0000
  H   H403      1.0  0.56758  0.41401  0.14689  1.0000
  H   H404      1.0  0.60526  0.43145  0.17894  1.0000
  C   C504      1.0  0.52275  0.08275  0.42883  1.0000
  H   H405      1.0  0.57300  0.18089  0.03108  1.0000
  C   C505      1.0  0.54806  0.00623  0.03968  1.0000
  C   C506      1.0  0.45873  0.04761  0.45696  1.0000
  H   H406      1.0  0.47075  0.99571  0.36408  1.0000
  C   C507      1.0  0.55339  0.99463  0.46497  1.0000
  H   H407      1.0  0.47791  0.02698  0.00652  1.0000
  C   C508      1.0  0.49818  0.45901  0.45581  1.0000
  H   H408      1.0  0.37659  0.17260  0.15227  1.0000
  H   H409      1.0  0.36114  0.16652  0.20030  1.0000
  H   H410      1.0  0.50112  0.04235  0.44211  1.0000
  C   C509      1.0  0.45526  0.41688  0.00174  1.0000
  H   H411      1.0  0.54085  0.42098  0.36114  1.0000
  H   H412      1.0  0.59516  0.13029  0.05704  1.0000
  S   S73       1.0  0.49855  0.28143  0.00418  1.0000
  C   C510      1.0  0.60355  0.19745  0.01594  1.0000
  P   P16       1.0  0.35451  0.10343  0.16542  1.0000
  H   H413      1.0  0.33085  0.02261  0.26680  1.0000
  H   H414      1.0  0.45702  0.39277  0.01380  1.0000
  H   H415      1.0  0.46497  0.00325  0.40799  1.0000
  C   C511      1.0  0.50155  0.06717  0.99458  1.0000
  C   C512      1.0  0.61540  0.27239  0.42176  1.0000
  H   H416      1.0  0.64427  0.34449  0.47259  1.0000
  H   H417      1.0  0.40820  0.18479  0.12835  1.0000
  S   S74       1.0  0.41327  0.99527  0.15295  1.0000
  H   H418      1.0  0.57952  0.25990  0.39851  1.0000
  C   C513      1.0  0.40693  0.09176  0.12463  1.0000
  H   H419      1.0  0.40445  0.07990  0.19104  1.0000
  C   C514      1.0  0.62809  0.19115  0.01579  1.0000
  S   S75       1.0  0.47760  0.18969  0.03061  1.0000
  C   C515      1.0  0.64701  0.46746  0.28335  1.0000
  C   C516      1.0  0.53860  0.45088  0.39522  1.0000
  C   C517      1.0  0.62980  0.27623  0.44673  1.0000
  C   C518      1.0  0.64072  0.16298  0.03111  1.0000
  C   C519      1.0  0.59092  0.26191  0.41781  1.0000
  C   C520      1.0  0.59180  0.17552  0.03079  1.0000
  C   C521      1.0  0.44603  0.13459  0.00560  1.0000
  H   H420      1.0  0.48528  0.37229  0.47228  1.0000
  H   H421      1.0  0.52676  0.14041  0.03129  1.0000
  C   C522      1.0  0.43883  0.44449  0.00406  1.0000
  H   H422      1.0  0.53414  0.45867  0.13404  1.0000
  H   H423      1.0  0.54536  0.12687  0.42072  1.0000
  H   H424      1.0  0.41089  0.24292  0.45397  1.0000
  H   H425      1.0  0.41660  0.39148  0.48133  1.0000
  S   S76       1.0  0.63985  0.44919  0.31166  1.0000
  C   C523      1.0  0.40276  0.15683  0.13106  1.0000
  H   H426      1.0  0.33578  0.09736  0.21184  1.0000
  C   C524      1.0  0.35493  0.09026  0.21682  1.0000
  H   H427      1.0  0.34901  0.48539  0.46443  1.0000
  P   P17       1.0  0.64375  0.22034  0.99750  1.0000
  H   H428      1.0  0.52006  0.07048  0.40991  1.0000
  H   H429      1.0  0.63631  0.42213  0.01905  1.0000
  H   H430      1.0  0.55146  0.15462  0.46395  1.0000
  H   H431      1.0  0.33754  0.08492  0.11079  1.0000
  H   H432      1.0  0.35861  0.24446  0.43819  1.0000
  C   C525      1.0  0.57245  0.47129  0.48605  1.0000
  C   C526      1.0  0.56961  0.01876  0.48089  1.0000
  C   C527      1.0  0.39467  0.33290  0.44715  1.0000
  C   C528      1.0  0.40538  0.34167  0.42684  1.0000
  C   C529      1.0  0.41779  0.31489  0.41630  1.0000
  C   C530      1.0  0.41942  0.27931  0.42602  1.0000
  C   C531      1.0  0.40906  0.27061  0.44655  1.0000
  C   C532      1.0  0.43780  0.02751  0.44546  1.0000
  C   C533      1.0  0.64101  0.44677  0.26045  1.0000
  H   H433      1.0  0.55040  0.03569  0.04166  1.0000
  H   H434      1.0  0.64519  0.24377  0.05078  1.0000
  H   H435      1.0  0.58691  0.25348  0.47973  1.0000
  C   C534      1.0  0.35370  0.16728  0.47200  1.0000
  H   H436      1.0  0.40412  0.36929  0.41932  1.0000
  H   H437      1.0  0.42627  0.32166  0.40071  1.0000
  C   C535      1.0  0.58957  0.48296  0.01230  1.0000
  C   C536      1.0  0.51744  0.38828  0.46004  1.0000
  C   C537      1.0  0.38885  0.08467  0.13795  1.0000
  Fe  Fe37      1.0  0.53528  0.27115  0.99634  1.0000
  H   H438      1.0  0.42911  0.25844  0.41796  1.0000
  C   C538      1.0  0.34432  0.17028  0.18585  1.0000
  C   C539      1.0  0.38477  0.14976  0.14458  1.0000
  H   H439      1.0  0.65686  0.30205  0.07372  1.0000
  C   C540      1.0  0.51435  0.08332  0.47137  1.0000
  C   C541      1.0  0.55016  0.46607  0.14875  1.0000
  C   C542      1.0  0.40434  0.07202  0.23054  1.0000
  H   H440      1.0  0.54793  0.41158  0.44805  1.0000
  H   H441      1.0  0.53933  0.00570  0.44973  1.0000
  C   C543      1.0  0.48538  0.43006  0.46388  1.0000
  C   C544      1.0  0.33645  0.14390  0.16646  1.0000
  H   H442      1.0  0.42339  0.06430  0.23579  1.0000
  C   C545      1.0  0.58097  0.25458  0.43880  1.0000
  C   C546      1.0  0.62881  0.14088  0.04572  1.0000
  H   H443      1.0  0.32952  0.28016  0.46955  1.0000
  C   C547      1.0  0.39665  0.29736  0.45739  1.0000
  H   H444      1.0  0.53331  0.42663  0.40410  1.0000
  C   C548      1.0  0.37164  0.23943  0.47943  1.0000
  C   C549      1.0  0.61953  0.27091  0.46799  1.0000
  C   C550      1.0  0.39051  0.07163  0.24903  1.0000
  C   C551      1.0  0.49500  0.39473  0.46590  1.0000
  H   H445      1.0  0.55219  0.41008  0.01728  1.0000
  C   C552      1.0  0.49183  0.06583  0.03644  1.0000
  C   C553      1.0  0.50578  0.09759  0.04360  1.0000
  C   C554      1.0  0.51718  0.11462  0.02618  1.0000
  C   C555      1.0  0.52070  0.45262  0.44951  1.0000
  S   S77       1.0  0.64844  0.47449  0.09250  1.0000
  C   C556      1.0  0.39344  0.08086  0.20507  1.0000
  H   H446      1.0  0.46333  0.07154  0.44710  1.0000
  C   C557      1.0  0.54845  0.48924  0.07623  1.0000
  H   H447      1.0  0.42770  0.13329  0.11052  1.0000
  H   H448      1.0  0.43186  0.47674  0.48753  1.0000
  C   C558      1.0  0.53031  0.41705  0.45206  1.0000
  C   C559      1.0  0.64063  0.47965  0.02830  1.0000
  C   C560      1.0  0.56885  0.48808  0.46186  1.0000
  H   H449      1.0  0.42782  0.44189  0.01805  1.0000
  C   C561      1.0  0.42977  0.10487  0.00529  1.0000
  C   C562      1.0  0.37751  0.11354  0.14787  1.0000
  P   P18       1.0  0.38338  0.28577  0.48405  1.0000
  C   C563      1.0  0.54275  0.44751  0.37058  1.0000
  H   H450      1.0  0.42699  0.03543  0.42673  1.0000
  C   C564      1.0  0.60167  0.44961  0.01136  1.0000
  H   H451      1.0  0.48190  0.05382  0.04948  1.0000
  H   H452      1.0  0.50667  0.11017  0.06216  1.0000
  C   C565      1.0  0.59517  0.25896  0.46380  1.0000
  C   C566      1.0  0.56903  0.44079  0.15599  1.0000
  C   C567      1.0  0.47334  0.03694  0.48085  1.0000
  H   H453      1.0  0.55727  0.45965  0.49255  1.0000
  C   C568      1.0  0.52896  0.11489  0.47742  1.0000
  H   H454      1.0  0.59170  0.42471  0.00467  1.0000
  C   C569      1.0  0.48961  0.05071  0.01198  1.0000
  H   H455      1.0  0.38505  0.35405  0.45482  1.0000
  H   H456      1.0  0.65982  0.15813  0.03200  1.0000
  C   C570      1.0  0.35924  0.31745  0.48597  1.0000
  C   C571      1.0  0.65200  0.26592  0.04096  1.0000
  H   H457      1.0  0.56021  0.48844  0.09542  1.0000
  H   H458      1.0  0.55403  0.47503  0.33972  1.0000
  C   C572      1.0  0.65358  0.26212  0.01529  1.0000
  H   H459      1.0  0.64877  0.28389  0.44926  1.0000
  C   C573      1.0  0.59241  0.48534  0.18545  1.0000
  H   H460      1.0  0.49060  0.48619  0.45521  1.0000
  C   C574      1.0  0.54181  0.48489  0.40801  1.0000
  Fe  Fe38      1.0  0.53387  0.22739  0.49316  1.0000
  C   C575      1.0  0.54390  0.48869  0.02998  1.0000
  C   C576      1.0  0.55886  0.48842  0.05498  1.0000
  P   P19       1.0  0.55675  0.48615  0.00219  1.0000
  H   H461      1.0  0.41656  0.19856  0.00038  1.0000
  P   P20       1.0  0.53865  0.48976  0.44073  1.0000
  H   H462      1.0  0.43533  0.99227  0.20699  1.0000
  C   C577      1.0  0.43078  0.99733  0.45805  1.0000
  H   H463      1.0  0.50664  0.48869  0.00745  1.0000
  H   H464      1.0  0.65041  0.99430  0.03023  1.0000
  C   C578      1.0  0.51843  0.48918  0.02660  1.0000
  H   H465      1.0  0.51513  0.49049  0.08923  1.0000
  C   C579      1.0  0.52310  0.49014  0.07271  1.0000
  C   C580      1.0  0.50808  0.49003  0.04790  1.0000
  H   H466      1.0  0.48843  0.49017  0.04516  1.0000
  C   C581      1.0  0.48252  0.10922  0.92912  1.0000
  C   C582      1.0  0.58680  0.01925  0.80405  1.0000
  C   C583      1.0  0.58576  0.33204  0.54454  1.0000
  S   S78       1.0  0.56758  0.19368  0.51024  1.0000
  S   S79       1.0  0.65038  0.05194  0.81612  1.0000
  S   S80       1.0  0.49234  0.33144  0.52788  1.0000
  C   C584      1.0  0.64443  0.99847  0.73601  1.0000
  S   S81       1.0  0.40141  0.43901  0.51688  1.0000
  S   S82       1.0  0.35911  0.45999  0.56543  1.0000
  S   S83       1.0  0.61553  0.03009  0.87323  1.0000
  H   H467      1.0  0.60323  0.24796  0.52886  1.0000
  Fe  Fe39      1.0  0.63760  0.06058  0.90727  1.0000
  S   S84       1.0  0.62571  0.10372  0.93270  1.0000
  Fe  Fe40      1.0  0.64893  0.03179  0.85661  1.0000
  C   C585      1.0  0.65367  0.22934  0.54124  1.0000
  C   C586      1.0  0.48725  0.12665  0.55338  1.0000
  Fe  Fe41      1.0  0.51429  0.21731  0.95296  1.0000
  S   S85       1.0  0.52282  0.18172  0.92124  1.0000
  Fe  Fe42      1.0  0.48471  0.28465  0.96112  1.0000
  S   S86       1.0  0.46127  0.33526  0.94786  1.0000
  S   S87       1.0  0.52195  0.27784  0.95365  1.0000
  S   S88       1.0  0.47553  0.22409  0.95730  1.0000
  C   C587      1.0  0.44184  0.13490  0.91985  1.0000
  S   S89       1.0  0.35057  0.45907  0.80185  1.0000
  Fe  Fe43      1.0  0.38810  0.45061  0.82792  1.0000
  S   S90       1.0  0.40705  0.39531  0.83709  1.0000
  H   H468      1.0  0.42239  0.45171  0.76227  1.0000
  C   C588      1.0  0.54796  0.05048  0.96956  1.0000
  Fe  Fe44      1.0  0.61547  0.05005  0.62053  1.0000
  S   S91       1.0  0.58510  0.09219  0.60949  1.0000
  C   C589      1.0  0.54336  0.00824  0.79733  1.0000
  S   S92       1.0  0.64800  0.05607  0.65412  1.0000
  C   C590      1.0  0.44699  0.35197  0.91680  1.0000
  C   C591      1.0  0.44932  0.33442  0.89427  1.0000
  C   C592      1.0  0.43709  0.34813  0.87009  1.0000
  C   C593      1.0  0.42278  0.37995  0.86807  1.0000
  C   C594      1.0  0.42072  0.39779  0.89063  1.0000
  C   C595      1.0  0.43268  0.38379  0.91482  1.0000
  H   H469      1.0  0.46057  0.31034  0.89544  1.0000
  H   H470      1.0  0.43881  0.33406  0.85280  1.0000
  H   H471      1.0  0.40946  0.42189  0.88943  1.0000
  H   H472      1.0  0.43068  0.39758  0.93210  1.0000
  C   C596      1.0  0.59620  0.12258  0.92948  1.0000
  C   C597      1.0  0.57871  0.12192  0.90614  1.0000
  C   C598      1.0  0.55615  0.13963  0.90402  1.0000
  C   C599      1.0  0.55094  0.15830  0.92510  1.0000
  C   C600      1.0  0.56820  0.15815  0.94858  1.0000
  C   C601      1.0  0.59064  0.14023  0.95076  1.0000
  H   H473      1.0  0.58273  0.10837  0.88964  1.0000
  H   H474      1.0  0.54285  0.13946  0.88582  1.0000
  H   H475      1.0  0.56446  0.17237  0.96495  1.0000
  H   H476      1.0  0.60392  0.14072  0.96894  1.0000
  C   C602      1.0  0.64772  0.03030  0.78550  1.0000
  H   H477      1.0  0.64738  0.08181  0.76582  1.0000
  C   C603      1.0  0.64499  0.03660  0.73915  1.0000
  H   H478      1.0  0.35129  0.40457  0.50584  1.0000
  C   C604      1.0  0.61820  0.29913  0.51868  1.0000
  H   H479      1.0  0.46342  0.42617  0.76417  1.0000
  C   C605      1.0  0.45106  0.08129  0.94689  1.0000
  H   H480      1.0  0.38002  0.00544  0.98022  1.0000
  C   C606      1.0  0.36057  0.18811  0.90973  1.0000
  H   H481      1.0  0.63310  0.19107  0.94395  1.0000
  C   C607      1.0  0.46676  0.36088  0.52461  1.0000
  C   C608      1.0  0.46427  0.38226  0.54576  1.0000
  C   C609      1.0  0.44440  0.40627  0.54390  1.0000
  C   C610      1.0  0.42699  0.40953  0.52067  1.0000
  H   H482      1.0  0.65397  0.25289  0.55367  1.0000
  C   C611      1.0  0.46627  0.15337  0.51302  1.0000
  H   H483      1.0  0.47767  0.37999  0.56379  1.0000
  H   H484      1.0  0.44257  0.42222  0.56039  1.0000
  H   H485      1.0  0.60058  0.02375  0.51320  1.0000
  C   C612      1.0  0.57167  0.16512  0.53758  1.0000
  C   C613      1.0  0.55435  0.16279  0.55243  1.0000
  C   C614      1.0  0.55876  0.14042  0.57443  1.0000
  C   C615      1.0  0.58034  0.11993  0.58163  1.0000
  C   C616      1.0  0.59743  0.12180  0.56648  1.0000
  C   C617      1.0  0.59312  0.14438  0.54462  1.0000
  H   H486      1.0  0.53771  0.17846  0.54714  1.0000
  H   H487      1.0  0.54541  0.13899  0.58597  1.0000
  H   H488      1.0  0.61409  0.10617  0.57178  1.0000
  H   H489      1.0  0.60654  0.14595  0.53317  1.0000
  C   C618      1.0  0.54071  0.04263  0.80798  1.0000
  C   C619      1.0  0.52791  0.40565  0.55953  1.0000
  C   C620      1.0  0.38230  0.45910  0.69046  1.0000
  S   S93       1.0  0.60501  0.99414  0.63257  1.0000
  H   H490      1.0  0.50688  0.07728  0.55109  1.0000
  H   H491      1.0  0.43920  0.30965  0.99286  1.0000
  H   H492      1.0  0.36757  0.36096  0.85527  1.0000
  P   P21       1.0  0.38368  0.25656  0.91580  1.0000
  C   C621      1.0  0.37379  0.30255  0.90602  1.0000
  C   C622      1.0  0.40024  0.25612  0.94912  1.0000
  C   C623      1.0  0.41370  0.28708  0.95998  1.0000
  H   H493      1.0  0.52296  0.11417  0.98798  1.0000
  C   C624      1.0  0.54643  0.04147  0.91736  1.0000
  H   H494      1.0  0.48155  0.39815  0.98137  1.0000
  C   C625      1.0  0.43635  0.47517  0.98808  1.0000
  H   H495      1.0  0.46572  0.17581  0.55010  1.0000
  H   H496      1.0  0.47487  0.00122  0.51344  1.0000
  H   H497      1.0  0.50743  0.04275  0.91151  1.0000
  H   H498      1.0  0.38164  0.29885  0.86827  1.0000
  H   H499      1.0  0.43454  0.26133  0.49647  1.0000
  C   C626      1.0  0.40379  0.24079  0.89628  1.0000
  C   C627      1.0  0.39438  0.22277  0.87279  1.0000
  C   C628      1.0  0.41012  0.21008  0.85803  1.0000
  C   C629      1.0  0.43531  0.21548  0.86652  1.0000
  C   C630      1.0  0.44474  0.23399  0.88960  1.0000
  C   C631      1.0  0.42902  0.24699  0.90427  1.0000
  C   C632      1.0  0.52624  0.42980  0.57933  1.0000
  S   S94       1.0  0.65233  0.00969  0.92874  1.0000
  C   C633      1.0  0.35720  0.36114  0.91529  1.0000
  C   C634      1.0  0.37323  0.21601  0.50050  1.0000
  H   H500      1.0  0.36412  0.31619  0.94173  1.0000
  H   H501      1.0  0.41371  0.31176  0.94882  1.0000
  P   P22       1.0  0.50093  0.06229  0.49536  1.0000
  C   C635      1.0  0.35806  0.37381  0.89092  1.0000
  H   H502      1.0  0.53163  0.12781  0.49613  1.0000
  C   C636      1.0  0.44418  0.28769  0.55881  1.0000
  H   H503      1.0  0.65170  0.14370  0.49772  1.0000
  C   C637      1.0  0.37644  0.47189  0.71318  1.0000
  C   C638      1.0  0.43643  0.46870  0.75727  1.0000
  C   C639      1.0  0.35754  0.22617  0.91154  1.0000
  H   H504      1.0  0.38479  0.31074  0.53697  1.0000
  H   H505      1.0  0.37490  0.21886  0.86574  1.0000
  H   H506      1.0  0.40280  0.19636  0.83986  1.0000
  H   H507      1.0  0.44755  0.20584  0.85507  1.0000
  H   H508      1.0  0.46426  0.23871  0.89602  1.0000
  H   H509      1.0  0.43662  0.26232  0.92166  1.0000
  H   H510      1.0  0.51930  0.48480  0.58958  1.0000
  C   C640      1.0  0.36439  0.18001  0.49674  1.0000
  H   H511      1.0  0.52853  0.41964  0.59873  1.0000
  H   H512      1.0  0.58719  0.04936  0.97493  1.0000
  H   H513      1.0  0.36599  0.16187  0.51302  1.0000
  C   C641      1.0  0.40261  0.30062  0.53627  1.0000
  C   C642      1.0  0.62096  0.21348  0.94502  1.0000
  H   H514      1.0  0.57501  0.27683  0.55142  1.0000
  C   C643      1.0  0.43037  0.27253  0.51364  1.0000
  C   C644      1.0  0.58833  0.00509  0.50047  1.0000
  C   C645      1.0  0.58402  0.05388  0.81417  1.0000
  H   H515      1.0  0.60667  0.27731  0.98565  1.0000
  C   C646      1.0  0.56103  0.06549  0.81634  1.0000
  C   C647      1.0  0.58696  0.29391  0.54311  1.0000
  H   H516      1.0  0.57725  0.04756  0.56241  1.0000
  H   H517      1.0  0.57472  0.29107  0.94714  1.0000
  C   C648      1.0  0.46584  0.13555  0.91699  1.0000
  C   C649      1.0  0.65907  0.16408  0.53655  1.0000
  C   C650      1.0  0.53098  0.44836  0.95827  1.0000
  H   H518      1.0  0.41600  0.10764  0.93754  1.0000
  C   C651      1.0  0.44919  0.36393  0.50148  1.0000
  H   H519      1.0  0.45714  0.01218  0.92521  1.0000
  C   C652      1.0  0.53268  0.38125  0.98364  1.0000
  C   C653      1.0  0.56966  0.04772  0.96127  1.0000
  H   H520      1.0  0.45235  0.46839  0.86482  1.0000
  H   H521      1.0  0.59985  0.07154  0.82056  1.0000
  H   H522      1.0  0.43175  0.48016  0.89957  1.0000
  C   C654      1.0  0.37889  0.48130  0.66847  1.0000
  C   C655      1.0  0.62256  0.23322  0.96793  1.0000
  H   H523      1.0  0.38150  0.22531  0.51981  1.0000
  C   C656      1.0  0.34655  0.37741  0.49781  1.0000
  H   H524      1.0  0.46662  0.26236  0.53640  1.0000
  H   H525      1.0  0.36210  0.47359  0.91578  1.0000
  C   C657      1.0  0.64631  0.20207  0.49878  1.0000
  H   H526      1.0  0.42920  0.15592  0.91092  1.0000
  H   H527      1.0  0.35244  0.40150  0.88512  1.0000
  C   C658      1.0  0.60304  0.27755  0.53022  1.0000
  H   H528      1.0  0.41767  0.31319  0.57621  1.0000
  C   C659      1.0  0.42818  0.28601  0.98503  1.0000
  C   C660      1.0  0.51913  0.45535  0.52901  1.0000
  C   C661      1.0  0.52104  0.38364  0.95764  1.0000
  H   H529      1.0  0.63408  0.48145  0.50637  1.0000
  C   C662      1.0  0.51723  0.47978  0.54875  1.0000
  H   H530      1.0  0.55903  0.09215  0.82455  1.0000
  C   C663      1.0  0.47242  0.15404  0.53984  1.0000
  C   C664      1.0  0.64682  0.05231  0.76372  1.0000
  H   H531      1.0  0.46779  0.47572  0.52379  1.0000
  H   H532      1.0  0.51060  0.41906  0.92494  1.0000
  C   C665      1.0  0.54446  0.05357  0.53242  1.0000
  C   C666      1.0  0.52093  0.46677  0.57401  1.0000
  H   H533      1.0  0.64827  0.14710  0.97702  1.0000
  C   C667      1.0  0.56231  0.03357  0.54942  1.0000
  H   H534      1.0  0.50127  0.11128  0.92751  1.0000
  C   C668      1.0  0.58780  0.26970  0.94637  1.0000
  H   H535      1.0  0.35072  0.37900  0.92842  1.0000
  H   H536      1.0  0.57131  0.25456  0.90722  1.0000
  C   C669      1.0  0.37458  0.31556  0.88156  1.0000
  C   C670      1.0  0.36502  0.35285  0.49603  1.0000
  H   H537      1.0  0.52288  0.05166  0.80966  1.0000
  H   H538      1.0  0.54599  0.03813  0.89715  1.0000
  C   C671      1.0  0.65244  0.16768  0.50985  1.0000
  S   S95       1.0  0.63751  0.02808  0.59415  1.0000
  H   H539      1.0  0.60479  0.01053  0.80278  1.0000
  H   H540      1.0  0.62854  0.35493  0.51200  1.0000
  H   H541      1.0  0.38926  0.43164  0.68983  1.0000
  H   H542      1.0  0.38385  0.36146  0.50274  1.0000
  C   C672      1.0  0.44864  0.27268  0.53637  1.0000
  C   C673      1.0  0.56889  0.04299  0.93521  1.0000
  H   H543      1.0  0.54586  0.08320  0.53259  1.0000
  H   H544      1.0  0.58574  0.04093  0.92881  1.0000
  S   S96       1.0  0.38594  0.46344  0.64007  1.0000
  H   H545      1.0  0.51610  0.46479  0.50942  1.0000
  C   C674      1.0  0.42113  0.30149  0.55880  1.0000
  C   C675      1.0  0.41558  0.22332  0.98908  1.0000
  C   C676      1.0  0.46923  0.41999  0.98350  1.0000
  H   H546      1.0  0.54901  0.05344  0.98985  1.0000
  C   C677      1.0  0.40125  0.22417  0.96394  1.0000
  H   H547      1.0  0.47751  0.45198  0.95320  1.0000
  C   C678      1.0  0.60601  0.26177  0.96824  1.0000
  C   C679      1.0  0.48577  0.00349  0.95951  1.0000
  H   H548      1.0  0.58622  0.01564  0.75370  1.0000
  H   H549      1.0  0.59861  0.45503  0.52033  1.0000
  C   C680      1.0  0.64676  0.23314  0.51442  1.0000
  C   C681      1.0  0.52528  0.04938  0.95170  1.0000
  C   C682      1.0  0.58596  0.24930  0.92389  1.0000
  H   H550      1.0  0.59039  0.02346  0.70945  1.0000
  H   H551      1.0  0.42046  0.09282  0.98716  1.0000
  C   C683      1.0  0.61716  0.33747  0.52059  1.0000
  H   H552      1.0  0.47183  0.15715  0.90598  1.0000
  C   C684      1.0  0.45044  0.47853  0.96975  1.0000
  C   C685      1.0  0.52469  0.04439  0.92556  1.0000
  H   H553      1.0  0.59991  0.38337  0.53436  1.0000
  H   H554      1.0  0.57289  0.34461  0.55409  1.0000
  C   C686      1.0  0.47759  0.47633  0.75188  1.0000
  C   C687      1.0  0.47545  0.12594  0.49971  1.0000
  C   C688      1.0  0.54302  0.44613  0.98436  1.0000
  C   C689      1.0  0.34063  0.16432  0.90747  1.0000
  C   C690      1.0  0.46520  0.00808  0.49410  1.0000
  H   H555      1.0  0.34311  0.13499  0.90624  1.0000
  C   C691      1.0  0.65971  0.19490  0.55223  1.0000
  Fe  Fe45      1.0  0.49897  0.29005  0.49821  1.0000
  H   H556      1.0  0.51236  0.35963  0.94738  1.0000
  H   H557      1.0  0.52956  0.47401  0.94810  1.0000
  H   H558      1.0  0.45469  0.17445  0.50241  1.0000
  H   H559      1.0  0.60098  0.20509  0.90590  1.0000
  C   C692      1.0  0.43443  0.10771  0.93477  1.0000
  H   H560      1.0  0.53119  0.37675  0.56349  1.0000
  C   C693      1.0  0.46684  0.45062  0.96751  1.0000
  H   H561      1.0  0.44934  0.14505  0.98785  1.0000
  C   C694      1.0  0.49043  0.09840  0.51313  1.0000
  C   C695      1.0  0.47517  0.08164  0.94394  1.0000
  H   H562      1.0  0.37875  0.45422  0.72974  1.0000
  H   H563      1.0  0.45871  0.28901  0.57609  1.0000
  P   P23       1.0  0.63756  0.27737  0.50043  1.0000
  H   H564      1.0  0.44532  0.06118  0.95916  1.0000
  C   C696      1.0  0.60092  0.35381  0.53337  1.0000
  P   P24       1.0  0.49703  0.05010  0.96216  1.0000
  S   S97       1.0  0.49770  0.22884  0.50379  1.0000
  Fe  Fe46      1.0  0.38961  0.47512  0.54677  1.0000
  H   H565      1.0  0.52512  0.39934  0.51905  1.0000
  C   C697      1.0  0.36657  0.35092  0.87405  1.0000
  C   C698      1.0  0.36492  0.32561  0.92279  1.0000
  H   H566      1.0  0.37843  0.17679  0.91035  1.0000
  C   C699      1.0  0.52443  0.41844  0.53440  1.0000
  C   C700      1.0  0.46194  0.48320  0.88185  1.0000
  C   C701      1.0  0.45955  0.45434  0.75833  1.0000
  C   C702      1.0  0.52476  0.03551  0.51589  1.0000
  H   H567      1.0  0.39141  0.19965  0.95619  1.0000
  C   C703      1.0  0.61585  0.48371  0.49422  1.0000
  H   H568      1.0  0.64399  0.05399  0.72264  1.0000
  H   H569      1.0  0.49205  0.12711  0.57419  1.0000
  C   C704      1.0  0.59589  0.46873  0.50199  1.0000
  C   C705      1.0  0.49594  0.09860  0.54012  1.0000
  C   C706      1.0  0.60270  0.22148  0.92315  1.0000
  H   H570      1.0  0.40568  0.46623  0.93663  1.0000
  C   C707      1.0  0.40725  0.28698  0.51330  1.0000
  C   C708      1.0  0.52010  0.41719  0.94499  1.0000
  Fe  Fe47      1.0  0.63937  0.99864  0.66447  1.0000
  C   C709      1.0  0.46613  0.99265  0.93941  1.0000
  H   H571      1.0  0.49549  0.46511  0.75265  1.0000
  C   C710      1.0  0.33428  0.23992  0.91134  1.0000
  C   C711      1.0  0.42975  0.38867  0.49943  1.0000
  C   C712      1.0  0.52426  0.99694  0.51552  1.0000
  H   H572      1.0  0.33139  0.26899  0.91304  1.0000
  C   C713      1.0  0.56082  0.99544  0.55002  1.0000
  S   S98       1.0  0.38206  0.48916  0.85827  1.0000
  C   C714      1.0  0.58321  0.99794  0.71507  1.0000
  H   H573      1.0  0.32872  0.43542  0.65999  1.0000
  H   H574      1.0  0.32893  0.42420  0.61442  1.0000
  C   C715      1.0  0.45020  0.49008  0.90162  1.0000
  C   C716      1.0  0.56649  0.99633  0.79526  1.0000
  Fe  Fe48      1.0  0.38031  0.49027  0.60048  1.0000
  C   C717      1.0  0.64682  0.99219  0.78229  1.0000
  C   C718      1.0  0.58083  0.99327  0.74026  1.0000
  H   H575      1.0  0.53328  0.35521  0.99347  1.0000
  S   S99       1.0  0.53986  0.65995  0.02613  1.0000
  Fe  Fe49      1.0  0.38941  0.93858  0.34712  1.0000
  S   S100      1.0  0.39643  0.88333  0.36762  1.0000
  H   H576      1.0  0.48147  0.90858  0.02465  1.0000
  S   S101      1.0  0.35671  0.94527  0.31398  1.0000
  Fe  Fe50      1.0  0.34977  0.97166  0.06664  1.0000
  Fe  Fe51      1.0  0.64379  0.52917  0.11032  1.0000
  S   S102      1.0  0.63810  0.58138  0.08600  1.0000
  H   H577      1.0  0.43843  0.96514  0.49259  1.0000
  H   H578      1.0  0.49091  0.56163  0.19808  1.0000
  C   C719      1.0  0.57322  0.51044  0.17902  1.0000
  S   S103      1.0  0.50604  0.70412  0.44772  1.0000
  C   C720      1.0  0.55809  0.94815  0.02243  1.0000
  C   C721      1.0  0.47609  0.87275  0.46517  1.0000
  S   S104      1.0  0.54474  0.76782  0.47463  1.0000
  Fe  Fe52      1.0  0.50650  0.76584  0.44918  1.0000
  S   S105      1.0  0.49771  0.80272  0.41371  1.0000
  Fe  Fe53      1.0  0.54238  0.70592  0.47586  1.0000
  C   C722      1.0  0.50102  0.60046  0.44598  1.0000
  H   H579      1.0  0.33403  0.91249  0.23750  1.0000
  H   H580      1.0  0.48400  0.58778  0.02879  1.0000
  Fe  Fe54      1.0  0.65351  0.49646  0.16543  1.0000
  S   S106      1.0  0.37439  0.93552  0.09544  1.0000
  H   H581      1.0  0.44559  0.92101  0.19867  1.0000
  H   H582      1.0  0.49298  0.97314  0.44467  1.0000
  Fe  Fe55      1.0  0.39813  0.93180  0.06716  1.0000
  S   S107      1.0  0.41171  0.87460  0.06085  1.0000
  S   S108      1.0  0.37204  0.96426  0.03726  1.0000
  H   H583      1.0  0.59533  0.61588  0.11693  1.0000
  S   S109      1.0  0.60750  0.57208  0.39106  1.0000
  C   C723      1.0  0.58195  0.63723  0.45411  1.0000
  C   C724      1.0  0.60336  0.61614  0.46050  1.0000
  C   C725      1.0  0.61112  0.59507  0.44173  1.0000
  C   C726      1.0  0.59754  0.59491  0.41625  1.0000
  C   C727      1.0  0.57575  0.61504  0.41008  1.0000
  C   C728      1.0  0.56790  0.63587  0.42888  1.0000
  H   H584      1.0  0.61802  0.60886  0.27717  1.0000
  H   H585      1.0  0.62798  0.57992  0.44680  1.0000
  H   H586      1.0  0.56496  0.61447  0.39057  1.0000
  H   H587      1.0  0.55113  0.65116  0.42392  1.0000
  H   H588      1.0  0.37983  0.81357  0.00135  1.0000
  H   H589      1.0  0.49252  0.52015  0.41267  1.0000
  H   H590      1.0  0.53069  0.53118  0.20227  1.0000
  H   H591      1.0  0.45837  0.86292  0.45463  1.0000
  H   H592      1.0  0.60924  0.49299  0.19887  1.0000
  C   C729      1.0  0.35682  0.73694  0.17967  1.0000
  H   H593      1.0  0.46629  0.53263  0.00484  1.0000
  H   H594      1.0  0.48556  0.62625  0.18353  1.0000
  C   C730      1.0  0.35722  0.66383  0.47656  1.0000
  P   P25       1.0  0.57708  0.55581  0.19290  1.0000
  C   C731      1.0  0.42517  0.86292  0.38132  1.0000
  C   C732      1.0  0.44677  0.87406  0.37482  1.0000
  C   C733      1.0  0.46880  0.85535  0.38486  1.0000
  C   C734      1.0  0.46967  0.82599  0.40205  1.0000
  C   C735      1.0  0.44821  0.81539  0.40897  1.0000
  C   C736      1.0  0.42609  0.83351  0.39846  1.0000
  H   H595      1.0  0.44639  0.89658  0.36164  1.0000
  H   H596      1.0  0.48528  0.86384  0.37939  1.0000
  H   H597      1.0  0.44857  0.79283  0.42211  1.0000
  H   H598      1.0  0.40953  0.82461  0.40360  1.0000
  P   P26       1.0  0.33210  0.63650  0.48250  1.0000
  C   C737      1.0  0.56745  0.63730  0.04120  1.0000
  C   C738      1.0  0.59046  0.65188  0.04122  1.0000
  C   C739      1.0  0.61180  0.63405  0.05468  1.0000
  C   C740      1.0  0.61050  0.60132  0.06816  1.0000
  C   C741      1.0  0.58749  0.58615  0.06758  1.0000
  C   C742      1.0  0.56613  0.60416  0.05430  1.0000
  H   H599      1.0  0.59183  0.67726  0.03124  1.0000
  H   H600      1.0  0.62946  0.64598  0.05488  1.0000
  H   H601      1.0  0.58616  0.56096  0.07777  1.0000
  H   H602      1.0  0.54846  0.59253  0.05439  1.0000
  C   C743      1.0  0.47490  0.85032  0.02230  1.0000
  C   C744      1.0  0.44113  0.82981  0.04001  1.0000
  C   C745      1.0  0.43618  0.86605  0.04607  1.0000
  C   C746      1.0  0.45088  0.89439  0.04050  1.0000
  C   C747      1.0  0.47019  0.88650  0.02877  1.0000
  H   H603      1.0  0.44738  0.92236  0.04528  1.0000
  S   S110      1.0  0.49940  0.84214  0.00746  1.0000
  C   C748      1.0  0.40040  0.98862  0.17998  1.0000
  C   C749      1.0  0.37528  0.98432  0.17748  1.0000
  C   C750      1.0  0.59686  0.83893  0.05349  1.0000
  C   C751      1.0  0.45846  0.55683  0.47598  1.0000
  Fe  Fe56      1.0  0.39558  0.98631  0.11017  1.0000
  C   C752      1.0  0.35595  0.77509  0.18185  1.0000
  C   C753      1.0  0.60938  0.58472  0.26708  1.0000
  C   C754      1.0  0.38113  0.68526  0.44699  1.0000
  C   C755      1.0  0.36193  0.54085  0.46274  1.0000
  C   C756      1.0  0.41589  0.98864  0.20479  1.0000
  H   H604      1.0  0.44758  0.94714  0.99617  1.0000
  H   H605      1.0  0.55929  0.53547  0.36181  1.0000
  C   C757      1.0  0.35814  0.57784  0.46752  1.0000
  C   C758      1.0  0.39783  0.70191  0.46733  1.0000
  C   C759      1.0  0.36093  0.66627  0.45154  1.0000
  H   H606      1.0  0.55398  0.55667  0.47192  1.0000
  H   H607      1.0  0.55981  0.80018  0.43011  1.0000
  C   C760      1.0  0.34913  0.88374  0.20969  1.0000
  H   H608      1.0  0.53272  0.92721  0.39230  1.0000
  H   H609      1.0  0.41393  0.71565  0.46399  1.0000
  C   C761      1.0  0.55382  0.89201  0.43709  1.0000
  C   C762      1.0  0.60256  0.60717  0.13654  1.0000
  C   C763      1.0  0.34388  0.90121  0.14311  1.0000
  H   H610      1.0  0.41003  0.88893  0.20755  1.0000
  C   C764      1.0  0.46028  0.82195  0.02800  1.0000
  C   C765      1.0  0.34403  0.86421  0.15013  1.0000
  H   H611      1.0  0.37369  0.69132  0.16508  1.0000
  H   H612      1.0  0.56813  0.58671  0.14121  1.0000
  C   C766      1.0  0.38014  0.83899  0.22711  1.0000
  C   C767      1.0  0.43338  0.90587  0.18346  1.0000
  H   H613      1.0  0.60146  0.61075  0.23016  1.0000
  S   S111      1.0  0.36800  0.97628  0.25127  1.0000
  C   C768      1.0  0.65623  0.49499  0.23674  1.0000
  H   H614      1.0  0.37772  0.53279  0.45586  1.0000
  H   H615      1.0  0.53451  0.84447  0.44639  1.0000
  C   C769      1.0  0.58719  0.59096  0.15047  1.0000
  H   H616      1.0  0.38419  0.68648  0.42779  1.0000
  C   C770      1.0  0.62749  0.61099  0.14753  1.0000
  H   H617      1.0  0.62777  0.51323  0.46459  1.0000
  C   C771      1.0  0.54809  0.57827  0.18950  1.0000
  H   H618      1.0  0.63948  0.62223  0.13627  1.0000
  C   C772      1.0  0.54927  0.85441  0.43840  1.0000
  H   H619      1.0  0.59436  0.82125  0.41229  1.0000
  C   C773      1.0  0.50302  0.61294  0.18537  1.0000
  C   C774      1.0  0.58317  0.84107  0.41925  1.0000
  C   C775      1.0  0.52434  0.53347  0.44276  1.0000
  S   S112      1.0  0.41390  0.96961  0.32690  1.0000
  H   H620      1.0  0.60416  0.79655  0.99913  1.0000
  C   C776      1.0  0.60018  0.58558  0.24044  1.0000
  H   H621      1.0  0.47181  0.57891  0.41613  1.0000
  C   C777      1.0  0.61325  0.74313  0.40763  1.0000
  C   C778      1.0  0.60979  0.74003  0.43251  1.0000
  C   C779      1.0  0.58656  0.73249  0.43624  1.0000
  C   C780      1.0  0.56677  0.72728  0.41519  1.0000
  C   C781      1.0  0.57022  0.72963  0.39016  1.0000
  C   C782      1.0  0.59349  0.73837  0.38652  1.0000
  P   P27       1.0  0.54512  0.72410  0.36249  1.0000
  C   C783      1.0  0.54099  0.76935  0.34857  1.0000
  C   C784      1.0  0.55228  0.68907  0.34146  1.0000
  C   C785      1.0  0.53649  0.68280  0.31732  1.0000
  C   C786      1.0  0.54099  0.65425  0.30157  1.0000
  C   C787      1.0  0.56095  0.63116  0.31006  1.0000
  C   C788      1.0  0.57634  0.63652  0.33436  1.0000
  C   C789      1.0  0.57203  0.66523  0.35002  1.0000
  C   C790      1.0  0.54355  0.77611  0.32354  1.0000
  C   C791      1.0  0.54082  0.81168  0.31357  1.0000
  C   C792      1.0  0.53585  0.84074  0.32861  1.0000
  C   C793      1.0  0.53391  0.83436  0.35376  1.0000
  C   C794      1.0  0.53674  0.79893  0.36376  1.0000
  C   C795      1.0  0.51785  0.70787  0.37146  1.0000
  C   C796      1.0  0.51619  0.67089  0.37804  1.0000
  C   C797      1.0  0.49547  0.65755  0.38521  1.0000
  C   C798      1.0  0.47613  0.68104  0.38585  1.0000
  C   C799      1.0  0.47743  0.71776  0.37897  1.0000
  C   C800      1.0  0.49805  0.73106  0.37153  1.0000
  C   C801      1.0  0.52812  0.95040  0.04846  1.0000
  H   H622      1.0  0.58402  0.73037  0.45559  1.0000
  H   H623      1.0  0.54894  0.72146  0.41860  1.0000
  H   H624      1.0  0.59641  0.74094  0.36732  1.0000
  H   H625      1.0  0.52050  0.69972  0.31087  1.0000
  H   H626      1.0  0.52879  0.64962  0.28294  1.0000
  H   H627      1.0  0.56430  0.60872  0.29805  1.0000
  H   H628      1.0  0.59140  0.61794  0.34139  1.0000
  H   H629      1.0  0.58380  0.66777  0.36908  1.0000
  H   H630      1.0  0.54793  0.75428  0.31174  1.0000
  H   H631      1.0  0.54262  0.81676  0.29418  1.0000
  H   H632      1.0  0.53357  0.86821  0.32082  1.0000
  H   H633      1.0  0.53009  0.85671  0.36558  1.0000
  H   H634      1.0  0.53523  0.79450  0.38332  1.0000
  H   H635      1.0  0.53097  0.65233  0.37773  1.0000
  H   H636      1.0  0.49461  0.62912  0.39062  1.0000
  H   H637      1.0  0.46032  0.67101  0.39206  1.0000
  H   H638      1.0  0.46269  0.73631  0.37990  1.0000
  H   H639      1.0  0.49826  0.75952  0.36621  1.0000
  C   C802      1.0  0.54103  0.93047  0.03372  1.0000
  H   H640      1.0  0.33212  0.84158  0.32728  1.0000
  H   H641      1.0  0.59951  0.83418  0.07390  1.0000
  C   C803      1.0  0.49174  0.89013  0.45214  1.0000
  H   H642      1.0  0.56021  0.63082  0.17808  1.0000
  H   H643      1.0  0.60332  0.88789  0.41074  1.0000
  P   P28       1.0  0.53489  0.92501  0.44817  1.0000
  H   H644      1.0  0.55155  0.54201  0.40486  1.0000
  C   C804      1.0  0.55559  0.95664  0.46868  1.0000
  C   C805      1.0  0.44521  0.49877  0.48978  1.0000
  C   C806      1.0  0.63703  0.59914  0.17263  1.0000
  C   C807      1.0  0.43733  0.90617  0.15867  1.0000
  C   C808      1.0  0.62163  0.58363  0.18680  1.0000
  C   C809      1.0  0.37761  0.84705  0.25191  1.0000
  C   C810      1.0  0.34646  0.89136  0.23447  1.0000
  C   C811      1.0  0.61233  0.50153  0.47063  1.0000
  H   H645      1.0  0.43004  0.80769  0.04458  1.0000
  H   H646      1.0  0.38899  0.83350  0.26837  1.0000
  H   H647      1.0  0.48574  0.89344  0.43156  1.0000
  C   C812      1.0  0.56379  0.82910  0.42935  1.0000
  H   H648      1.0  0.36313  0.98494  0.15858  1.0000
  C   C813      1.0  0.44428  0.98792  0.48252  1.0000
  C   C814      1.0  0.36591  0.85730  0.20580  1.0000
  C   C815      1.0  0.53170  0.98823  0.05154  1.0000
  H   H649      1.0  0.61190  0.96712  0.03650  1.0000
  H   H650      1.0  0.62954  0.57359  0.20590  1.0000
  H   H651      1.0  0.41461  0.98167  0.44899  1.0000
  C   C816      1.0  0.58814  0.87855  0.41832  1.0000
  H   H652      1.0  0.42223  0.61123  0.48144  1.0000
  C   C817      1.0  0.58971  0.55400  0.22716  1.0000
  H   H653      1.0  0.53311  0.61510  0.47486  1.0000
  H   H654      1.0  0.37145  0.59753  0.46430  1.0000
  C   C818      1.0  0.42107  0.88800  0.13874  1.0000
  H   H655      1.0  0.57758  0.93297  0.42651  1.0000
  H   H656      1.0  0.59435  0.54047  0.02284  1.0000
  C   C819      1.0  0.41308  0.88757  0.18838  1.0000
  C   C820      1.0  0.39664  0.86918  0.16843  1.0000
  C   C821      1.0  0.40071  0.86982  0.14353  1.0000
  P   P29       1.0  0.36961  0.84679  0.17393  1.0000
  C   C822      1.0  0.37138  0.79752  0.17124  1.0000
  C   C823      1.0  0.52247  0.89591  0.49193  1.0000
  C   C824      1.0  0.57356  0.90398  0.42728  1.0000
  C   C825      1.0  0.36079  0.87328  0.25558  1.0000
  C   C826      1.0  0.60781  0.55252  0.28068  1.0000
  C   C827      1.0  0.48349  0.86738  0.49164  1.0000
  C   C828      1.0  0.49602  0.97002  0.42554  1.0000
  C   C829      1.0  0.51545  0.94867  0.42142  1.0000
  H   H657      1.0  0.42547  0.52864  0.45693  1.0000
  C   C830      1.0  0.47780  0.58861  0.00807  1.0000
  C   C831      1.0  0.38858  0.74296  0.15637  1.0000
  C   C832      1.0  0.38779  0.78112  0.15855  1.0000
  C   C833      1.0  0.34575  0.51411  0.46752  1.0000
  H   H658      1.0  0.37442  0.88227  0.01637  1.0000
  H   H659      1.0  0.53756  0.90125  0.03099  1.0000
  H   H660      1.0  0.63907  0.53721  0.03708  1.0000
  H   H661      1.0  0.60975  0.78545  0.04579  1.0000
  H   H662      1.0  0.49182  0.62602  0.44771  1.0000
  C   C834      1.0  0.52419  0.59407  0.46156  1.0000
  H   H663      1.0  0.39349  0.81895  0.22458  1.0000
  C   C835      1.0  0.58763  0.87243  0.04293  1.0000
  H   H664      1.0  0.52037  0.66060  0.17365  1.0000
  H   H665      1.0  0.38791  0.85688  0.12762  1.0000
  C   C836      1.0  0.52852  0.55931  0.19572  1.0000
  H   H666      1.0  0.57753  0.91389  0.49075  1.0000
  H   H667      1.0  0.46384  0.79397  0.02335  1.0000
  C   C837      1.0  0.57494  0.94313  0.48792  1.0000
  C   C838      1.0  0.58351  0.87826  0.01634  1.0000
  H   H668      1.0  0.45256  0.92149  0.15471  1.0000
  P   P30       1.0  0.57385  0.92229  0.00261  1.0000
  C   C839      1.0  0.50144  0.54060  0.42648  1.0000
  H   H669      1.0  0.40117  0.73054  0.14638  1.0000
  H   H670      1.0  0.40001  0.79745  0.15025  1.0000
  H   H671      1.0  0.48783  0.64540  0.00580  1.0000
  H   H672      1.0  0.33846  0.89909  0.19381  1.0000
  C   C840      1.0  0.50601  0.57654  0.19349  1.0000
  C   C841      1.0  0.58995  0.85090  0.00079  1.0000
  C   C842      1.0  0.48007  0.98696  0.40490  1.0000
  C   C843      1.0  0.51843  0.94425  0.39626  1.0000
  C   C844      1.0  0.59658  0.57958  0.17588  1.0000
  S   S113      1.0  0.37938  0.98727  0.36860  1.0000
  H   H673      1.0  0.34850  0.65265  0.43568  1.0000
  H   H674      1.0  0.63128  0.74893  0.40474  1.0000
  S   S114      1.0  0.54793  0.76692  0.00242  1.0000
  H   H675      1.0  0.34638  0.97679  0.19732  1.0000
  C   C845      1.0  0.51491  0.90260  0.46548  1.0000
  H   H676      1.0  0.59611  0.49610  0.27825  1.0000
  C   C846      1.0  0.60328  0.51453  0.02149  1.0000
  H   H677      1.0  0.45529  0.58018  0.46320  1.0000
  C   C847      1.0  0.61673  0.96370  0.01824  1.0000
  Fe  Fe57      1.0  0.38031  0.98075  0.29530  1.0000
  C   C848      1.0  0.55233  0.50098  0.15999  1.0000
  C   C849      1.0  0.44159  0.52799  0.47257  1.0000
  Fe  Fe58      1.0  0.63413  0.52418  0.39233  1.0000
  C   C850      1.0  0.38130  0.98034  0.22432  1.0000
  Fe  Fe59      1.0  0.48977  0.70722  0.48235  1.0000
  S   S115      1.0  0.57379  0.66508  0.47820  1.0000
  H   H678      1.0  0.61434  0.61675  0.47999  1.0000
  C   C851      1.0  0.56112  0.98631  0.02503  1.0000
  C   C852      1.0  0.59956  0.81771  0.01143  1.0000
  H   H679      1.0  0.58389  0.89366  0.05557  1.0000
  H   H680      1.0  0.42388  0.88885  0.11938  1.0000
  C   C853      1.0  0.59690  0.52125  0.26769  1.0000
  C   C854      1.0  0.60147  0.94376  0.99825  1.0000
  H   H681      1.0  0.34242  0.88531  0.04082  1.0000
  C   C855      1.0  0.48972  0.57384  0.42829  1.0000
  H   H682      1.0  0.35924  0.88030  0.27483  1.0000
  C   C856      1.0  0.54864  0.51553  0.39539  1.0000
  S   S116      1.0  0.61935  0.50812  0.13472  1.0000
  H   H683      1.0  0.62507  0.74332  0.44896  1.0000
  C   C857      1.0  0.52261  0.63227  0.17976  1.0000
  C   C858      1.0  0.37310  0.72087  0.16689  1.0000
  C   C859      1.0  0.54515  0.61514  0.18204  1.0000
  H   H684      1.0  0.35883  0.91923  0.15197  1.0000
  S   S117      1.0  0.48776  0.76905  0.48174  1.0000
  H   H685      1.0  0.51523  0.93643  0.05739  1.0000
  S   S118      1.0  0.42125  0.98032  0.08362  1.0000
  H   H686      1.0  0.53161  0.55600  0.00822  1.0000
  H   H687      1.0  0.50463  0.95766  0.35629  1.0000
  C   C860      1.0  0.35555  0.87788  0.00647  1.0000
  C   C861      1.0  0.60276  0.81153  0.03772  1.0000
  Fe  Fe60      1.0  0.53234  0.70953  0.99895  1.0000
  C   C862      1.0  0.58777  0.52196  0.24107  1.0000
  S   S119      1.0  0.45904  0.66517  0.47995  1.0000
  C   C863      1.0  0.48330  0.98268  0.38002  1.0000
  C   C864      1.0  0.58899  0.50375  0.45449  1.0000
  C   C865      1.0  0.53590  0.56075  0.45994  1.0000
  H   H688      1.0  0.65649  0.60088  0.18088  1.0000
  H   H689      1.0  0.34311  0.78714  0.19166  1.0000
  H   H690      1.0  0.61541  0.55145  0.30125  1.0000
  C   C866      1.0  0.55293  0.51200  0.37084  1.0000
  H   H691      1.0  0.58697  0.51733  0.43622  1.0000
  C   C867      1.0  0.39423  0.69989  0.49220  1.0000
  C   C868      1.0  0.33745  0.87965  0.02036  1.0000
  C   C869      1.0  0.36584  0.97995  0.19949  1.0000
  H   H692      1.0  0.53790  0.52057  0.15352  1.0000
  C   C870      1.0  0.62869  0.51284  0.02946  1.0000
  H   H693      1.0  0.41858  0.98454  0.24574  1.0000
  H   H694      1.0  0.57939  0.49735  0.23151  1.0000
  H   H695      1.0  0.40593  0.75892  0.00804  1.0000
  C   C871      1.0  0.40645  0.98424  0.22683  1.0000
  C   C872      1.0  0.63867  0.97876  0.01487  1.0000
  C   C873      1.0  0.33793  0.58854  0.47702  1.0000
  C   C874      1.0  0.65787  0.50197  0.28283  1.0000
  H   H696      1.0  0.34480  0.71982  0.18780  1.0000
  S   S120      1.0  0.65707  0.49507  0.42646  1.0000
  C   C875      1.0  0.50244  0.96131  0.37569  1.0000
  C   C876      1.0  0.48005  0.62114  0.99514  1.0000
  C   C877      1.0  0.46775  0.55734  0.99430  1.0000
  C   C878      1.0  0.36999  0.51678  0.66967  1.0000
  S   S121      1.0  0.53170  0.70456  0.95679  1.0000
  S   S122      1.0  0.40550  0.49331  0.80766  1.0000
  S   S123      1.0  0.50686  0.78623  0.94929  1.0000
  C   C879      1.0  0.48956  0.94073  0.97486  1.0000
  Fe  Fe61      1.0  0.49376  0.72781  0.95005  1.0000
  S   S124      1.0  0.45731  0.70945  0.92420  1.0000
  Fe  Fe62      1.0  0.54492  0.76391  0.95967  1.0000
  S   S125      1.0  0.57797  0.78541  0.94536  1.0000
  C   C880      1.0  0.37407  0.49733  0.91921  1.0000
  C   C881      1.0  0.54967  0.94615  0.95408  1.0000
  C   C882      1.0  0.41550  0.91453  0.98054  1.0000
  S   S126      1.0  0.36179  0.54382  0.58834  1.0000
  Fe  Fe63      1.0  0.39209  0.55304  0.56777  1.0000
  S   S127      1.0  0.41245  0.60750  0.57046  1.0000
  H   H697      1.0  0.57073  0.50901  0.95566  1.0000
  C   C883      1.0  0.63105  0.95215  0.97228  1.0000
  S   S128      1.0  0.37139  0.52767  0.53099  1.0000
  C   C884      1.0  0.38997  0.91446  0.97178  1.0000
  S   S129      1.0  0.60024  0.93772  0.89477  1.0000
  S   S130      1.0  0.53601  0.80641  0.54242  1.0000
  Fe  Fe64      1.0  0.39776  0.53274  0.83713  1.0000
  S   S131      1.0  0.43253  0.56514  0.85493  1.0000
  S   S132      1.0  0.64235  0.97681  0.70551  1.0000
  S   S133      1.0  0.36097  0.54796  0.81240  1.0000
  C   C885      1.0  0.42802  0.94728  0.98866  1.0000
  Fe  Fe65      1.0  0.62870  0.97220  0.60757  1.0000
  S   S134      1.0  0.61957  0.92962  0.57483  1.0000
  H   H698      1.0  0.37146  0.65937  0.66489  1.0000
  C   C886      1.0  0.33807  0.64251  0.67474  1.0000
  C   C887      1.0  0.55890  0.84142  0.55044  1.0000
  C   C888      1.0  0.56003  0.86308  0.57253  1.0000
  C   C889      1.0  0.57812  0.89055  0.58006  1.0000
  C   C890      1.0  0.59550  0.89662  0.56565  1.0000
  C   C891      1.0  0.59407  0.87549  0.54327  1.0000
  C   C892      1.0  0.57587  0.84820  0.53562  1.0000
  H   H699      1.0  0.54698  0.85824  0.58411  1.0000
  H   H700      1.0  0.57888  0.90652  0.59728  1.0000
  H   H701      1.0  0.60741  0.87984  0.53197  1.0000
  H   H702      1.0  0.57525  0.83195  0.51856  1.0000
  C   C893      1.0  0.39304  0.83327  0.96888  1.0000
  C   C894      1.0  0.59104  0.96728  0.50393  1.0000
  C   C895      1.0  0.42613  0.62207  0.54545  1.0000
  C   C896      1.0  0.44430  0.64949  0.55043  1.0000
  C   C897      1.0  0.45493  0.66254  0.53075  1.0000
  Fe  Fe66      1.0  0.34222  0.51465  0.55211  1.0000
  C   C898      1.0  0.61262  0.91114  0.78541  1.0000
  C   C899      1.0  0.41858  0.60791  0.52053  1.0000
  H   H703      1.0  0.45023  0.66070  0.56962  1.0000
  H   H704      1.0  0.34590  0.53444  0.90048  1.0000
  C   C900      1.0  0.62465  0.91385  0.83902  1.0000
  H   H705      1.0  0.35738  0.55715  0.69302  1.0000
  C   C901      1.0  0.33832  0.86882  0.87523  1.0000
  C   C902      1.0  0.46572  0.49829  0.51035  1.0000
  C   C903      1.0  0.51207  0.64592  0.75778  1.0000
  C   C904      1.0  0.42879  0.62154  0.50077  1.0000
  H   H706      1.0  0.49809  0.66202  0.79029  1.0000
  C   C905      1.0  0.58383  0.82840  0.93182  1.0000
  C   C906      1.0  0.60816  0.84012  0.93418  1.0000
  C   C907      1.0  0.61365  0.87354  0.92332  1.0000
  C   C908      1.0  0.59482  0.89549  0.90949  1.0000
  C   C909      1.0  0.57055  0.88357  0.90694  1.0000
  C   C910      1.0  0.56506  0.85054  0.91820  1.0000
  H   H707      1.0  0.62289  0.82320  0.94453  1.0000
  H   H708      1.0  0.63243  0.88203  0.92543  1.0000
  H   H709      1.0  0.55583  0.90001  0.89609  1.0000
  H   H710      1.0  0.54632  0.84170  0.91579  1.0000
  C   C911      1.0  0.43882  0.60452  0.87500  1.0000
  C   C912      1.0  0.42033  0.62596  0.88080  1.0000
  C   C913      1.0  0.42634  0.65783  0.89601  1.0000
  C   C914      1.0  0.45083  0.66843  0.90580  1.0000
  C   C915      1.0  0.46933  0.64662  0.90034  1.0000
  C   C916      1.0  0.46331  0.61496  0.88492  1.0000
  H   H711      1.0  0.40143  0.61831  0.87324  1.0000
  H   H712      1.0  0.41191  0.67454  0.90011  1.0000
  H   H713      1.0  0.48823  0.65444  0.90768  1.0000
  H   H714      1.0  0.47773  0.59850  0.88056  1.0000
  H   H715      1.0  0.32999  0.86774  0.85483  1.0000
  H   H716      1.0  0.51251  0.87419  0.52545  1.0000
  H   H717      1.0  0.42981  0.51750  0.69265  1.0000
  H   H718      1.0  0.64474  0.87797  0.78913  1.0000
  C   C917      1.0  0.37811  0.61672  0.74387  1.0000
  C   C918      1.0  0.38094  0.61416  0.77043  1.0000
  C   C919      1.0  0.40223  0.59932  0.78563  1.0000
  C   C920      1.0  0.42062  0.58679  0.77432  1.0000
  C   C921      1.0  0.41827  0.59021  0.74772  1.0000
  C   C922      1.0  0.39670  0.60489  0.73251  1.0000
  P   P31       1.0  0.44246  0.57422  0.73350  1.0000
  C   C923      1.0  0.44936  0.52743  0.74347  1.0000
  C   C924      1.0  0.43338  0.57634  0.69883  1.0000
  C   C925      1.0  0.42908  0.54428  0.68384  1.0000
  C   C926      1.0  0.42274  0.77081  0.97679  1.0000
  C   C927      1.0  0.33023  0.64232  0.51548  1.0000
  C   C928      1.0  0.42597  0.61260  0.65972  1.0000
  C   C929      1.0  0.43173  0.61055  0.68655  1.0000
  C   C930      1.0  0.34755  0.90196  0.88680  1.0000
  C   C931      1.0  0.60906  0.93748  0.97549  1.0000
  C   C932      1.0  0.38992  0.98016  0.97964  1.0000
  C   C933      1.0  0.51186  0.58083  0.60897  1.0000
  H   H719      1.0  0.47159  0.85330  0.50174  1.0000
  C   C934      1.0  0.46961  0.60253  0.74327  1.0000
  C   C935      1.0  0.47380  0.62413  0.76568  1.0000
  C   C936      1.0  0.50804  0.62471  0.73541  1.0000
  C   C937      1.0  0.48693  0.60312  0.72817  1.0000
  H   H720      1.0  0.62902  0.91423  0.85983  1.0000
  H   H721      1.0  0.36637  0.62265  0.77919  1.0000
  H   H722      1.0  0.40431  0.59673  0.80620  1.0000
  H   H723      1.0  0.43658  0.57413  0.78640  1.0000
  H   H724      1.0  0.39375  0.60618  0.71187  1.0000
  H   H725      1.0  0.48812  0.86147  0.78259  1.0000
  C   C938      1.0  0.46311  0.59087  0.95455  1.0000
  C   C939      1.0  0.35602  0.64065  0.66067  1.0000
  H   H726      1.0  0.42480  0.63898  0.65028  1.0000
  H   H727      1.0  0.43506  0.63558  0.69780  1.0000
  H   H728      1.0  0.41327  0.51552  0.74916  1.0000
  C   C940      1.0  0.42361  0.54649  0.65702  1.0000
  C   C941      1.0  0.34784  0.62628  0.53527  1.0000
  H   H729      1.0  0.48259  0.59202  0.62755  1.0000
  H   H730      1.0  0.56515  0.91334  0.69110  1.0000
  H   H731      1.0  0.46096  0.62469  0.77777  1.0000
  H   H732      1.0  0.52132  0.62494  0.72369  1.0000
  H   H733      1.0  0.48418  0.58673  0.71081  1.0000
  H   H734      1.0  0.50344  0.91093  0.90747  1.0000
  H   H735      1.0  0.33287  0.57032  0.62059  1.0000
  H   H736      1.0  0.42044  0.52164  0.64556  1.0000
  H   H737      1.0  0.36117  0.62675  0.73205  1.0000
  H   H738      1.0  0.40448  0.58708  0.51631  1.0000
  H   H739      1.0  0.57458  0.98004  0.56341  1.0000
  C   C942      1.0  0.42197  0.58055  0.64496  1.0000
  H   H740      1.0  0.52847  0.66257  0.76346  1.0000
  H   H741      1.0  0.51809  0.60571  0.53762  1.0000
  C   C943      1.0  0.47284  0.62220  0.96840  1.0000
  P   P32       1.0  0.37305  0.87244  0.96227  1.0000
  P   P33       1.0  0.44686  0.51819  0.94908  1.0000
  H   H742      1.0  0.58866  0.60875  0.52051  1.0000
  C   C944      1.0  0.56020  0.53098  0.96130  1.0000
  H   H743      1.0  0.59820  0.92069  0.96028  1.0000
  C   C945      1.0  0.49762  0.97714  0.97697  1.0000
  C   C946      1.0  0.36490  0.53167  0.91056  1.0000
  H   H744      1.0  0.41760  0.58204  0.62416  1.0000
  H   H745      1.0  0.56067  0.90461  0.73547  1.0000
  C   C947      1.0  0.54188  0.97715  0.53303  1.0000
  C   C948      1.0  0.57748  0.96920  0.69738  1.0000
  C   C949      1.0  0.35400  0.61467  0.64107  1.0000
  C   C950      1.0  0.53813  0.55697  0.99079  1.0000
  C   C951      1.0  0.42407  0.79517  0.95712  1.0000
  H   H746      1.0  0.42340  0.49628  0.98989  1.0000
  H   H747      1.0  0.35750  0.94786  0.96612  1.0000
  H   H748      1.0  0.59019  0.54096  0.52132  1.0000
  H   H749      1.0  0.60834  0.90950  0.76468  1.0000
  H   H750      1.0  0.52159  0.94566  0.74643  1.0000
  H   H751      1.0  0.45806  0.59204  0.93380  1.0000
  Fe  Fe67      1.0  0.34554  0.50103  0.83112  1.0000
  H   H752      1.0  0.53715  0.56571  0.58649  1.0000
  H   H753      1.0  0.48672  0.52917  0.73943  1.0000
  C   C952      1.0  0.46985  0.93016  0.95506  1.0000
  C   C953      1.0  0.51881  0.88513  0.94367  1.0000
  C   C954      1.0  0.64544  0.97647  0.75780  1.0000
  C   C955      1.0  0.37726  0.94748  0.97177  1.0000
  H   H754      1.0  0.52586  0.85679  0.81730  1.0000
  H   H755      1.0  0.37347  0.58865  0.90677  1.0000
  H   H756      1.0  0.41039  0.84470  0.93765  1.0000
  H   H757      1.0  0.53109  0.96494  0.91658  1.0000
  C   C956      1.0  0.36722  0.50722  0.71426  1.0000
  Fe  Fe68      1.0  0.63143  0.97874  0.89403  1.0000
  H   H758      1.0  0.56143  0.97003  0.95784  1.0000
  C   C957      1.0  0.50662  0.87908  0.50499  1.0000
  Fe  Fe69      1.0  0.36787  0.50531  0.78412  1.0000
  H   H759      1.0  0.48614  0.90599  0.74721  1.0000
  C   C958      1.0  0.53231  0.94356  0.93076  1.0000
  C   C959      1.0  0.53645  0.88727  0.96686  1.0000
  C   C960      1.0  0.54436  0.92327  0.78125  1.0000
  H   H760      1.0  0.51593  0.52651  0.90672  1.0000
  C   C961      1.0  0.34746  0.63251  0.56094  1.0000
  C   C962      1.0  0.48765  0.57965  0.61115  1.0000
  C   C963      1.0  0.54370  0.59219  0.95426  1.0000
  C   C964      1.0  0.46005  0.55830  0.96735  1.0000
  H   H761      1.0  0.34634  0.92660  0.87535  1.0000
  S   S135      1.0  0.35839  0.52427  0.74196  1.0000
  H   H762      1.0  0.43659  0.78971  0.94496  1.0000
  C   C965      1.0  0.47254  0.51273  0.74443  1.0000
  C   C966      1.0  0.36423  0.52965  0.69240  1.0000
  H   H763      1.0  0.44289  0.94783  0.92191  1.0000
  C   C967      1.0  0.57362  0.59299  0.52459  1.0000
  Fe  Fe70      1.0  0.50918  0.78721  0.99177  1.0000
  H   H764      1.0  0.54120  0.61745  0.94336  1.0000
  C   C968      1.0  0.60421  0.93265  0.82527  1.0000
  H   H765      1.0  0.41670  0.58242  0.92804  1.0000
  C   C969      1.0  0.55654  0.56315  0.94679  1.0000
  C   C970      1.0  0.48609  0.52255  0.92542  1.0000
  C   C971      1.0  0.46987  0.56247  0.59210  1.0000
  C   C972      1.0  0.47606  0.54702  0.57059  1.0000
  C   C973      1.0  0.50029  0.54852  0.56808  1.0000
  H   H766      1.0  0.55299  0.64075  0.52910  1.0000
  P   P34       1.0  0.50884  0.52688  0.54113  1.0000
  C   C974      1.0  0.48289  0.52713  0.51385  1.0000
  C   C975      1.0  0.53406  0.55253  0.53404  1.0000
  C   C976      1.0  0.55471  0.53455  0.52966  1.0000
  C   C977      1.0  0.57437  0.55477  0.52492  1.0000
  H   H767      1.0  0.36533  0.92934  0.92158  1.0000
  C   C978      1.0  0.55338  0.61108  0.52931  1.0000
  C   C979      1.0  0.53365  0.59105  0.53400  1.0000
  C   C980      1.0  0.40925  0.82623  0.95311  1.0000
  H   H768      1.0  0.36788  0.61308  0.63011  1.0000
  C   C981      1.0  0.55208  0.91781  0.97216  1.0000
  S   S136      1.0  0.52613  0.70654  0.51053  1.0000
  H   H769      1.0  0.46891  0.68361  0.53486  1.0000
  H   H770      1.0  0.64512  0.94700  0.75568  1.0000
  C   C982      1.0  0.46209  0.51003  0.92347  1.0000
  C   C983      1.0  0.33421  0.59027  0.63577  1.0000
  C   C984      1.0  0.50375  0.87873  0.78221  1.0000
  H   H771      1.0  0.56136  0.89573  0.81678  1.0000
  C   C985      1.0  0.49769  0.51599  0.90545  1.0000
  C   C986      1.0  0.38045  0.56217  0.91403  1.0000
  C   C987      1.0  0.35827  0.90341  0.91314  1.0000
  H   H772      1.0  0.45116  0.56136  0.59391  1.0000
  H   H773      1.0  0.46183  0.53409  0.55606  1.0000
  H   H774      1.0  0.36164  0.62111  0.57607  1.0000
  H   H775      1.0  0.55587  0.50504  0.53007  1.0000
  H   H776      1.0  0.36756  0.53418  0.65302  1.0000
  H   H777      1.0  0.56407  0.56589  0.93004  1.0000
  C   C988      1.0  0.45813  0.95611  0.93732  1.0000
  C   C989      1.0  0.35046  0.83840  0.91632  1.0000
  C   C990      1.0  0.51685  0.91306  0.92556  1.0000
  C   C991      1.0  0.41457  0.52402  0.93495  1.0000
  C   C992      1.0  0.53468  0.58915  0.97630  1.0000
  C   C993      1.0  0.40514  0.55843  0.92619  1.0000
  H   H778      1.0  0.50660  0.86180  0.93975  1.0000
  H   H779      1.0  0.49581  0.53762  0.94218  1.0000
  C   C994      1.0  0.35980  0.87158  0.92811  1.0000
  C   C995      1.0  0.63933  0.89432  0.82605  1.0000
  C   C996      1.0  0.55065  0.52737  0.98316  1.0000
  C   C997      1.0  0.49496  0.64562  0.77289  1.0000
  H   H780      1.0  0.36234  0.60993  0.53089  1.0000
  H   H781      1.0  0.65523  0.88003  0.83684  1.0000
  H   H782      1.0  0.58767  0.85526  0.98041  1.0000
  H   H783      1.0  0.49436  0.49180  0.86798  1.0000
  H   H784      1.0  0.46382  0.90177  0.95352  1.0000
  C   C998      1.0  0.43133  0.50504  0.74985  1.0000
  H   H785      1.0  0.47501  0.64734  0.95841  1.0000
  H   H786      1.0  0.33949  0.66288  0.68979  1.0000
  H   H787      1.0  0.59306  0.94758  0.83577  1.0000
  C   C999      1.0  0.34936  0.87135  0.97991  1.0000
  C   C1000     1.0  0.63337  0.89308  0.79924  1.0000
  H   H788      1.0  0.52735  0.99120  0.79078  1.0000
  C   C1001     1.0  0.59795  0.93131  0.79831  1.0000
  C   C1002     1.0  0.52501  0.87604  0.80173  1.0000
  H   H789      1.0  0.35139  0.81353  0.92753  1.0000
  H   H790      1.0  0.60544  0.95666  0.51931  1.0000
  C   C1003     1.0  0.50266  0.90378  0.76229  1.0000
  S   S137      1.0  0.49362  0.73046  0.99196  1.0000
  H   H791      1.0  0.52570  0.59407  0.62378  1.0000
  H   H792      1.0  0.51048  0.98193  0.50183  1.0000
  H   H793      1.0  0.37219  0.67932  0.51643  1.0000
  C   C1004     1.0  0.54523  0.89823  0.80131  1.0000
  C   C1005     1.0  0.51823  0.56499  0.58767  1.0000
  H   H794      1.0  0.54061  0.90303  0.50259  1.0000
  C   C1006     1.0  0.39880  0.49339  0.93113  1.0000
  H   H795      1.0  0.40759  0.71197  0.50805  1.0000
  C   C1007     1.0  0.56659  0.93101  0.72992  1.0000
  H   H796      1.0  0.43430  0.74680  0.97984  1.0000
  H   H797      1.0  0.63669  0.94680  0.95461  1.0000
  H   H798      1.0  0.54106  0.94755  0.53358  1.0000
  H   H799      1.0  0.64757  0.97480  0.79876  1.0000
  P   P35       1.0  0.57020  0.95263  0.78071  1.0000
  H   H800      1.0  0.49884  0.92039  0.98833  1.0000
  Fe  Fe71      1.0  0.52603  0.76834  0.50723  1.0000
  C   C1008     1.0  0.57236  0.95978  0.74789  1.0000
  C   C1009     1.0  0.52283  0.92608  0.76184  1.0000
  C   C1010     1.0  0.48560  0.49639  0.88366  1.0000
  C   C1011     1.0  0.44711  0.64874  0.50575  1.0000
  C   C1012     1.0  0.33981  0.83705  0.88998  1.0000
  C   C1013     1.0  0.56914  0.93576  0.70477  1.0000
  H   H801      1.0  0.52557  0.61227  0.98254  1.0000
  C   C1014     1.0  0.41530  0.98006  0.98805  1.0000
  S   S138      1.0  0.41221  0.50149  0.58258  1.0000
  C   C1015     1.0  0.39193  0.80878  0.98874  1.0000
  H   H802      1.0  0.32875  0.65822  0.58699  1.0000
  C   C1016     1.0  0.32913  0.65387  0.56707  1.0000
  H   H803      1.0  0.58015  0.97264  0.67812  1.0000
  H   H804      1.0  0.53764  0.86530  0.98066  1.0000
  H   H805      1.0  0.42580  0.88938  0.98194  1.0000
  C   C1017     1.0  0.64578  0.97312  0.99184  1.0000
  H   H806      1.0  0.49129  0.57975  0.49901  1.0000
  H   H807      1.0  0.51318  0.98472  0.99212  1.0000
  C   C1018     1.0  0.47897  0.55653  0.49654  1.0000
  H   H808      1.0  0.33266  0.81131  0.88104  1.0000
  C   C1019     1.0  0.40669  0.77760  0.99257  1.0000
  C   C1020     1.0  0.37405  0.68099  0.49685  1.0000
  S   S139      1.0  0.86718  0.12527  0.03757  1.0000
  S   S140      1.0  0.91737  0.14869  0.02102  1.0000
  Fe  Fe72      1.0  0.89887  0.09583  0.02745  1.0000
  S   S141      1.0  0.92835  0.05802  0.05061  1.0000
  Fe  Fe73      1.0  0.88456  0.17804  0.02859  1.0000
  S   S142      1.0  0.88403  0.22136  0.06015  1.0000
  C   C1021     1.0  0.78934  0.44797  0.13277  1.0000
  Fe  Fe74      1.0  0.89670  0.43008  0.12077  1.0000
  S   S143      1.0  0.87010  0.42082  0.14568  1.0000
  S   S144      1.0  0.90333  0.39199  0.08877  1.0000
  Fe  Fe75      1.0  0.90034  0.44312  0.17778  1.0000
  S   S145      1.0  0.90652  0.41902  0.21803  1.0000
  H   H809      1.0  0.88971  0.00182  0.03879  1.0000
  S   S146      1.0  0.92756  0.44885  0.15345  1.0000
  C   C1022     1.0  0.96443  0.05667  0.12826  1.0000
  S   S147      1.0  0.90442  0.38013  0.43750  1.0000
  C   C1023     1.0  0.74515  0.45628  0.12699  1.0000
  H   H810      1.0  0.94543  0.06343  0.12675  1.0000
  H   H811      1.0  0.95998  0.35628  0.38098  1.0000
  C   C1024     1.0  0.83606  0.38178  0.41231  1.0000
  H   H812      1.0  0.83095  0.36247  0.12441  1.0000
  C   C1025     1.0  0.69319  0.21089  0.99708  1.0000
  C   C1026     1.0  0.78246  0.41719  0.46790  1.0000
  C   C1027     1.0  0.79025  0.44555  0.45413  1.0000
  C   C1028     1.0  0.77301  0.46910  0.43872  1.0000
  C   C1029     1.0  0.74776  0.46435  0.43654  1.0000
  C   C1030     1.0  0.74001  0.43614  0.45044  1.0000
  C   C1031     1.0  0.75728  0.41322  0.46630  1.0000
  H   H813      1.0  0.79935  0.35430  0.34555  1.0000
  C   C1032     1.0  0.81409  0.40274  0.08023  1.0000
  H   H814      1.0  0.72073  0.43214  0.44914  1.0000
  C   C1033     1.0  0.97661  0.07124  0.11062  1.0000
  C   C1034     1.0  0.82049  0.44319  0.40361  1.0000
  H   H815      1.0  0.96624  0.00846  0.07445  1.0000
  H   H816      1.0  0.84313  0.22843  0.13518  1.0000
  C   C1035     1.0  0.79356  0.40546  0.19632  1.0000
  C   C1036     1.0  0.83550  0.36810  0.05381  1.0000
  C   C1037     1.0  0.70500  0.36421  0.20202  1.0000
  C   C1038     1.0  0.72547  0.42460  0.31147  1.0000
  H   H817      1.0  0.71170  0.36906  0.37685  1.0000
  C   C1039     1.0  0.97791  0.38752  0.23853  1.0000
  C   C1040     1.0  0.95568  0.40230  0.22466  1.0000
  C   C1041     1.0  0.93492  0.40063  0.23471  1.0000
  C   C1042     1.0  0.93665  0.38390  0.25869  1.0000
  C   C1043     1.0  0.95885  0.36881  0.27247  1.0000
  P   P36       1.0  0.80415  0.32747  0.07681  1.0000
  H   H818      1.0  0.95466  0.41510  0.20627  1.0000
  H   H819      1.0  0.92071  0.38246  0.26663  1.0000
  C   C1044     1.0  0.95383  0.30729  0.40088  1.0000
  C   C1045     1.0  0.95107  0.34457  0.39495  1.0000
  C   C1046     1.0  0.93600  0.36646  0.40644  1.0000
  C   C1047     1.0  0.92418  0.35171  0.42460  1.0000
  C   C1048     1.0  0.92754  0.31471  0.43111  1.0000
  C   C1049     1.0  0.94200  0.29254  0.41902  1.0000
  H   H820      1.0  0.96786  0.19608  0.36459  1.0000
  H   H821      1.0  0.93328  0.39488  0.40100  1.0000
  H   H822      1.0  0.91846  0.30292  0.44491  1.0000
  H   H823      1.0  0.94395  0.26374  0.42367  1.0000
  C   C1050     1.0  0.88963  0.26898  0.06764  1.0000
  C   C1051     1.0  0.89747  0.29339  0.05111  1.0000
  C   C1052     1.0  0.90154  0.33075  0.05798  1.0000
  C   C1053     1.0  0.89764  0.34446  0.08131  1.0000
  C   C1054     1.0  0.88971  0.32009  0.09783  1.0000
  C   C1055     1.0  0.88589  0.28265  0.09108  1.0000
  H   H824      1.0  0.90049  0.28349  0.03306  1.0000
  H   H825      1.0  0.90773  0.34924  0.04504  1.0000
  H   H826      1.0  0.88669  0.33001  0.11587  1.0000
  H   H827      1.0  0.87995  0.26410  0.10412  1.0000
  H   H828      1.0  0.86101  0.39894  0.03776  1.0000
  H   H829      1.0  0.98544  0.45658  0.13197  1.0000
  H   H830      1.0  0.95988  0.35579  0.29081  1.0000
  S   S148      1.0  0.80307  0.38586  0.48733  1.0000
  H   H831      1.0  0.86253  0.27127  0.17027  1.0000
  H   H832      1.0  0.73693  0.31365  0.12140  1.0000
  H   H833      1.0  0.97697  0.01859  0.01676  1.0000
  C   C1056     1.0  0.74523  0.40406  0.35445  1.0000
  C   C1057     1.0  0.79556  0.43078  0.21654  1.0000
  H   H834      1.0  0.85253  0.45794  0.05677  1.0000
  H   H835      1.0  0.73734  0.43647  0.38530  1.0000
  C   C1058     1.0  0.97753  0.46348  0.46105  1.0000
  C   C1059     1.0  0.77535  0.26956  0.32907  1.0000
  S   S149      1.0  0.86117  0.32883  0.47906  1.0000
  H   H836      1.0  0.81728  0.25201  0.09507  1.0000
  C   C1060     1.0  0.93663  0.23095  0.11267  1.0000
  C   C1061     1.0  0.94737  0.23502  0.09184  1.0000
  C   C1062     1.0  0.96563  0.26138  0.09272  1.0000
  C   C1063     1.0  0.97304  0.28388  0.11438  1.0000
  C   C1064     1.0  0.96186  0.28062  0.13512  1.0000
  C   C1065     1.0  0.94381  0.25362  0.13426  1.0000
  P   P37       1.0  0.97110  0.31026  0.16285  1.0000
  Fe  Fe76      1.0  0.68052  0.46616  0.12619  1.0000
  C   C1066     1.0  0.97653  0.35617  0.15265  1.0000
  C   C1067     1.0  0.82116  0.27426  0.04775  1.0000
  C   C1068     1.0  0.96692  0.40511  0.12123  1.0000
  C   C1069     1.0  0.82605  0.43471  0.07547  1.0000
  H   H837      1.0  0.74810  0.38988  0.25489  1.0000
  C   C1070     1.0  0.96338  0.36925  0.12878  1.0000
  C   C1071     1.0  0.72324  0.33330  0.43685  1.0000
  C   C1072     1.0  0.83984  0.41963  0.41355  1.0000
  H   H838      1.0  0.80953  0.44930  0.45535  1.0000
  H   H839      1.0  0.96956  0.11510  0.03649  1.0000
  C   C1073     1.0  0.72234  0.35894  0.39499  1.0000
  C   C1074     1.0  0.94644  0.31277  0.17905  1.0000
  C   C1075     1.0  0.92771  0.33834  0.17120  1.0000
  C   C1076     1.0  0.90927  0.34144  0.18446  1.0000
  C   C1077     1.0  0.90922  0.31910  0.20556  1.0000
  C   C1078     1.0  0.92732  0.29273  0.21298  1.0000
  C   C1079     1.0  0.94572  0.28923  0.19960  1.0000
  H   H840      1.0  0.92208  0.21100  0.11160  1.0000
  H   H841      1.0  0.94105  0.21825  0.07479  1.0000
  C   C1080     1.0  0.98926  0.37791  0.47365  1.0000
  H   H842      1.0  0.76267  0.30547  0.03448  1.0000
  H   H843      1.0  0.93488  0.25041  0.14993  1.0000
  C   C1081     1.0  0.77847  0.28973  0.03297  1.0000
  C   C1082     1.0  0.79341  0.39078  0.39086  1.0000
  H   H844      1.0  0.83450  0.23262  0.02602  1.0000
  H   H845      1.0  0.95628  0.41515  0.10301  1.0000
  H   H846      1.0  0.94984  0.35220  0.11617  1.0000
  H   H847      1.0  0.99391  0.38938  0.23075  1.0000
  H   H848      1.0  0.81270  0.37501  0.17271  1.0000
  Fe  Fe77      1.0  0.85964  0.47981  0.13792  1.0000
  H   H849      1.0  0.96651  0.02095  0.16042  1.0000
  H   H850      1.0  0.94422  0.06318  0.00093  1.0000
  H   H851      1.0  0.92747  0.35648  0.15519  1.0000
  H   H852      1.0  0.89562  0.36241  0.17905  1.0000
  H   H853      1.0  0.89550  0.32293  0.21649  1.0000
  H   H854      1.0  0.92745  0.27563  0.22950  1.0000
  H   H855      1.0  0.95959  0.26863  0.20566  1.0000
  C   C1083     1.0  0.97524  0.12597  0.99879  1.0000
  Fe  Fe78      1.0  0.68512  0.48724  0.40302  1.0000
  H   H856      1.0  0.78258  0.44766  0.38516  1.0000
  H   H857      1.0  0.98684  0.45084  0.34025  1.0000
  H   H858      1.0  0.69037  0.34910  0.40962  1.0000
  C   C1084     1.0  0.73042  0.41278  0.19160  1.0000
  C   C1085     1.0  0.74397  0.41398  0.21715  1.0000
  C   C1086     1.0  0.73799  0.38968  0.23507  1.0000
  H   H859      1.0  0.73773  0.30085  0.36539  1.0000
  H   H860      1.0  0.72173  0.42123  0.29080  1.0000
  H   H861      1.0  0.68975  0.34538  0.19618  1.0000
  H   H862      1.0  0.75886  0.26045  0.99931  1.0000
  H   H863      1.0  0.70079  0.38738  0.16423  1.0000
  P   P38       1.0  0.76875  0.44658  0.22637  1.0000
  C   C1087     1.0  0.68189  0.35978  0.48498  1.0000
  C   C1088     1.0  0.77572  0.45241  0.26093  1.0000
  C   C1089     1.0  0.93540  0.46601  0.46494  1.0000
  H   H864      1.0  0.72695  0.39680  0.06351  1.0000
  C   C1090     1.0  0.84272  0.43341  0.05990  1.0000
  C   C1091     1.0  0.97642  0.03250  0.14721  1.0000
  C   C1092     1.0  0.97960  0.37046  0.26240  1.0000
  H   H865      1.0  0.71229  0.36374  0.09729  1.0000
  H   H866      1.0  0.71360  0.34678  0.24146  1.0000
  H   H867      1.0  0.83877  0.27795  0.06088  1.0000
  Fe  Fe79      1.0  0.89005  0.36898  0.47326  1.0000
  C   C1093     1.0  0.99292  0.37986  0.16899  1.0000
  H   H868      1.0  0.73472  0.43131  0.17750  1.0000
  C   C1094     1.0  0.94958  0.99260  0.06877  1.0000
  C   C1095     1.0  0.92788  0.00994  0.05599  1.0000
  H   H869      1.0  0.80568  0.29950  0.32087  1.0000
  H   H870      1.0  0.97322  0.19947  0.41164  1.0000
  H   H871      1.0  0.94952  0.42360  0.44489  1.0000
  C   C1096     1.0  0.74334  0.32784  0.10648  1.0000
  C   C1097     1.0  0.79670  0.43148  0.30346  1.0000
  C   C1098     1.0  0.77448  0.33774  0.08248  1.0000
  H   H872      1.0  0.67979  0.38374  0.47269  1.0000
  H   H873      1.0  0.77928  0.49100  0.42827  1.0000
  C   C1099     1.0  0.79186  0.42817  0.27670  1.0000
  H   H874      1.0  0.75103  0.39182  0.47714  1.0000
  H   H875      1.0  0.77821  0.24551  0.31824  1.0000
  H   H876      1.0  0.95160  0.45874  0.36010  1.0000
  C   C1100     1.0  0.66703  0.32842  0.04182  1.0000
  C   C1101     1.0  0.75266  0.30097  0.35585  1.0000
  H   H877      1.0  0.85781  0.43050  0.42240  1.0000
  H   H878      1.0  0.80498  0.43012  0.13597  1.0000
  H   H879      1.0  0.70236  0.47184  0.30945  1.0000
  H   H880      1.0  0.82333  0.47257  0.40502  1.0000
  C   C1102     1.0  0.73439  0.43319  0.36471  1.0000
  H   H881      1.0  0.71054  0.47970  0.35675  1.0000
  C   C1103     1.0  0.71458  0.45327  0.32193  1.0000
  H   H882      1.0  0.73123  0.20217  0.99783  1.0000
  H   H883      1.0  0.80060  0.40652  0.26832  1.0000
  H   H884      1.0  0.85730  0.44479  0.22974  1.0000
  H   H885      1.0  0.67482  0.34784  0.00665  1.0000
  C   C1104     1.0  0.84748  0.31946  0.14948  1.0000
  C   C1105     1.0  0.85120  0.28178  0.15258  1.0000
  C   C1106     1.0  0.84029  0.25769  0.13283  1.0000
  C   C1107     1.0  0.83343  0.33318  0.12643  1.0000
  H   H886      1.0  0.77648  0.29715  0.11238  1.0000
  C   C1108     1.0  0.81439  0.39416  0.18852  1.0000
  H   H887      1.0  0.77598  0.39477  0.18623  1.0000
  H   H888      1.0  0.75902  0.32155  0.46030  1.0000
  H   H889      1.0  0.78074  0.34286  0.42847  1.0000
  H   H890      1.0  0.80929  0.41285  0.31550  1.0000
  H   H891      1.0  0.85557  0.33814  0.16488  1.0000
  C   C1109     1.0  0.82275  0.30925  0.10629  1.0000
  C   C1110     1.0  0.74086  0.40012  0.32762  1.0000
  C   C1111     1.0  0.76582  0.31873  0.10137  1.0000
  C   C1112     1.0  0.74868  0.33145  0.44191  1.0000
  H   H892      1.0  0.71374  0.32433  0.45115  1.0000
  H   H893      1.0  0.95737  0.45574  0.40696  1.0000
  H   H894      1.0  0.84017  0.34261  0.04588  1.0000
  C   C1113     1.0  0.82585  0.27128  0.10989  1.0000
  H   H895      1.0  0.69658  0.23805  0.00528  1.0000
  C   C1114     1.0  0.78725  0.33091  0.34466  1.0000
  H   H896      1.0  0.81046  0.33791  0.40047  1.0000
  S   S150      1.0  0.71560  0.43635  0.12357  1.0000
  H   H897      1.0  0.85351  0.39974  0.19464  1.0000
  C   C1115     1.0  0.75625  0.27011  0.34164  1.0000
  C   C1116     1.0  0.81868  0.44503  0.22849  1.0000
  H   H898      1.0  0.74890  0.37800  0.31906  1.0000
  C   C1117     1.0  0.83733  0.40818  0.20072  1.0000
  C   C1118     1.0  0.73761  0.37450  0.07367  1.0000
  C   C1119     1.0  0.75996  0.36523  0.06831  1.0000
  C   C1120     1.0  0.98700  0.34008  0.47666  1.0000
  C   C1121     1.0  0.80095  0.29463  0.05077  1.0000
  H   H899      1.0  0.82272  0.46037  0.08429  1.0000
  C   C1122     1.0  0.71113  0.38789  0.18405  1.0000
  H   H900      1.0  0.74424  0.24654  0.34048  1.0000
  C   C1123     1.0  0.81298  0.36738  0.40106  1.0000
  P   P39       1.0  0.76379  0.37158  0.37583  1.0000
  C   C1124     1.0  0.76102  0.34380  0.42371  1.0000
  H   H901      1.0  0.80164  0.40429  0.09278  1.0000
  C   C1125     1.0  0.81881  0.24859  0.02789  1.0000
  C   C1126     1.0  0.81861  0.36913  0.06934  1.0000
  C   C1127     1.0  0.84736  0.40017  0.04902  1.0000
  C   C1128     1.0  0.71845  0.36505  0.22752  1.0000
  H   H902      1.0  0.76614  0.38010  0.05351  1.0000
  C   C1129     1.0  0.74797  0.35760  0.40005  1.0000
  H   H903      1.0  0.85109  0.36357  0.42019  1.0000
  C   C1130     1.0  0.79081  0.29998  0.33054  1.0000
  H   H904      1.0  0.96699  0.08922  0.09556  1.0000
  C   C1131     1.0  0.76829  0.33149  0.35765  1.0000
  S   S151      1.0  0.97078  0.27765  0.38530  1.0000
  H   H905      1.0  0.76337  0.40411  0.13266  1.0000
  C   C1132     1.0  0.72934  0.35587  0.09276  1.0000
  S   S152      1.0  0.88429  0.48832  0.11059  1.0000
  H   H906      1.0  0.98213  0.39616  0.48604  1.0000
  C   C1133     1.0  0.98550  0.19015  0.37709  1.0000
  C   C1134     1.0  0.79733  0.42887  0.39231  1.0000
  C   C1135     1.0  0.97312  0.45333  0.39887  1.0000
  C   C1136     1.0  0.76572  0.43336  0.13100  1.0000
  H   H907      1.0  0.97369  0.26478  0.07639  1.0000
  C   C1137     1.0  0.75847  0.48917  0.21037  1.0000
  C   C1138     1.0  0.95378  0.44878  0.45580  1.0000
  C   C1139     1.0  0.98959  0.45068  0.36096  1.0000
  C   C1140     1.0  0.66184  0.29192  0.00301  1.0000
  H   H908      1.0  0.91726  0.45398  0.46109  1.0000
  C   C1141     1.0  0.96974  0.45505  0.37216  1.0000
  S   S153      1.0  0.66932  0.43390  0.38554  1.0000
  C   C1142     1.0  0.98330  0.42845  0.13757  1.0000
  S   S154      1.0  0.87190  0.41824  0.48632  1.0000
  C   C1143     1.0  0.71915  0.45768  0.34854  1.0000
  C   C1144     1.0  0.98129  0.11071  0.02333  1.0000
  C   C1145     1.0  0.77620  0.26416  0.01298  1.0000
  C   C1146     1.0  0.79631  0.24337  0.01057  1.0000
  C   C1147     1.0  0.98854  0.19197  0.40372  1.0000
  H   H909      1.0  0.82064  0.46534  0.24364  1.0000
  C   C1148     1.0  0.71009  0.34719  0.41344  1.0000
  C   C1149     1.0  0.96422  0.01355  0.99856  1.0000
  C   C1150     1.0  0.83946  0.43365  0.22064  1.0000
  H   H910      1.0  0.98714  0.30430  0.11471  1.0000
  Fe  Fe80      1.0  0.84857  0.12266  0.99529  1.0000
  C   C1151     1.0  0.66864  0.32487  0.01629  1.0000
  C   C1152     1.0  0.79259  0.48566  0.12996  1.0000
  H   H911      1.0  0.79460  0.22323  0.99528  1.0000
  H   H912      1.0  0.97775  0.32961  0.49078  1.0000
  H   H913      1.0  0.99271  0.32289  0.21769  1.0000
  C   C1153     1.0  0.78535  0.45881  0.31470  1.0000
  H   H914      1.0  0.72253  0.48644  0.21856  1.0000
  C   C1154     1.0  0.76916  0.48287  0.29919  1.0000
  H   H915      1.0  0.78895  0.46124  0.33543  1.0000
  C   C1155     1.0  0.76432  0.47972  0.27242  1.0000
  H   H916      1.0  0.87088  0.48952  0.45244  1.0000
  H   H917      1.0  0.99342  0.28650  0.46260  1.0000
  H   H918      1.0  0.67188  0.35413  0.05200  1.0000
  C   C1156     1.0  0.66167  0.33745  0.48502  1.0000
  C   C1157     1.0  0.82687  0.48035  0.52665  1.0000
  C   C1158     1.0  0.96019  0.00931  0.80312  1.0000
  C   C1159     1.0  0.78089  0.02217  0.86100  1.0000
  C   C1160     1.0  0.99021  0.46095  0.73518  1.0000
  Fe  Fe81      1.0  0.89644  0.14297  0.97992  1.0000
  S   S155      1.0  0.91254  0.13604  0.94473  1.0000
  Fe  Fe82      1.0  0.68313  0.01429  0.90857  1.0000
  C   C1161     1.0  0.68588  0.13984  0.97679  1.0000
  S   S156      1.0  0.91429  0.35885  0.51218  1.0000
  S   S157      1.0  0.86619  0.36791  0.53563  1.0000
  Fe  Fe83      1.0  0.89453  0.40543  0.52564  1.0000
  S   S158      1.0  0.91747  0.44455  0.55518  1.0000
  Fe  Fe84      1.0  0.88435  0.32165  0.51953  1.0000
  S   S159      1.0  0.89894  0.26866  0.54141  1.0000
  C   C1162     1.0  0.95419  0.26699  0.63377  1.0000
  Fe  Fe85      1.0  0.87550  0.07924  0.62137  1.0000
  S   S160      1.0  0.86959  0.08007  0.66180  1.0000
  S   S161      1.0  0.86163  0.13032  0.59677  1.0000
  Fe  Fe86      1.0  0.90465  0.04847  0.67250  1.0000
  S   S162      1.0  0.93482  0.05251  0.70940  1.0000
  H   H919      1.0  0.98438  0.13054  0.96235  1.0000
  S   S163      1.0  0.91196  0.05053  0.63279  1.0000
  H   H920      1.0  0.72494  0.31335  0.52820  1.0000
  C   C1163     1.0  0.75541  0.06157  0.63057  1.0000
  C   C1164     1.0  0.78007  0.05121  0.63905  1.0000
  H   H921      1.0  0.75099  0.08680  0.62004  1.0000
  H   H922      1.0  0.79441  0.06842  0.63499  1.0000
  C   C1165     1.0  0.96842  0.14948  0.76136  1.0000
  C   C1166     1.0  0.94790  0.15500  0.74096  1.0000
  C   C1167     1.0  0.93732  0.12569  0.72483  1.0000
  C   C1168     1.0  0.94745  0.09068  0.72870  1.0000
  C   C1169     1.0  0.96797  0.08526  0.74906  1.0000
  C   C1170     1.0  0.97847  0.11451  0.76521  1.0000
  H   H923      1.0  0.94006  0.18204  0.73773  1.0000
  H   H924      1.0  0.92134  0.13011  0.70945  1.0000
  H   H925      1.0  0.97588  0.05824  0.75227  1.0000
  H   H926      1.0  0.75943  0.13189  0.75351  1.0000
  C   C1171     1.0  0.88791  0.23031  0.55644  1.0000
  C   C1172     1.0  0.86355  0.22672  0.55803  1.0000
  C   C1173     1.0  0.85594  0.19594  0.57026  1.0000
  C   C1174     1.0  0.87251  0.16840  0.58139  1.0000
  C   C1175     1.0  0.89688  0.17209  0.57993  1.0000
  C   C1176     1.0  0.90444  0.20267  0.56746  1.0000
  H   H927      1.0  0.85054  0.24755  0.54971  1.0000
  H   H928      1.0  0.83704  0.19351  0.57120  1.0000
  H   H929      1.0  0.90979  0.15110  0.58811  1.0000
  H   H930      1.0  0.92325  0.20482  0.56616  1.0000
  H   H931      1.0  0.98739  0.27602  0.66312  1.0000
  H   H932      1.0  0.69384  0.03017  0.72931  1.0000
  C   C1177     1.0  0.89635  0.27347  0.63618  1.0000
  C   C1178     1.0  0.93610  0.16161  0.93572  1.0000
  C   C1179     1.0  0.94325  0.19634  0.94594  1.0000
  C   C1180     1.0  0.96087  0.21673  0.93695  1.0000
  C   C1181     1.0  0.97180  0.20248  0.91796  1.0000
  C   C1182     1.0  0.96545  0.16706  0.90859  1.0000
  C   C1183     1.0  0.94744  0.14696  0.91715  1.0000
  H   H933      1.0  0.93471  0.20797  0.96022  1.0000
  H   H934      1.0  0.96578  0.24401  0.94446  1.0000
  H   H935      1.0  0.97427  0.15535  0.89459  1.0000
  H   H936      1.0  0.94234  0.11990  0.90938  1.0000
  C   C1184     1.0  0.74663  0.03779  0.94106  1.0000
  C   C1185     1.0  0.74151  0.07508  0.94274  1.0000
  C   C1186     1.0  0.76023  0.09998  0.95424  1.0000
  C   C1187     1.0  0.78433  0.08815  0.96419  1.0000
  C   C1188     1.0  0.78955  0.05095  0.96218  1.0000
  C   C1189     1.0  0.77081  0.02601  0.95070  1.0000
  H   H937      1.0  0.72307  0.08466  0.93539  1.0000
  H   H938      1.0  0.75605  0.12869  0.95547  1.0000
  H   H939      1.0  0.82596  0.99545  0.72643  1.0000
  H   H940      1.0  0.94253  0.35625  0.70473  1.0000
  C   C1190     1.0  0.92078  0.43657  0.63607  1.0000
  C   C1191     1.0  0.71147  0.01728  0.79944  1.0000
  C   C1192     1.0  0.68697  0.29767  0.51625  1.0000
  C   C1193     1.0  0.69575  0.07644  0.70549  1.0000
  C   C1194     1.0  0.77129  0.08160  0.80848  1.0000
  C   C1195     1.0  0.76206  0.10539  0.82452  1.0000
  P   P40       1.0  0.76334  0.09369  0.85766  1.0000
  H   H941      1.0  0.97145  0.26551  0.76024  1.0000
  C   C1196     1.0  0.79221  0.10818  0.87797  1.0000
  C   C1197     1.0  0.80046  0.09237  0.90231  1.0000
  C   C1198     1.0  0.82274  0.10335  0.91826  1.0000
  C   C1199     1.0  0.83691  0.13030  0.91015  1.0000
  C   C1200     1.0  0.82881  0.14628  0.88598  1.0000
  C   C1201     1.0  0.80652  0.13532  0.86991  1.0000
  Fe  Fe87      1.0  0.84465  0.37773  0.49481  1.0000
  H   H942      1.0  0.91879  0.02865  0.84545  1.0000
  C   C1202     1.0  0.73642  0.03970  0.63557  1.0000
  H   H943      1.0  0.77463  0.99629  0.79018  1.0000
  H   H944      1.0  0.97947  0.35114  0.73959  1.0000
  C   C1203     1.0  0.73830  0.11602  0.86726  1.0000
  H   H945      1.0  0.92440  0.26292  0.59982  1.0000
  C   C1204     1.0  0.74183  0.13398  0.89108  1.0000
  H   H946      1.0  0.77897  0.05553  0.81544  1.0000
  H   H947      1.0  0.67713  0.08451  0.70469  1.0000
  H   H948      1.0  0.82876  0.09151  0.93723  1.0000
  H   H949      1.0  0.85402  0.13908  0.92279  1.0000
  H   H950      1.0  0.83972  0.16751  0.87990  1.0000
  H   H951      1.0  0.80046  0.14832  0.85141  1.0000
  H   H952      1.0  0.72385  0.04495  0.86718  1.0000
  C   C1205     1.0  0.74244  0.00734  0.64953  1.0000
  H   H953      1.0  0.93158  0.28899  0.73559  1.0000
  H   H954      1.0  0.86244  0.30195  0.62223  1.0000
  H   H955      1.0  0.75957  0.13469  0.90434  1.0000
  C   C1206     1.0  0.80537  0.03346  0.56012  1.0000
  C   C1207     1.0  0.75172  0.14891  0.78934  1.0000
  C   C1208     1.0  0.73348  0.08499  0.69216  1.0000
  H   H956      1.0  0.74623  0.15892  0.82703  1.0000
  C   C1209     1.0  0.96754  0.08195  0.82005  1.0000
  C   C1210     1.0  0.94369  0.06773  0.81284  1.0000
  C   C1211     1.0  0.94020  0.03112  0.80448  1.0000
  P   P41       1.0  0.91768  0.09574  0.81449  1.0000
  C   C1212     1.0  0.90762  0.08551  0.84344  1.0000
  C   C1213     1.0  0.92618  0.14367  0.81514  1.0000
  C   C1214     1.0  0.93935  0.15971  0.83816  1.0000
  C   C1215     1.0  0.94584  0.19679  0.83906  1.0000
  C   C1216     1.0  0.93936  0.21813  0.81695  1.0000
  C   C1217     1.0  0.92631  0.20240  0.79394  1.0000
  C   C1218     1.0  0.91982  0.16526  0.79296  1.0000
  C   C1219     1.0  0.91088  0.05046  0.85446  1.0000
  C   C1220     1.0  0.90424  0.04340  0.87759  1.0000
  C   C1221     1.0  0.89440  0.07127  0.88993  1.0000
  C   C1222     1.0  0.89064  0.10594  0.87883  1.0000
  C   C1223     1.0  0.89692  0.11297  0.85557  1.0000
  C   C1224     1.0  0.89338  0.08685  0.78640  1.0000
  C   C1225     1.0  0.86882  0.09003  0.78748  1.0000
  C   C1226     1.0  0.85019  0.08370  0.76544  1.0000
  C   C1227     1.0  0.85596  0.07415  0.74225  1.0000
  C   C1228     1.0  0.88036  0.07116  0.74106  1.0000
  C   C1229     1.0  0.89898  0.07768  0.76297  1.0000
  C   C1230     1.0  0.96051  0.14372  0.61959  1.0000
  H   H957      1.0  0.72493  0.16393  0.91694  1.0000
  H   H958      1.0  0.96420  0.13602  0.60133  1.0000
  H   H959      1.0  0.97087  0.11021  0.82595  1.0000
  H   H960      1.0  0.91809  0.27709  0.68909  1.0000
  H   H961      1.0  0.94477  0.14344  0.85538  1.0000
  H   H962      1.0  0.95624  0.20890  0.85684  1.0000
  C   C1231     1.0  0.69532  0.13217  0.85803  1.0000
  H   H963      1.0  0.92208  0.21863  0.77660  1.0000
  H   H964      1.0  0.91035  0.15349  0.77477  1.0000
  C   C1232     1.0  0.98838  0.30481  0.62857  1.0000
  S   S164      1.0  0.87891  0.08913  0.98601  1.0000
  C   C1233     1.0  0.93579  0.26747  0.69933  1.0000
  C   C1234     1.0  0.97341  0.23488  0.70073  1.0000
  H   H965      1.0  0.89395  0.14018  0.84746  1.0000
  H   H966      1.0  0.86405  0.09767  0.80521  1.0000
  H   H967      1.0  0.83125  0.08626  0.76626  1.0000
  H   H968      1.0  0.84160  0.06918  0.72512  1.0000
  C   C1235     1.0  0.70544  0.04567  0.71963  1.0000
  H   H969      1.0  0.91776  0.07570  0.76150  1.0000
  S   S165      1.0  0.80688  0.12122  0.97886  1.0000
  H   H970      1.0  0.91561  0.39684  0.60527  1.0000
  C   C1236     1.0  0.72219  0.15077  0.89831  1.0000
  H   H971      1.0  0.68365  0.16216  0.88767  1.0000
  C   C1237     1.0  0.98986  0.11933  0.98152  1.0000
  H   H972      1.0  0.75071  0.04387  0.57626  1.0000
  H   H973      1.0  0.80793  0.04130  0.96975  1.0000
  H   H974      1.0  0.93036  0.47934  0.66433  1.0000
  H   H975      1.0  0.96603  0.04567  0.87117  1.0000
  C   C1238     1.0  0.74349  0.05478  0.70683  1.0000
  C   C1239     1.0  0.76799  0.05065  0.57190  1.0000
  C   C1240     1.0  0.85410  0.45319  0.56358  1.0000
  C   C1241     1.0  0.87092  0.27594  0.62846  1.0000
  C   C1242     1.0  0.81474  0.99604  0.74040  1.0000
  H   H976      1.0  0.78949  0.07195  0.90920  1.0000
  H   H977      1.0  0.80515  0.12490  0.57246  1.0000
  H   H978      1.0  0.81726  0.01294  0.55503  1.0000
  H   H979      1.0  0.82543  0.42373  0.53728  1.0000
  C   C1243     1.0  0.77595  0.08718  0.57439  1.0000
  Fe  Fe88      1.0  0.85087  0.02543  0.65192  1.0000
  H   H980      1.0  0.71155  0.10106  0.83250  1.0000
  C   C1244     1.0  0.95543  0.12675  0.66165  1.0000
  H   H981      1.0  0.68944  0.27375  0.52842  1.0000
  H   H982      1.0  0.95533  0.10591  0.67605  1.0000
  H   H983      1.0  0.74392  0.09920  0.68051  1.0000
  H   H984      1.0  0.77738  0.07283  0.77057  1.0000
  S   S166      1.0  0.70574  0.05445  0.62396  1.0000
  C   C1245     1.0  0.79861  0.09680  0.56987  1.0000
  C   C1246     1.0  0.97194  0.04596  0.91244  1.0000
  H   H985      1.0  0.84531  0.99861  0.77309  1.0000
  H   H986      1.0  0.68291  0.11235  0.96880  1.0000
  C   C1247     1.0  0.92823  0.41575  0.61738  1.0000
  C   C1248     1.0  0.96218  0.36775  0.67567  1.0000
  H   H987      1.0  0.76477  0.10792  0.58039  1.0000
  C   C1249     1.0  0.76042  0.12470  0.77336  1.0000
  C   C1250     1.0  0.94209  0.27490  0.60833  1.0000
  C   C1251     1.0  0.70722  0.32009  0.51618  1.0000
  H   H988      1.0  0.98174  0.44062  0.74505  1.0000
  H   H989      1.0  0.72692  0.04783  0.77301  1.0000
  C   C1252     1.0  0.94573  0.03902  0.98965  1.0000
  C   C1253     1.0  0.77046  0.09129  0.78300  1.0000
  C   C1254     1.0  0.86603  0.48686  0.56950  1.0000
  C   C1255     1.0  0.76075  0.04461  0.86122  1.0000
  H   H990      1.0  0.88352  0.12772  0.88875  1.0000
  C   C1256     1.0  0.94918  0.18993  0.64739  1.0000
  Fe  Fe89      1.0  0.66959  0.02930  0.62853  1.0000
  H   H991      1.0  0.95487  0.03227  0.91249  1.0000
  C   C1257     1.0  0.70963  0.09580  0.69146  1.0000
  H   H992      1.0  0.95696  0.40534  0.59813  1.0000
  C   C1258     1.0  0.98092  0.24188  0.72710  1.0000
  H   H993      1.0  0.98252  0.05022  0.95349  1.0000
  C   C1259     1.0  0.70467  0.35118  0.50062  1.0000
  C   C1260     1.0  0.81323  0.06998  0.56261  1.0000
  S   S167      1.0  0.86483  0.17651  0.98659  1.0000
  H   H994      1.0  0.96495  0.08884  0.63478  1.0000
  C   C1261     1.0  0.95168  0.42045  0.61342  1.0000
  H   H995      1.0  0.90704  0.01647  0.88616  1.0000
  C   C1262     1.0  0.94954  0.16296  0.66613  1.0000
  C   C1263     1.0  0.69896  0.14987  0.88181  1.0000
  C   C1264     1.0  0.94339  0.27440  0.72573  1.0000
  H   H996      1.0  0.70165  0.11849  0.67944  1.0000
  C   C1265     1.0  0.97600  0.31300  0.60342  1.0000
  H   H997      1.0  0.85614  0.18657  0.63513  1.0000
  C   C1266     1.0  0.71487  0.11526  0.85079  1.0000
  H   H998      1.0  0.88992  0.06635  0.90826  1.0000
  H   H999      1.0  0.90729  0.29796  0.63627  1.0000
  H   H1000     1.0  0.76175  0.04692  0.70635  1.0000
  C   C1267     1.0  0.77444  0.99542  0.74962  1.0000
  C   C1268     1.0  0.75278  0.13952  0.81488  1.0000
  C   C1269     1.0  0.90750  0.23944  0.64308  1.0000
  H   H1001     1.0  0.94331  0.30381  0.57368  1.0000
  H   H1002     1.0  0.88497  0.06394  0.72309  1.0000
  H   H1003     1.0  0.83676  0.24633  0.62167  1.0000
  C   C1270     1.0  0.78934  0.99474  0.73196  1.0000
  H   H1004     1.0  0.98437  0.33054  0.59157  1.0000
  C   C1271     1.0  0.89275  0.20828  0.64315  1.0000
  H   H1005     1.0  0.94484  0.16971  0.68403  1.0000
  H   H1006     1.0  0.96505  0.45197  0.69895  1.0000
  C   C1272     1.0  0.73941  0.02859  0.86574  1.0000
  C   C1273     1.0  0.96590  0.26148  0.73960  1.0000
  H   H1007     1.0  0.74411  0.17499  0.78193  1.0000
  H   H1008     1.0  0.81218  0.47675  0.50967  1.0000
  C   C1274     1.0  0.98139  0.35755  0.72047  1.0000
  C   C1275     1.0  0.95069  0.24741  0.68664  1.0000
  C   C1276     1.0  0.96763  0.44635  0.62782  1.0000
  S   S168      1.0  0.72355  0.00485  0.92753  1.0000
  C   C1277     1.0  0.97814  0.05364  0.88922  1.0000
  C   C1278     1.0  0.86734  0.21101  0.63581  1.0000
  H   H1009     1.0  0.90240  0.43347  0.63870  1.0000
  C   C1279     1.0  0.96020  0.46771  0.64645  1.0000
  C   C1280     1.0  0.95468  0.18001  0.62404  1.0000
  H   H1010     1.0  0.81944  0.99884  0.80481  1.0000
  H   H1011     1.0  0.70666  0.04146  0.80891  1.0000
  P   P42       1.0  0.74146  0.99391  0.73848  1.0000
  C   C1281     1.0  0.95287  0.29803  0.59333  1.0000
  H   H1012     1.0  0.98505  0.21877  0.69153  1.0000
  H   H1013     1.0  0.91442  0.05297  0.95982  1.0000
  H   H1014     1.0  0.90063  0.18158  0.64823  1.0000
  H   H1015     1.0  0.77502  0.99726  0.94956  1.0000
  C   C1282     1.0  0.96032  0.36033  0.70069  1.0000
  H   H1016     1.0  0.98527  0.45053  0.62354  1.0000
  P   P43       1.0  0.94039  0.23630  0.65286  1.0000
  C   C1283     1.0  0.98078  0.46754  0.70899  1.0000
  H   H1017     1.0  0.94501  0.24660  0.81754  1.0000
  C   C1284     1.0  0.72276  0.02071  0.77895  1.0000
  C   C1285     1.0  0.82559  0.99773  0.76664  1.0000
  H   H1018     1.0  0.86053  0.42934  0.57511  1.0000
  C   C1286     1.0  0.96088  0.11711  0.63838  1.0000
  C   C1287     1.0  0.85643  0.24468  0.62819  1.0000
  C   C1288     1.0  0.72954  0.03468  0.72070  1.0000
  S   S169      1.0  0.85513  0.02547  0.61119  1.0000
  H   H1019     1.0  0.72035  0.36854  0.50058  1.0000
  S   S170      1.0  0.99265  0.23034  0.90609  1.0000
  H   H1020     1.0  0.94587  0.36924  0.66029  1.0000
  H   H1021     1.0  0.67718  0.13058  0.84547  1.0000
  H   H1022     1.0  0.83103  0.07742  0.55963  1.0000
  C   C1289     1.0  0.78613  0.01896  0.65305  1.0000
  C   C1290     1.0  0.83446  0.44999  0.54223  1.0000
  H   H1023     1.0  0.95394  0.19992  0.60897  1.0000
  C   C1291     1.0  0.97749  0.28206  0.64376  1.0000
  H   H1024     1.0  0.88189  0.48894  0.58544  1.0000
  H   H1025     1.0  0.79785  0.03404  0.85856  1.0000
  C   C1292     1.0  0.98384  0.02374  0.81032  1.0000
  C   C1293     1.0  0.98764  0.05642  0.93569  1.0000
  Fe  Fe90      1.0  0.89121  0.99640  0.62580  1.0000
  S   S171      1.0  0.98109  0.18729  0.78101  1.0000
  C   C1294     1.0  0.93668  0.46246  0.65056  1.0000
  S   S172      1.0  0.66982  0.06705  0.88940  1.0000
  C   C1295     1.0  0.76713  0.99698  0.65806  1.0000
  S   S173      1.0  0.81708  0.00596  0.66567  1.0000
  C   C1296     1.0  0.70930  0.15516  0.98275  1.0000
  C   C1297     1.0  0.92855  0.03290  0.96661  1.0000
  H   H1026     1.0  0.92199  0.01959  0.79851  1.0000
  C   C1298     1.0  0.78266  0.02347  0.56470  1.0000
  C   C1299     1.0  0.98750  0.05999  0.81881  1.0000
  H   H1027     1.0  0.77750  0.01170  0.51336  1.0000
  C   C1300     1.0  0.66618  0.15981  0.98122  1.0000
  H   H1028     1.0  0.72461  0.13934  0.97971  1.0000
  H   H1029     1.0  0.98654  0.37835  0.65101  1.0000
  C   C1301     1.0  0.98511  0.37279  0.67044  1.0000
  C   C1302     1.0  0.92917  0.00050  0.95286  1.0000
  C   C1303     1.0  0.81099  0.99796  0.78445  1.0000
  C   C1304     1.0  0.78553  0.99659  0.77602  1.0000
  C   C1305     1.0  0.66395  0.30620  0.50066  1.0000
  H   H1030     1.0  0.95891  0.14236  0.99286  1.0000
  H   H1031     1.0  0.66452  0.19195  0.57293  1.0000
  H   H1032     1.0  0.99456  0.11014  0.78043  1.0000
  H   H1033     1.0  0.91524  0.99513  0.93555  1.0000
  S   S174      1.0  0.88564  0.99344  0.66591  1.0000
  H   H1034     1.0  0.78141  0.99257  0.71158  1.0000
  H   H1035     1.0  0.72272  0.99863  0.54464  1.0000
  H   H1036     1.0  0.66275  0.28972  0.98308  1.0000
  H   H1037     1.0  0.66342  0.13734  0.54514  1.0000
  C   C1306     1.0  0.71297  0.19062  0.99294  1.0000
  C   C1307     1.0  0.66954  0.19568  0.99109  1.0000
  H   H1038     1.0  0.97568  0.67976  0.15129  1.0000
  S   S175      1.0  0.96784  0.80197  0.07095  1.0000
  H   H1039     1.0  0.67054  0.54248  0.25951  1.0000
  S   S176      1.0  0.96242  0.81692  0.12848  1.0000
  Fe  Fe91      1.0  0.97282  0.76851  0.10714  1.0000
  S   S177      1.0  0.95225  0.71261  0.10099  1.0000
  Fe  Fe92      1.0  0.96036  0.85104  0.09310  1.0000
  S   S178      1.0  0.92755  0.88679  0.07552  1.0000
  C   C1308     1.0  0.94947  0.90850  0.00751  1.0000
  C   C1309     1.0  0.85228  0.51750  0.47769  1.0000
  C   C1310     1.0  0.87434  0.54815  0.44995  1.0000
  S   S179      1.0  0.94071  0.55516  0.15176  1.0000
  H   H1040     1.0  0.93523  0.63403  0.21226  1.0000
  H   H1041     1.0  0.97052  0.61867  0.17003  1.0000
  C   C1311     1.0  0.97228  0.90587  0.00122  1.0000
  H   H1042     1.0  0.93848  0.81829  0.01626  1.0000
  H   H1043     1.0  0.98781  0.93275  0.04989  1.0000
  H   H1044     1.0  0.75669  0.56381  0.43947  1.0000
  C   C1312     1.0  0.84666  0.55147  0.48721  1.0000
  C   C1313     1.0  0.94771  0.84258  0.01162  1.0000
  C   C1314     1.0  0.74732  0.54355  0.47357  1.0000
  H   H1045     1.0  0.76015  0.50383  0.30793  1.0000
  S   S180      1.0  0.66380  0.52165  0.37014  1.0000
  H   H1046     1.0  0.91262  0.58177  0.18797  1.0000
  C   C1315     1.0  0.94939  0.66917  0.11583  1.0000
  C   C1316     1.0  0.93273  0.64294  0.10226  1.0000
  C   C1317     1.0  0.92933  0.60848  0.11308  1.0000
  C   C1318     1.0  0.94300  0.59922  0.13756  1.0000
  C   C1319     1.0  0.95977  0.62535  0.15111  1.0000
  C   C1320     1.0  0.96281  0.66012  0.14049  1.0000
  H   H1047     1.0  0.92248  0.64930  0.08309  1.0000
  H   H1048     1.0  0.91654  0.58877  0.10225  1.0000
  C   C1321     1.0  0.92042  0.63907  0.19571  1.0000
  C   C1322     1.0  0.90766  0.60961  0.18203  1.0000
  C   C1323     1.0  0.92839  0.93403  0.06766  1.0000
  C   C1324     1.0  0.90681  0.95121  0.05448  1.0000
  C   C1325     1.0  0.77204  0.50854  0.12612  1.0000
  C   C1326     1.0  0.94984  0.95489  0.07456  1.0000
  H   H1049     1.0  0.89010  0.93534  0.04906  1.0000
  H   H1050     1.0  0.96652  0.94200  0.08466  1.0000
  H   H1051     1.0  0.94585  0.90748  0.13007  1.0000
  H   H1052     1.0  0.70803  0.54338  0.19590  1.0000
  H   H1053     1.0  0.73455  0.57810  0.17319  1.0000
  H   H1054     1.0  0.80064  0.56985  0.45966  1.0000
  C   C1327     1.0  0.97317  0.90756  0.19384  1.0000
  C   C1328     1.0  0.91430  0.67490  0.18776  1.0000
  C   C1329     1.0  0.95825  0.91537  0.14802  1.0000
  H   H1055     1.0  0.97267  0.89303  0.21130  1.0000
  H   H1056     1.0  0.94134  0.93489  0.00942  1.0000
  C   C1330     1.0  0.78842  0.55981  0.47099  1.0000
  C   C1331     1.0  0.99229  0.95259  0.17138  1.0000
  S   S181      1.0  0.67781  0.52244  0.14216  1.0000
  H   H1057     1.0  0.87451  0.60717  0.45152  1.0000
  H   H1058     1.0  0.94380  0.87588  0.17039  1.0000
  C   C1332     1.0  0.98393  0.74347  0.47659  1.0000
  H   H1059     1.0  0.97653  0.54917  0.22109  1.0000
  H   H1060     1.0  0.98410  0.57702  0.36658  1.0000
  H   H1061     1.0  0.88538  0.54684  0.43591  1.0000
  H   H1062     1.0  0.75158  0.49853  0.26092  1.0000
  C   C1333     1.0  0.72639  0.53404  0.19654  1.0000
  C   C1334     1.0  0.80657  0.66273  0.16546  1.0000
  C   C1335     1.0  0.78518  0.65421  0.14711  1.0000
  C   C1336     1.0  0.78608  0.64800  0.12159  1.0000
  C   C1337     1.0  0.80838  0.65008  0.11444  1.0000
  C   C1338     1.0  0.83003  0.65790  0.13287  1.0000
  C   C1339     1.0  0.82892  0.66473  0.15839  1.0000
  P   P44       1.0  0.85880  0.65998  0.12354  1.0000
  C   C1340     1.0  0.85878  0.62413  0.10012  1.0000
  C   C1341     1.0  0.86304  0.70438  0.11016  1.0000
  C   C1342     1.0  0.88642  0.71560  0.10817  1.0000
  C   C1343     1.0  0.88999  0.74992  0.09808  1.0000
  C   C1344     1.0  0.87025  0.77338  0.08982  1.0000
  C   C1345     1.0  0.84688  0.76244  0.09159  1.0000
  C   C1346     1.0  0.84325  0.72806  0.10170  1.0000
  C   C1347     1.0  0.84782  0.59000  0.10252  1.0000
  C   C1348     1.0  0.84749  0.56237  0.08433  1.0000
  C   C1349     1.0  0.85838  0.56827  0.06379  1.0000
  C   C1350     1.0  0.86928  0.60210  0.06121  1.0000
  C   C1351     1.0  0.86934  0.63002  0.07918  1.0000
  C   C1352     1.0  0.88314  0.65170  0.15162  1.0000
  C   C1353     1.0  0.89554  0.68125  0.16602  1.0000
  H   H1063     1.0  0.96528  0.51596  0.25701  1.0000
  P   P45       1.0  0.98839  0.94715  0.99603  1.0000
  C   C1354     1.0  0.88924  0.61579  0.15997  1.0000
  H   H1064     1.0  0.80587  0.66762  0.18523  1.0000
  H   H1065     1.0  0.76790  0.65244  0.15262  1.0000
  H   H1066     1.0  0.76951  0.64136  0.10735  1.0000
  H   H1067     1.0  0.80876  0.64521  0.09457  1.0000
  H   H1068     1.0  0.84529  0.67127  0.17290  1.0000
  H   H1069     1.0  0.90198  0.69786  0.11451  1.0000
  H   H1070     1.0  0.90816  0.75828  0.09668  1.0000
  H   H1071     1.0  0.87316  0.80002  0.08205  1.0000
  H   H1072     1.0  0.83160  0.78067  0.08512  1.0000
  H   H1073     1.0  0.82502  0.72021  0.10289  1.0000
  H   H1074     1.0  0.83959  0.58450  0.11851  1.0000
  H   H1075     1.0  0.83902  0.53616  0.08642  1.0000
  H   H1076     1.0  0.85852  0.54653  0.05001  1.0000
  H   H1077     1.0  0.87793  0.60664  0.04542  1.0000
  H   H1078     1.0  0.87791  0.65590  0.07674  1.0000
  H   H1079     1.0  0.89092  0.70927  0.16045  1.0000
  C   C1355     1.0  0.86620  0.51588  0.45927  1.0000
  H   H1080     1.0  0.88014  0.59236  0.14943  1.0000
  H   H1081     1.0  0.77633  0.55590  0.17406  1.0000
  H   H1082     1.0  0.97930  0.81321  0.00665  1.0000
  H   H1083     1.0  0.91996  0.87928  0.01802  1.0000
  C   C1356     1.0  0.97584  0.94260  0.14829  1.0000
  C   C1357     1.0  0.90653  0.98892  0.04859  1.0000
  C   C1358     1.0  0.86823  0.58211  0.45876  1.0000
  C   C1359     1.0  0.98362  0.76532  0.45511  1.0000
  C   C1360     1.0  0.75140  0.93925  0.47704  1.0000
  C   C1361     1.0  0.76487  0.54119  0.18438  1.0000
  C   C1362     1.0  0.95698  0.89774  0.17077  1.0000
  H   H1084     1.0  0.84619  0.49216  0.48463  1.0000
  H   H1085     1.0  0.97675  0.95551  0.13039  1.0000
  H   H1086     1.0  0.77431  0.53771  0.12389  1.0000
  C   C1363     1.0  0.85428  0.58382  0.47715  1.0000
  C   C1364     1.0  0.74136  0.55364  0.18383  1.0000
  H   H1087     1.0  0.96776  0.78184  0.44715  1.0000
  C   C1365     1.0  0.94050  0.49824  0.47935  1.0000
  C   C1366     1.0  0.93722  0.87695  0.01249  1.0000
  C   C1367     1.0  0.74852  0.49405  0.12491  1.0000
  H   H1088     1.0  0.92429  0.69778  0.19826  1.0000
  C   C1368     1.0  0.96408  0.51302  0.48491  1.0000
  C   C1369     1.0  0.98289  0.52962  0.26006  1.0000
  H   H1089     1.0  0.74636  0.93035  0.45717  1.0000
  C   C1370     1.0  0.66239  0.51560  0.25968  1.0000
  C   C1371     1.0  0.76350  0.55684  0.45952  1.0000
  S   S182      1.0  0.82161  0.50557  0.13034  1.0000
  Fe  Fe93      1.0  0.91329  0.50656  0.14505  1.0000
  H   H1090     1.0  0.79147  0.49963  0.19705  1.0000
  H   H1091     1.0  0.76596  0.99118  0.46839  1.0000
  H   H1092     1.0  0.84968  0.61041  0.48364  1.0000
  C   C1372     1.0  0.99080  0.93486  0.19419  1.0000
  S   S183      1.0  0.72669  0.49465  0.41665  1.0000
  C   C1373     1.0  0.98256  0.49574  0.47586  1.0000
  C   C1374     1.0  0.98289  0.87118  0.00081  1.0000
  C   C1375     1.0  0.77342  0.50907  0.19754  1.0000
  C   C1376     1.0  0.73477  0.50175  0.20951  1.0000
  S   S184      1.0  0.66204  0.51411  0.20804  1.0000
  C   C1377     1.0  0.76244  0.97351  0.48336  1.0000
  H   H1093     1.0  0.92627  0.51157  0.48643  1.0000
  H   H1094     1.0  0.72812  0.54031  0.46433  1.0000
  H   H1095     1.0  0.73292  0.51204  0.12179  1.0000
  C   C1378     1.0  0.98927  0.54816  0.23977  1.0000
  S   S185      1.0  0.88790  0.50147  0.17173  1.0000
  H   H1096     1.0  0.99440  0.51242  0.29926  1.0000
  H   H1097     1.0  0.96842  0.74307  0.48533  1.0000
  C   C1379     1.0  0.97061  0.83972  0.00599  1.0000
  H   H1098     1.0  0.73836  0.88989  0.49151  1.0000
  H   H1099     1.0  0.66250  0.51835  0.30017  1.0000
  C   C1380     1.0  0.83323  0.90875  0.57801  1.0000
  H   H1100     1.0  0.88247  0.65335  0.55682  1.0000
  S   S186      1.0  0.95261  0.67674  0.61302  1.0000
  H   H1101     1.0  0.76503  0.93513  0.60723  1.0000
  S   S187      1.0  0.96529  0.71143  0.56157  1.0000
  Fe  Fe94      1.0  0.96415  0.73241  0.60122  1.0000
  S   S188      1.0  0.94834  0.78395  0.61756  1.0000
  Fe  Fe95      1.0  0.95659  0.65495  0.57483  1.0000
  S   S189      1.0  0.92874  0.61820  0.54773  1.0000
  H   H1102     1.0  0.72191  0.97887  0.87379  1.0000
  H   H1103     1.0  0.91442  0.58762  0.61730  1.0000
  P   P46       1.0  0.82945  0.55333  0.51175  1.0000
  C   C1381     1.0  0.92829  0.58311  0.63480  1.0000
  S   S190      1.0  0.90283  0.94780  0.60297  1.0000
  C   C1382     1.0  0.96556  0.57279  0.67893  1.0000
  H   H1104     1.0  0.75311  0.87606  0.69635  1.0000
  H   H1105     1.0  0.95330  0.56464  0.58524  1.0000
  H   H1106     1.0  0.83861  0.94533  0.63756  1.0000
  H   H1107     1.0  0.94718  0.94909  0.95151  1.0000
  C   C1383     1.0  0.95179  0.60493  0.67590  1.0000
  C   C1384     1.0  0.74691  0.91647  0.49637  1.0000
  H   H1108     1.0  0.69386  0.97095  0.70766  1.0000
  H   H1109     1.0  0.98567  0.97164  0.94224  1.0000
  H   H1110     1.0  0.72807  0.99026  0.65363  1.0000
  C   C1385     1.0  0.93579  0.82964  0.61300  1.0000
  C   C1386     1.0  0.93047  0.84856  0.63408  1.0000
  C   C1387     1.0  0.92059  0.88447  0.63154  1.0000
  C   C1388     1.0  0.91569  0.90235  0.60774  1.0000
  C   C1389     1.0  0.92091  0.88336  0.58666  1.0000
  C   C1390     1.0  0.93091  0.84754  0.58923  1.0000
  H   H1111     1.0  0.93406  0.83533  0.65261  1.0000
  H   H1112     1.0  0.91676  0.89831  0.64802  1.0000
  H   H1113     1.0  0.91728  0.89657  0.56812  1.0000
  H   H1114     1.0  0.93478  0.83378  0.57274  1.0000
  C   C1391     1.0  0.92739  0.56954  0.54907  1.0000
  C   C1392     1.0  0.91159  0.55006  0.52911  1.0000
  H   H1115     1.0  0.85987  0.90291  0.61390  1.0000
  C   C1393     1.0  0.94092  0.55001  0.56995  1.0000
  H   H1116     1.0  0.90152  0.56469  0.51252  1.0000
  C   C1394     1.0  0.84282  0.91546  0.60414  1.0000
  H   H1117     1.0  0.95634  0.62661  0.69012  1.0000
  C   C1395     1.0  0.71072  0.95136  0.79447  1.0000
  C   C1396     1.0  0.94733  0.97463  0.96191  1.0000
  H   H1118     1.0  0.76736  0.92883  0.72453  1.0000
  C   C1397     1.0  0.78086  0.53674  0.51082  1.0000
  C   C1398     1.0  0.82109  0.64756  0.55098  1.0000
  H   H1119     1.0  0.84865  0.68684  0.56901  1.0000
  C   C1399     1.0  0.96053  0.54524  0.66004  1.0000
  H   H1120     1.0  0.89588  0.49727  0.51539  1.0000
  C   C1400     1.0  0.81170  0.92595  0.56515  1.0000
  C   C1401     1.0  0.76460  0.96226  0.52853  1.0000
  C   C1402     1.0  0.74804  0.94686  0.59687  1.0000
  H   H1121     1.0  0.75722  0.93955  0.87248  1.0000
  C   C1403     1.0  0.76903  0.98505  0.50900  1.0000
  C   C1404     1.0  0.80965  0.95711  0.60454  1.0000
  H   H1122     1.0  0.67976  0.91679  0.68093  1.0000
  C   C1405     1.0  0.75350  0.92789  0.52203  1.0000
  C   C1406     1.0  0.72702  0.94037  0.60590  1.0000
  C   C1407     1.0  0.79968  0.95020  0.57842  1.0000
  H   H1123     1.0  0.84296  0.89092  0.56768  1.0000
  H   H1124     1.0  0.80633  0.66219  0.55628  1.0000
  H   H1125     1.0  0.75001  0.90990  0.53686  1.0000
  H   H1126     1.0  0.70928  0.86960  0.67444  1.0000
  C   C1408     1.0  0.70708  0.95067  0.70530  1.0000
  C   C1409     1.0  0.69900  0.91989  0.69001  1.0000
  C   C1410     1.0  0.71560  0.89322  0.68654  1.0000
  S   S191      1.0  0.66359  0.97869  0.87510  1.0000
  C   C1411     1.0  0.93810  0.51166  0.57120  1.0000
  C   C1412     1.0  0.75598  0.53358  0.49922  1.0000
  C   C1413     1.0  0.93326  0.61018  0.65383  1.0000
  S   S192      1.0  0.66256  0.97196  0.64020  1.0000
  C   C1414     1.0  0.90852  0.51179  0.53053  1.0000
  H   H1127     1.0  0.92326  0.63570  0.65112  1.0000
  H   H1128     1.0  0.72811  0.92444  0.62315  1.0000
  C   C1415     1.0  0.83536  0.59576  0.52990  1.0000
  C   C1416     1.0  0.70467  0.95498  0.59300  1.0000
  H   H1129     1.0  0.66286  0.98449  0.98922  1.0000
  Fe  Fe96      1.0  0.99260  0.66382  0.62693  1.0000
  H   H1130     1.0  0.77150  0.97160  0.66843  1.0000
  C   C1417     1.0  0.74832  0.92729  0.71466  1.0000
  H   H1131     1.0  0.72551  0.93010  0.76402  1.0000
  C   C1418     1.0  0.96546  0.98146  0.98442  1.0000
  C   C1419     1.0  0.86394  0.64267  0.55132  1.0000
  H   H1132     1.0  0.69611  0.98025  0.82267  1.0000
  H   H1133     1.0  0.70570  0.92458  0.80031  1.0000
  C   C1420     1.0  0.83861  0.51448  0.53260  1.0000
  H   H1134     1.0  0.86835  0.54284  0.55876  1.0000
  C   C1421     1.0  0.85832  0.51743  0.55414  1.0000
  H   H1135     1.0  0.98054  0.57029  0.69560  1.0000
  C   C1422     1.0  0.75815  0.96868  0.86893  1.0000
  C   C1423     1.0  0.85919  0.61003  0.53728  1.0000
  C   C1424     1.0  0.73182  0.95477  0.71768  1.0000
  H   H1136     1.0  0.87422  0.59605  0.53219  1.0000
  C   C1425     1.0  0.79733  0.54929  0.49665  1.0000
  H   H1137     1.0  0.98609  0.55556  0.62219  1.0000
  C   C1426     1.0  0.72186  0.95467  0.77382  1.0000
  H   H1138     1.0  0.79519  0.96726  0.86484  1.0000
  C   C1427     1.0  0.81631  0.61483  0.53692  1.0000
  C   C1428     1.0  0.94178  0.55075  0.63792  1.0000
  H   H1139     1.0  0.80122  0.97683  0.61479  1.0000
  H   H1140     1.0  0.78728  0.52900  0.53076  1.0000
  C   C1429     1.0  0.84490  0.66147  0.55817  1.0000
  C   C1430     1.0  0.74680  0.96816  0.57480  1.0000
  H   H1141     1.0  0.80503  0.92101  0.54480  1.0000
  H   H1142     1.0  0.94862  0.49685  0.58744  1.0000
  H   H1143     1.0  0.68842  0.95018  0.60007  1.0000
  P   P47       1.0  0.77334  0.97583  0.56188  1.0000
  C   C1431     1.0  0.83091  0.93942  0.61743  1.0000
  H   H1144     1.0  0.93788  0.53046  0.62275  1.0000
  C   C1432     1.0  0.72416  0.98234  0.56178  1.0000
  C   C1433     1.0  0.74026  0.89691  0.69887  1.0000
  H   H1145     1.0  0.95733  0.98141  0.79601  1.0000
  H   H1146     1.0  0.79774  0.60470  0.53158  1.0000
  H   H1147     1.0  0.68591  0.98765  0.56126  1.0000
  H   H1148     1.0  0.74341  0.52297  0.50997  1.0000
  C   C1434     1.0  0.73817  0.99080  0.86951  1.0000
  C   C1435     1.0  0.72772  0.98943  0.76569  1.0000
  H   H1149     1.0  0.97886  0.77239  0.67117  1.0000
  C   C1436     1.0  0.70325  0.97602  0.57100  1.0000
  C   C1437     1.0  0.77951  0.98435  0.86465  1.0000
  C   C1438     1.0  0.70543  0.98266  0.80719  1.0000
  H   H1150     1.0  0.99443  0.71406  0.69229  1.0000
  P   P48       1.0  0.97927  0.50469  0.66271  1.0000
  H   H1151     1.0  0.99272  0.72170  0.86043  1.0000
  C   C1439     1.0  0.92164  0.49241  0.55171  1.0000
  C   C1440     1.0  0.99159  0.49419  0.69624  1.0000
  H   H1152     1.0  0.96807  0.53770  0.49652  1.0000
