data_image0
_chemical_formula_structural       FeSHFeS2FeSFeS2CH3CH2SFeSFeSH2S2FeS2FeSHFeSFeS3C2HCH2C8H3C3PH2C2HC2HC3H5CHCH2C7H3C5SPCH2CHC9H2C3HSH2C2H9FeC2H2CHC4H3C3HC9HCHC3H3C5SC5PCH2C2HCH2C4H2CHCHC4HCSH3CHC4HC2HCHCH3CH4PCHCHCH5C4H2C2H2C2HCH3CHC3H2CHCH2CH3C2H2C2H2CHC2HPC3H2C6H2C3HCHCHC6SCH2C3HCHC2H4CHC2H2CH3FeSCFeSHFeSFeCSH4CHSFeS2FeS2FeSFeS3FeSHCS2C2HC4HCHC3H2CPH2CH2C2H4C3H2C4H2C6H4CHFeCHCHC2HC3HC2HSC4SHSCH4C4HC3SCPC6HCHC2HCHC2HC7PC16H19SC2HCHCH5CH2CHCSHC3HCFeHSC2H2C2PC2H2C3H2C2HCHC2FeHC3HCHCH5CHCHC2HC2H2CHC2H2C2HCHC2H2CH3SCHCH3C7HC2H2C2HC3H3C2HCH4C2H4CHC2HCHCSC2HPCHCHCHC2HC2H6FeS2FeS2FeSFeS3HFeCSHSFeCFeSHFeS2FeS2FeSFeS3H3C4H2CH2C5H3CH3C2HSCH3CSHC13H4CH2C3H4C2H6CHC4PHCH2CHCHCHCHC4HCHC2H2CHC2H2CH2CH2CHC2HCHCHC2H2CHPC3HC2H3C7H3CSH2CHSHCHCSH3C6PC9HC8H23C2HCHPHCH7CHC2H2C2H2C4H3C2HCHSC2HC4PC7HC5HFeCHC5H6FeCH2CHCHCHC6PC17HPCHCH5SHC6HC2HFeHCFeS2FeSCFeSFeS3CHCPCHFeSFeSHFeSFeS2HSHCHFeC2HCH3CHC4FeH4C8HC6H4CHC6HC5H2C2H2CHCPHC2H3CH2C3HCSC3H2CH2CH2C2SHC3PC7H2CHC2HCH2PHCSCHCH3CH3CHSCHC2H2CH4CH3CH3C3HCHCHCH5CH4C2H3C8PC18H6SCH3CHCH2CH3C6PC13H4CH2CH8C2H2C3H3C4HCHCH3CH2C2HC6HCH3CHCH2C4H2SH5SH2C2H3C5H2C2H2CSC3HCHC8HCH2CHPHCHC3H4CHCSFeSC2HFeS2FeSCFeSFeS3FeSCFeS2FeSFeS4CSC4H2C2HCH2C3H4C6H7C7HC6H2CHCHSHC6PC18H2CH17CHC2FeHC3HC3HCH5CH3C4H2PH2C4H2SHCH4CHCH2C3HFeSH2CHC5HC2H2C3HCH3CHCHCHCHC2H2C3H2C2HC3HC2HCHC3HPC2H2CH2CHC2H2CHCH2CH3CH3C2HC2H4CH4C3PC4HC4HC3FeSH4C2HC3HCHCHCPC2H2CHCH5C2HC3HCHCHCHC3FeSCFeS2FeSFeS3CHC6HFeS2FeS2FeHFeCS2CS3CSC3HC6H2C2HC2HC4H3C8H2C6H4C4HC2HC6H4C2H2C2H2C3PCHCH4CH2C6SH3SH2PHSHCHCH5FeHCHC2HFeS2HC8PC18H22C2H2PC6HC2HC11H5CHC3H6CHCFeCHPFeC7H2C3H2CH6CH2FeH4SC2H2C2H5C2H2C2H2C4H3CHC2HPCHCH2C2H3C5H2CSHC2H3CSC2H3C2PC4H2CHCSC3FeHFeS2FeS2FeSFeS3HCHCSHFeSCSCFeSCFeSHFeSFeS2HCH4CSCHC2HC2HC2H2C3H6C2HCFeHCPHC7H4C4H4CH2C2H3C2HCH2CHCH2C5HCHC2HCH3C2H3C7PC18H17SH3C2H2CHC5H2C6HFeHCH2C6PHCHC9H8CH3C7PC5HC3HC6HFeH7CH3CH2SH2CSHC2HC2H2C4HC2HC2HCSC4H2CHCHCH2C2HCH2C2PH3CHCH5SH2C3H2C2SCSH3C2H2CH3CH2C10FeS2FeSFe2HS2FeS2FeS2FeS2FeSFeCS2HCHFeH2CHC6HCSC4SHCHC2SCFeHC4SHC3HSCH3C6H4C3H2CH3CH3CH2C2H2CH5C5H2CHCH2C4HC2H2CHCH3PC7PC2H3C13H5CHCH13SHC2H3C3HCHC2H2CH2C3H3SH2CHCHC4H2C9PC14H16PC3HC2H2C3SCHCHC9PC10H13CH2CHC2H2SC7H2C2PC4H2CHSFeCH3C3HC3H3CFeS2FeS2FeSFeCS2H3FeS2FeS2FeSFeS3FeSFeS3H2CH5C4H5C2H2C5HC7HC4SC6H4C2H2CHC3HCHCHFeH2CHCHPC8H2C2H2C2H4CH2CH6C2H2C2PHC6PC3HCHC3SC8H2CH16CH2CHC2PFeC6PC18H20SC7H3PHC2HC6S2C3HC3H2CHC3H3C2H2C3HC5HC3H7C2HCH3CSHC2HC5HC3HC3HCHCHC3H6C2HCH4CSFeSCHFeS2FeSHFeSFeS3FeCHFeS2FeCFeS3HC4HC4H5C7H2CHC6H4C5H2C3H2C5H3C2H3C3HC3HPC10H2C6HC2HCH3CH2C2HCH5C6PC3HCHC4FeC4HCHC2H6C2HCSHCHC4H2C3HPHCH6CH5C2HC5H3CH5CHCH2SC4PC20H14CH4C4HCH2PH2CSC10HSH2FeCSH6C2SC4H2CHC2HC3H2C2HCH2CHCH3CHC4HPHCH6CHC5H2SHFeC2PSH3CSC3HC3H2CSHCHC8HC2HC2H3CHCHCFeS2FeS2FeSFeHS2HCSFeHSHC2SFeS2FeS2FeSFeCS2H2CHPHC4HCHCH2CHC4H6C2HC3H2C2H2CHCH2CH2C6H4C2HC3H2C2H4CH3C2HCHCHC4HC2H2C5H2C2SC2H6C2H3CHC2PHC5HC4HCHC11HC4HCH4C2H2C4H5CH2C4HC6PC5H2CSC5SH8C4H5CHC4PC4HC13HCH6PCH11C5HC4HFeC4SCH3CHCH2C6HCH2CH2C3H5C4H2C2H2C2H3PHC2HC2HCFeS2FeS2FeSFeS3H2FeSHSFeS2FeCHFeSFeHS2H2SC4HCH2C3HC3H3SH2C5H3C3SC2H2C6H4C5H3C3HC2H2SHFeCSCHC3HCSCSCH3C3HCH4FeCH3CHCH2SH3PC3H2C2H2C7PC18H21C2H3C2H3CHCH2CHSHPC10H6CH3CH2C2H2SCHC5H5CH8C3H4C2HCPCHC4HC12H2C2H4C5HCH2C2H3CFeC3HCHCHC2HC9H4C3HCFeSHFeS2FeSFeSHSH3FeS2FeSCFeSFeS3FeSCSCSH4SH2SC5H3C2H6C8H2C3H2C2H4C6HCHC6H4CH2C2SC3PC19HCH9CH7CSC2HCHC3HC2S2H3CHCHCSC4HCH2CH2CHFeH2FeCHPHCHC2FePC3H2C2SHCHC7HCH8CSH7C4FeC2HC4HC5HCFeH2C2HCHPH3CH7CH2C8PC4HC4HC3SHCHCH8CHCH6C2SC8PC14H4C3H3C2HCHCH5CH3C2HSCHC3HCHC2H4C2H2FeSCFeS2FeHFeS3H3CH2SHFeS2FeS2FeSFeS3HSFeSHC7HC3H3PCHC6H3C6H3C8H3C6H7CFeH2S2CH2C2HC4H2C4FeCPHC2HCPHCHC4HPC13HCH2C4H13CH4C2HC3H2CH2C2H2C2H2CPC3SC16HCH2C2H12C2HC3H2CH4C4H5C2HCHFeC5H3C3SC3H2CHCH4CHCHCH4CH2C5HCH2C2HC10HC3HCSCH2CHC2H2PHCSC2HCHCH2C3SHC2FeSHFeSCFeSFeS3FeSFeSCFeS2FeSFeS3FeS2HC8H4C3HSCH3CSCHC5H3C7H4C4HC3HCHCH2CH2C2HCHCPC8H4C2HCHCHSH2CH6PH2CH4SHCH2CPC2SCH2CS2HC2HC6HPHCHC2HCFeH3CHC2H2CH2CHCHCH5C3HC2HPCH3C6PC18H21C5H2C2HC2HC5HCH2C2HCHC5H5CHC4HCHCH2C5H3CH2C3HCHCHSHFeSCHFeSHFeS2FeSFeS3FeS2FeSCFeHFeS3CH2C3FeSC7H2C6H4CHC8H4CPCHC3HC6H3CHCH2C7PHCHCH4CH3CHC6H6C4HC6HC3HC2HCH2CFeHCHC2H4CH2C9PC18H20SHCHCHCHC2H2C4H3C2HCH2CHC2H3C2HC2SH3CHC2HCH2C2HCSCH4C3HC3H3PC2HC3H2SPHC2HC10PCHC2HC2HCH2PHCHCH2C2H2C5HC5HC6H2C2HC2SHSHC3HCHC5H2C2HCH2CFeSHC3PCH6
_chemical_formula_sum              "Fe192 S384 H2304 C2880 P96"
_cell_length_a       78.3338
_cell_length_b       78.7605
_cell_length_c       36.6448
_cell_angle_alpha    88.6529
_cell_angle_beta     88.5754
_cell_angle_gamma    87.8365

_space_group_name_H-M_alt    "P 1"
_space_group_IT_number       1

loop_
  _space_group_symop_operation_xyz
  'x, y, z'

loop_
  _atom_site_type_symbol
  _atom_site_label
  _atom_site_symmetry_multiplicity
  _atom_site_fract_x
  _atom_site_fract_y
  _atom_site_fract_z
  _atom_site_occupancy
  Fe  Fe1       1.0  0.00756  0.12430  0.22673  1.0000
  S   S1        1.0  0.02795  0.12055  0.18293  1.0000
  H   H1        1.0  0.20039  0.00612  0.95493  1.0000
  Fe  Fe2       1.0  0.02682  0.10035  0.28137  1.0000
  S   S2        1.0  0.04872  0.09560  0.24145  1.0000
  S   S3        1.0  0.02890  0.08805  0.33860  1.0000
  Fe  Fe3       1.0  0.04716  0.12343  0.22727  1.0000
  S   S4        1.0  0.06978  0.14093  0.21625  1.0000
  Fe  Fe4       1.0  0.02820  0.09291  0.20032  1.0000
  S   S5        1.0  0.03254  0.07063  0.16258  1.0000
  S   S6        1.0  0.02660  0.12881  0.27053  1.0000
  C   C1        1.0  0.16025  0.00270  0.84630  1.0000
  H   H2        1.0  0.05112  0.05015  0.33702  1.0000
  H   H3        1.0  0.99951  0.06900  0.31559  1.0000
  H   H4        1.0  0.10724  0.17016  0.38210  1.0000
  C   C2        1.0  0.20621  0.17026  0.06179  1.0000
  H   H5        1.0  0.16078  0.09582  0.82602  1.0000
  H   H6        1.0  0.14518  0.17578  0.38694  1.0000
  S   S7        1.0  0.22531  0.16208  0.28275  1.0000
  Fe  Fe5       1.0  0.21278  0.05196  0.84548  1.0000
  S   S8        1.0  0.19066  0.04199  0.81207  1.0000
  Fe  Fe6       1.0  0.22535  0.07527  0.90663  1.0000
  S   S9        1.0  0.21373  0.09302  0.95185  1.0000
  H   H7        1.0  0.21630  0.13047  0.92925  1.0000
  H   H8        1.0  0.09801  0.16188  0.19676  1.0000
  S   S10       1.0  0.21648  0.08030  0.84870  1.0000
  S   S11       1.0  0.22001  0.04723  0.90409  1.0000
  Fe  Fe7       1.0  0.20677  0.14055  0.15406  1.0000
  S   S12       1.0  0.18018  0.15153  0.14573  1.0000
  S   S13       1.0  0.22277  0.12457  0.11175  1.0000
  Fe  Fe8       1.0  0.20858  0.15553  0.23317  1.0000
  S   S14       1.0  0.18203  0.16740  0.22831  1.0000
  H   H9        1.0  0.99375  0.13174  0.04632  1.0000
  Fe  Fe9       1.0  0.17435  0.14301  0.20364  1.0000
  S   S15       1.0  0.15108  0.12780  0.22244  1.0000
  Fe  Fe10      1.0  0.18953  0.17533  0.17079  1.0000
  S   S16       1.0  0.17864  0.20132  0.15120  1.0000
  S   S17       1.0  0.20059  0.13046  0.21123  1.0000
  S   S18       1.0  0.21655  0.16501  0.17639  1.0000
  C   C3        1.0  0.18764  0.21880  0.12715  1.0000
  C   C4        1.0  0.20516  0.21959  0.11922  1.0000
  H   H10       1.0  0.05616  0.99481  0.79506  1.0000
  C   C5        1.0  0.00688  0.10728  0.09726  1.0000
  H   H11       1.0  0.10783  0.17978  0.24950  1.0000
  H   H12       1.0  0.21365  0.20901  0.12677  1.0000
  C   C6        1.0  0.04801  0.04682  0.30949  1.0000
  C   C7        1.0  0.02012  0.04789  0.11557  1.0000
  C   C8        1.0  0.21663  0.10171  0.99632  1.0000
  C   C9        1.0  0.18180  0.10854  0.33086  1.0000
  C   C10       1.0  0.23255  0.15618  0.32808  1.0000
  C   C11       1.0  0.21989  0.11612  0.06704  1.0000
  C   C12       1.0  0.20486  0.11889  0.04737  1.0000
  C   C13       1.0  0.20328  0.11174  0.01245  1.0000
  H   H13       1.0  0.19438  0.12640  0.05923  1.0000
  H   H14       1.0  0.19147  0.11371  0.99808  1.0000
  H   H15       1.0  0.03702  0.01356  0.88985  1.0000
  C   C14       1.0  0.20248  0.00677  0.71927  1.0000
  C   C15       1.0  0.22697  0.14176  0.34734  1.0000
  C   C16       1.0  0.00807  0.00375  0.33097  1.0000
  P   P1        1.0  0.01345  0.01727  0.26061  1.0000
  H   H16       1.0  0.21793  0.13384  0.33485  1.0000
  H   H17       1.0  0.21009  0.16376  0.97018  1.0000
  C   C17       1.0  0.19645  0.22734  0.01144  1.0000
  C   C18       1.0  0.12200  0.20668  0.34294  1.0000
  H   H18       1.0  0.23832  0.08509  0.42730  1.0000
  C   C19       1.0  0.17585  0.02506  0.81406  1.0000
  C   C20       1.0  0.16704  0.02120  0.78233  1.0000
  H   H19       1.0  0.16949  0.02837  0.75736  1.0000
  C   C21       1.0  0.01764  0.07066  0.35834  1.0000
  C   C22       1.0  0.02280  0.06366  0.39225  1.0000
  C   C23       1.0  0.01405  0.05016  0.40943  1.0000
  H   H20       1.0  0.17301  0.07337  0.78593  1.0000
  H   H21       1.0  0.01982  0.06918  0.03606  1.0000
  H   H22       1.0  0.04188  0.08350  0.07015  1.0000
  H   H23       1.0  0.03361  0.06880  0.40544  1.0000
  H   H24       1.0  0.01816  0.04504  0.43556  1.0000
  C   C24       1.0  0.01591  0.06074  0.14053  1.0000
  H   H25       1.0  0.05752  0.05758  0.22112  1.0000
  C   C25       1.0  0.21857  0.05743  0.29192  1.0000
  H   H26       1.0  0.20031  0.01507  0.69571  1.0000
  H   H27       1.0  0.03490  0.03774  0.21076  1.0000
  C   C26       1.0  0.02402  0.10182  0.09365  1.0000
  C   C27       1.0  0.09237  0.13649  0.21517  1.0000
  C   C28       1.0  0.09960  0.12059  0.22528  1.0000
  C   C29       1.0  0.11755  0.11812  0.22669  1.0000
  C   C30       1.0  0.12858  0.13136  0.21746  1.0000
  C   C31       1.0  0.12139  0.14707  0.20602  1.0000
  C   C32       1.0  0.10343  0.14961  0.20506  1.0000
  H   H28       1.0  0.09135  0.11033  0.23296  1.0000
  H   H29       1.0  0.12292  0.10588  0.23542  1.0000
  H   H30       1.0  0.12968  0.15731  0.19858  1.0000
  C   C33       1.0  0.22843  0.22187  0.90352  1.0000
  C   C34       1.0  0.99358  0.02959  0.26301  1.0000
  C   C35       1.0  0.22196  0.12923  0.90210  1.0000
  C   C36       1.0  0.21260  0.13420  0.87140  1.0000
  C   C37       1.0  0.21959  0.13181  0.83617  1.0000
  S   S19       1.0  0.02696  0.99309  0.57539  1.0000
  P   P2        1.0  0.20660  0.13584  0.79677  1.0000
  C   C38       1.0  0.19214  0.15391  0.80345  1.0000
  H   H31       1.0  0.00474  0.99393  0.38587  1.0000
  H   H32       1.0  0.22840  0.12644  0.39709  1.0000
  C   C39       1.0  0.21713  0.00191  0.90830  1.0000
  H   H33       1.0  0.23803  0.12643  0.28239  1.0000
  C   C40       1.0  0.01140  0.00710  0.87745  1.0000
  C   C41       1.0  0.99875  0.06565  0.14652  1.0000
  C   C42       1.0  0.17622  0.15473  0.78662  1.0000
  C   C43       1.0  0.16534  0.16911  0.79035  1.0000
  C   C44       1.0  0.17040  0.18286  0.81039  1.0000
  C   C45       1.0  0.18635  0.18223  0.82678  1.0000
  C   C46       1.0  0.19724  0.16785  0.82315  1.0000
  C   C47       1.0  0.19535  0.11652  0.79146  1.0000
  C   C48       1.0  0.20240  0.10355  0.76954  1.0000
  H   H34       1.0  0.16261  0.14940  0.87758  1.0000
  H   H35       1.0  0.15340  0.20476  0.00750  1.0000
  C   C49       1.0  0.17220  0.09819  0.80970  1.0000
  C   C50       1.0  0.18035  0.11362  0.81209  1.0000
  C   C51       1.0  0.23618  0.19938  0.94690  1.0000
  H   H36       1.0  0.15681  0.18012  0.88785  1.0000
  S   S20       1.0  0.99674  0.99286  0.05067  1.0000
  H   H37       1.0  0.19971  0.13932  0.87512  1.0000
  H   H38       1.0  0.23791  0.15136  0.98901  1.0000
  C   C52       1.0  0.01638  0.00900  0.21511  1.0000
  C   C53       1.0  0.22235  0.16389  0.07184  1.0000
  H   H39       1.0  0.02077  0.02672  0.78133  1.0000
  H   H40       1.0  0.01557  0.00027  0.74639  1.0000
  H   H41       1.0  0.20188  0.13133  0.71829  1.0000
  H   H42       1.0  0.17233  0.14439  0.77007  1.0000
  H   H43       1.0  0.15310  0.16970  0.77709  1.0000
  H   H44       1.0  0.16205  0.19410  0.81275  1.0000
  H   H45       1.0  0.19038  0.19300  0.84181  1.0000
  H   H46       1.0  0.20974  0.16771  0.83517  1.0000
  H   H47       1.0  0.21447  0.10514  0.75515  1.0000
  Fe  Fe11      1.0  0.00583  0.99412  0.99142  1.0000
  C   C54       1.0  0.00364  0.06383  0.34164  1.0000
  C   C55       1.0  0.12313  0.19429  0.21198  1.0000
  H   H48       1.0  0.17515  0.12308  0.83065  1.0000
  H   H49       1.0  0.22590  0.16372  0.10017  1.0000
  C   C56       1.0  0.21047  0.00292  0.78249  1.0000
  H   H50       1.0  0.11365  0.19451  0.19092  1.0000
  C   C57       1.0  0.16611  0.15494  0.90302  1.0000
  C   C58       1.0  0.14181  0.16219  0.10308  1.0000
  C   C59       1.0  0.21012  0.21842  0.26597  1.0000
  C   C60       1.0  0.19924  0.10393  0.32953  1.0000
  H   H51       1.0  0.19165  0.23557  0.19014  1.0000
  H   H52       1.0  0.17885  0.01846  0.87079  1.0000
  H   H53       1.0  0.22531  0.23484  0.09635  1.0000
  C   C61       1.0  0.23242  0.23418  0.92881  1.0000
  C   C62       1.0  0.13872  0.20202  0.20547  1.0000
  C   C63       1.0  0.05158  0.05108  0.24426  1.0000
  H   H54       1.0  0.99626  0.00723  0.13381  1.0000
  C   C64       1.0  0.15102  0.20145  0.23244  1.0000
  C   C65       1.0  0.18090  0.20120  0.00979  1.0000
  C   C66       1.0  0.20139  0.16992  0.02521  1.0000
  C   C67       1.0  0.16564  0.22871  0.00807  1.0000
  C   C68       1.0  0.23821  0.12149  0.89782  1.0000
  C   C69       1.0  0.01813  0.02078  0.80770  1.0000
  C   C70       1.0  0.17375  0.14474  0.93020  1.0000
  C   C71       1.0  0.21319  0.16367  0.99875  1.0000
  C   C72       1.0  0.02869  0.08816  0.07155  1.0000
  H   H55       1.0  0.22678  0.01021  0.91757  1.0000
  C   C73       1.0  0.01346  0.00030  0.29496  1.0000
  H   H56       1.0  0.14869  0.00525  0.75766  1.0000
  C   C74       1.0  0.20665  0.09668  0.29793  1.0000
  C   C75       1.0  0.00616  0.00531  0.15378  1.0000
  C   C76       1.0  0.15978  0.15658  0.30906  1.0000
  H   H57       1.0  0.17358  0.16573  0.40741  1.0000
  H   H58       1.0  0.05076  0.00263  0.62914  1.0000
  H   H59       1.0  0.12963  0.21139  0.32015  1.0000
  C   C77       1.0  0.17597  0.15112  0.32081  1.0000
  C   C78       1.0  0.11884  0.14010  0.31400  1.0000
  C   C79       1.0  0.00774  0.00647  0.72584  1.0000
  C   C80       1.0  0.19422  0.08815  0.76713  1.0000
  C   C81       1.0  0.00333  0.01080  0.18951  1.0000
  S   S21       1.0  0.00646  0.09610  0.24087  1.0000
  C   C82       1.0  0.15815  0.15577  0.04777  1.0000
  C   C83       1.0  0.17494  0.16926  0.96924  1.0000
  C   C84       1.0  0.23300  0.13759  0.38279  1.0000
  C   C85       1.0  0.14784  0.19300  0.26576  1.0000
  C   C86       1.0  0.21366  0.13779  0.72173  1.0000
  P   P3        1.0  0.18052  0.17819  0.01230  1.0000
  C   C87       1.0  0.11989  0.18585  0.24535  1.0000
  H   H60       1.0  0.21440  0.00858  0.80738  1.0000
  H   H61       1.0  0.00664  0.01171  0.63339  1.0000
  C   C88       1.0  0.00226  0.01356  0.81543  1.0000
  C   C89       1.0  0.09588  0.16140  0.30806  1.0000
  H   H62       1.0  0.19351  0.15040  0.36526  1.0000
  C   C90       1.0  0.16526  0.17191  0.04768  1.0000
  H   H63       1.0  0.22374  0.07945  0.36998  1.0000
  H   H64       1.0  0.15765  0.19258  0.28612  1.0000
  C   C91       1.0  0.00885  0.99103  0.35814  1.0000
  C   C92       1.0  0.00270  0.01280  0.66189  1.0000
  C   C93       1.0  0.10940  0.18358  0.37774  1.0000
  C   C94       1.0  0.10240  0.19519  0.40278  1.0000
  H   H65       1.0  0.09976  0.22151  0.41739  1.0000
  H   H66       1.0  0.06573  0.06398  0.28423  1.0000
  C   C95       1.0  0.22128  0.03997  0.28689  1.0000
  H   H67       1.0  0.21436  0.20617  0.27742  1.0000
  C   C96       1.0  0.20266  0.21934  0.23174  1.0000
  H   H68       1.0  0.04296  0.02608  0.82813  1.0000
  C   C97       1.0  0.01288  0.00536  0.68909  1.0000
  C   C98       1.0  0.18092  0.15446  0.35622  1.0000
  C   C99       1.0  0.11915  0.18925  0.34747  1.0000
  C   C100      1.0  0.23585  0.12391  0.83214  1.0000
  H   H69       1.0  0.18417  0.14374  0.98374  1.0000
  C   C101      1.0  0.17239  0.01561  0.84605  1.0000
  S   S22       1.0  0.03352  0.99182  0.97148  1.0000
  H   H70       1.0  0.16325  0.23227  0.12321  1.0000
  H   H71       1.0  0.08045  0.12161  0.30724  1.0000
  H   H72       1.0  0.11124  0.11407  0.31409  1.0000
  C   C102      1.0  0.10695  0.12731  0.31307  1.0000
  H   H73       1.0  0.09483  0.19072  0.42598  1.0000
  C   C103      1.0  0.05620  0.05468  0.27973  1.0000
  C   C104      1.0  0.14892  0.17817  0.10347  1.0000
  C   C105      1.0  0.08959  0.13153  0.30930  1.0000
  C   C106      1.0  0.16967  0.16318  0.37997  1.0000
  H   H74       1.0  0.16468  0.19284  0.94547  1.0000
  C   C107      1.0  0.03873  0.03967  0.23851  1.0000
  C   C108      1.0  0.15517  0.00805  0.78240  1.0000
  H   H75       1.0  0.16169  0.14667  0.02713  1.0000
  C   C109      1.0  0.03527  0.03527  0.30388  1.0000
  H   H76       1.0  0.02887  0.02985  0.32756  1.0000
  C   C110      1.0  0.03067  0.02067  0.83432  1.0000
  H   H77       1.0  0.00038  0.16444  0.17683  1.0000
  H   H78       1.0  0.13305  0.15830  0.12484  1.0000
  H   H79       1.0  0.07067  0.15174  0.30238  1.0000
  C   C111      1.0  0.08408  0.14856  0.30659  1.0000
  H   H80       1.0  0.03337  0.04399  0.11096  1.0000
  H   H81       1.0  0.16322  0.20719  0.22706  1.0000
  H   H82       1.0  0.14578  0.18666  0.12569  1.0000
  H   H83       1.0  0.15606  0.15384  0.28155  1.0000
  P   P4        1.0  0.12834  0.17407  0.31564  1.0000
  C   C112      1.0  0.16732  0.17943  0.94169  1.0000
  H   H84       1.0  0.13221  0.13643  0.31621  1.0000
  C   C113      1.0  0.11338  0.15729  0.31169  1.0000
  H   H85       1.0  0.18477  0.14445  0.30229  1.0000
  C   C114      1.0  0.99982  0.04360  0.39315  1.0000
  H   H86       1.0  0.17623  0.13125  0.92597  1.0000
  H   H87       1.0  0.00326  0.01632  0.33826  1.0000
  H   H88       1.0  0.22721  0.19514  0.89291  1.0000
  H   H89       1.0  0.09131  0.17453  0.30609  1.0000
  H   H90       1.0  0.14126  0.13842  0.07555  1.0000
  C   C115      1.0  0.03058  0.03147  0.26829  1.0000
  C   C116      1.0  0.00736  0.04043  0.09565  1.0000
  C   C117      1.0  0.02196  0.99793  0.14331  1.0000
  C   C118      1.0  0.23869  0.09471  0.22078  1.0000
  H   H91       1.0  0.21810  0.23255  0.31172  1.0000
  H   H92       1.0  0.19760  0.23741  0.92069  1.0000
  C   C119      1.0  0.14857  0.16578  0.33241  1.0000
  C   C120      1.0  0.14648  0.15098  0.07530  1.0000
  H   H93       1.0  0.15831  0.11016  0.30110  1.0000
  H   H94       1.0  0.20583  0.06222  0.29919  1.0000
  C   C121      1.0  0.16289  0.17226  0.90879  1.0000
  C   C122      1.0  0.16066  0.18299  0.07609  1.0000
  H   H95       1.0  0.19751  0.17533  0.08266  1.0000
  C   C123      1.0  0.17909  0.08550  0.78711  1.0000
  H   H96       1.0  0.19987  0.07802  0.75077  1.0000
  H   H97       1.0  0.20682  0.10640  0.35291  1.0000
  H   H98       1.0  0.03373  0.10783  0.10886  1.0000
  C   C124      1.0  0.19638  0.09430  0.26774  1.0000
  H   H99       1.0  0.16637  0.19523  0.07779  1.0000
  C   C125      1.0  0.19728  0.23508  0.21680  1.0000
  C   C126      1.0  0.15355  0.16885  0.36817  1.0000
  C   C127      1.0  0.13230  0.18496  0.27237  1.0000
  H   H100      1.0  0.22383  0.22571  0.87680  1.0000
  H   H101      1.0  0.20844  0.20250  0.01339  1.0000
  C   C128      1.0  0.17818  0.15186  0.96307  1.0000
  H   H102      1.0  0.20833  0.23377  0.01406  1.0000
  C   C129      1.0  0.15156  0.99872  0.81452  1.0000
  H   H103      1.0  0.20184  0.08908  0.24278  1.0000
  H   H104      1.0  0.21067  0.03156  0.28993  1.0000
  C   C130      1.0  0.20234  0.99949  0.92951  1.0000
  H   H105      1.0  0.00397  0.05198  0.23639  1.0000
  H   H106      1.0  0.01081  0.03085  0.07584  1.0000
  H   H107      1.0  0.02465  0.99852  0.68147  1.0000
  C   C131      1.0  0.02735  0.01371  0.86911  1.0000
  C   C132      1.0  0.17172  0.10617  0.30060  1.0000
  H   H108      1.0  0.17617  0.11430  0.35510  1.0000
  H   H109      1.0  0.14144  0.20822  0.17936  1.0000
  C   C133      1.0  0.17900  0.09899  0.26915  1.0000
  C   C134      1.0  0.01624  0.08008  0.05246  1.0000
  H   H110      1.0  0.17122  0.09746  0.24545  1.0000
  H   H111      1.0  0.23103  0.99599  0.85896  1.0000
  C   C135      1.0  0.23173  0.09914  0.01577  1.0000
  H   H112      1.0  0.21045  0.02689  0.75299  1.0000
  C   C136      1.0  0.03228  0.00168  0.20426  1.0000
  C   C137      1.0  0.11500  0.21826  0.36808  1.0000
  H   H113      1.0  0.99540  0.07541  0.16594  1.0000
  P   P5        1.0  0.22919  0.09094  0.29459  1.0000
  C   C138      1.0  0.23848  0.22884  0.96315  1.0000
  C   C139      1.0  0.23479  0.08733  0.36912  1.0000
  C   C140      1.0  0.10518  0.21253  0.39794  1.0000
  H   H114      1.0  0.20111  0.20783  0.21660  1.0000
  H   H115      1.0  0.00363  0.11786  0.11474  1.0000
  C   C141      1.0  0.21930  0.14138  0.75672  1.0000
  C   C142      1.0  0.99910  0.08555  0.05572  1.0000
  C   C143      1.0  0.19640  0.20958  0.01126  1.0000
  C   C144      1.0  0.16552  0.21094  0.00797  1.0000
  C   C145      1.0  0.20824  0.01342  0.75152  1.0000
  C   C146      1.0  0.17682  0.23274  0.11730  1.0000
  H   H116      1.0  0.11722  0.23170  0.36443  1.0000
  H   H117      1.0  0.23881  0.15355  0.78663  1.0000
  C   C147      1.0  0.22335  0.14238  0.69072  1.0000
  C   C148      1.0  0.03501  0.99608  0.16857  1.0000
  C   C149      1.0  0.23764  0.03337  0.27808  1.0000
  H   H118      1.0  0.23561  0.08155  0.21782  1.0000
  C   C150      1.0  0.99474  0.05050  0.35908  1.0000
  H   H119      1.0  0.23970  0.01983  0.27424  1.0000
  C   C151      1.0  0.21174  0.23429  0.10212  1.0000
  H   H120      1.0  0.00867  0.00211  0.90474  1.0000
  C   C152      1.0  0.23440  0.15025  0.76007  1.0000
  C   C153      1.0  0.24046  0.09476  0.33597  1.0000
  C   C154      1.0  0.22916  0.15693  0.00913  1.0000
  C   C155      1.0  0.23223  0.06842  0.28780  1.0000
  C   C156      1.0  0.23727  0.10247  0.25495  1.0000
  C   C157      1.0  0.23027  0.20455  0.91258  1.0000
  S   S23       1.0  0.23965  0.04686  0.82353  1.0000
  C   C158      1.0  0.18110  0.23689  0.00997  1.0000
  H   H121      1.0  0.24110  0.12113  0.80526  1.0000
  H   H122      1.0  0.02417  0.99398  0.11540  1.0000
  C   C159      1.0  0.21949  0.99378  0.87497  1.0000
  C   C160      1.0  0.24005  0.11992  0.25694  1.0000
  C   C161      1.0  0.23369  0.15698  0.04572  1.0000
  H   H123      1.0  0.15373  0.23616  0.00764  1.0000
  C   C162      1.0  0.21222  0.23330  0.28524  1.0000
  H   H124      1.0  0.04267  0.00064  0.22327  1.0000
  C   C163      1.0  0.23853  0.15086  0.69434  1.0000
  C   C164      1.0  0.99418  0.09915  0.07843  1.0000
  H   H125      1.0  0.15749  0.99576  0.87143  1.0000
  H   H126      1.0  0.21935  0.13907  0.66375  1.0000
  H   H127      1.0  0.23461  0.09964  0.66533  1.0000
  H   H128      1.0  0.23770  0.18597  0.95390  1.0000
  C   C165      1.0  0.24029  0.21151  0.97213  1.0000
  H   H129      1.0  0.23581  0.08676  0.72795  1.0000
  C   C166      1.0  0.99885  0.00726  0.85096  1.0000
  C   C167      1.0  0.23332  0.10628  0.05069  1.0000
  H   H130      1.0  0.24187  0.23790  0.98317  1.0000
  H   H131      1.0  0.24218  0.09158  0.00401  1.0000
  C   C168      1.0  0.99276  0.04630  0.24870  1.0000
  H   H132      1.0  0.99265  0.16311  0.04512  1.0000
  H   H133      1.0  0.04738  0.99068  0.16020  1.0000
  H   H134      1.0  0.15223  0.44967  0.40537  1.0000
  Fe  Fe12      1.0  0.01262  0.34853  0.02350  1.0000
  S   S24       1.0  0.02964  0.35760  0.06752  1.0000
  C   C169      1.0  0.11108  0.43044  0.40618  1.0000
  Fe  Fe13      1.0  0.01370  0.38340  0.98096  1.0000
  S   S25       1.0  0.03053  0.39439  0.02242  1.0000
  H   H135      1.0  0.04560  0.46766  0.26536  1.0000
  Fe  Fe14      1.0  0.04561  0.36911  0.02179  1.0000
  S   S26       1.0  0.07510  0.37111  0.01935  1.0000
  Fe  Fe15      1.0  0.01360  0.38191  0.06440  1.0000
  C   C170      1.0  0.02414  0.40090  0.80310  1.0000
  S   S27       1.0  0.02955  0.35877  0.97729  1.0000
  H   H136      1.0  0.15071  0.28167  0.11768  1.0000
  H   H137      1.0  0.16272  0.24925  0.23261  1.0000
  H   H138      1.0  0.11560  0.37509  0.76853  1.0000
  H   H139      1.0  0.03347  0.45981  0.58810  1.0000
  C   C171      1.0  0.23975  0.36498  0.50633  1.0000
  H   H140      1.0  0.19121  0.48772  0.46537  1.0000
  S   S28       1.0  0.03079  0.45497  0.19656  1.0000
  Fe  Fe16      1.0  0.17034  0.32001  0.04184  1.0000
  S   S29       1.0  0.18912  0.34064  0.02932  1.0000
  S   S30       1.0  0.14075  0.32035  0.04305  1.0000
  Fe  Fe17      1.0  0.19900  0.29362  0.06073  1.0000
  S   S31       1.0  0.21910  0.31307  0.05111  1.0000
  S   S32       1.0  0.20989  0.26648  0.07113  1.0000
  Fe  Fe18      1.0  0.20181  0.33155  0.08179  1.0000
  S   S33       1.0  0.21270  0.35098  0.12121  1.0000
  Fe  Fe19      1.0  0.20540  0.32053  0.99936  1.0000
  S   S34       1.0  0.22452  0.32234  0.94949  1.0000
  S   S35       1.0  0.18261  0.31160  0.09500  1.0000
  S   S36       1.0  0.18572  0.30052  0.00857  1.0000
  Fe  Fe20      1.0  0.21286  0.42249  0.38343  1.0000
  S   S37       1.0  0.18607  0.43463  0.39654  1.0000
  H   H141      1.0  0.06508  0.47627  0.51314  1.0000
  C   C172      1.0  0.99831  0.42260  0.36754  1.0000
  S   S38       1.0  0.21648  0.39378  0.38408  1.0000
  S   S39       1.0  0.22359  0.42516  0.32599  1.0000
  C   C173      1.0  0.21403  0.35789  0.16759  1.0000
  C   C174      1.0  0.20795  0.34842  0.19775  1.0000
  H   H142      1.0  0.10992  0.46594  0.44684  1.0000
  C   C175      1.0  0.21735  0.36984  0.24048  1.0000
  C   C176      1.0  0.22332  0.37935  0.21029  1.0000
  C   C177      1.0  0.22167  0.37342  0.17432  1.0000
  C   C178      1.0  0.00715  0.46395  0.07594  1.0000
  H   H143      1.0  0.99659  0.41563  0.27623  1.0000
  C   C179      1.0  0.20093  0.24835  0.09288  1.0000
  H   H144      1.0  0.17493  0.25788  0.09209  1.0000
  C   C180      1.0  0.00994  0.45347  0.61586  1.0000
  C   C181      1.0  0.08594  0.46480  0.41888  1.0000
  C   C182      1.0  0.21863  0.31822  0.87441  1.0000
  H   H145      1.0  0.14057  0.47605  0.43454  1.0000
  H   H146      1.0  0.22454  0.26445  0.99373  1.0000
  C   C183      1.0  0.07082  0.47279  0.48701  1.0000
  P   P6        1.0  0.19218  0.27027  0.21586  1.0000
  H   H147      1.0  0.03027  0.41648  0.91129  1.0000
  H   H148      1.0  0.05987  0.46596  0.39974  1.0000
  C   C184      1.0  0.24094  0.26983  0.94664  1.0000
  H   H149      1.0  0.01202  0.40537  0.33134  1.0000
  H   H150      1.0  0.16138  0.28407  0.25478  1.0000
  C   C185      1.0  0.17716  0.39957  0.24196  1.0000
  C   C186      1.0  0.00319  0.41585  0.90415  1.0000
  H   H151      1.0  0.05775  0.38502  0.95215  1.0000
  H   H152      1.0  0.00118  0.47758  0.49269  1.0000
  H   H153      1.0  0.08616  0.48851  0.32431  1.0000
  H   H154      1.0  0.00482  0.41765  0.39142  1.0000
  C   C187      1.0  0.03553  0.47540  0.99030  1.0000
  C   C188      1.0  0.99803  0.42123  0.15860  1.0000
  C   C189      1.0  0.00825  0.41208  0.13327  1.0000
  H   H155      1.0  0.12014  0.38751  0.82897  1.0000
  H   H156      1.0  0.21573  0.29172  0.25307  1.0000
  C   C190      1.0  0.02179  0.43882  0.17172  1.0000
  C   C191      1.0  0.03198  0.42976  0.14623  1.0000
  C   C192      1.0  0.02519  0.41650  0.12678  1.0000
  C   C193      1.0  0.19444  0.25086  0.92128  1.0000
  H   H157      1.0  0.04519  0.43294  0.14171  1.0000
  H   H158      1.0  0.03315  0.40944  0.10744  1.0000
  C   C194      1.0  0.09316  0.35684  0.02711  1.0000
  C   C195      1.0  0.10980  0.36280  0.02135  1.0000
  C   C196      1.0  0.12448  0.35201  0.02651  1.0000
  C   C197      1.0  0.12278  0.33494  0.03717  1.0000
  C   C198      1.0  0.10613  0.32901  0.04304  1.0000
  C   C199      1.0  0.09147  0.33984  0.03821  1.0000
  H   H159      1.0  0.11137  0.37585  0.01257  1.0000
  H   H160      1.0  0.13710  0.35685  0.02179  1.0000
  H   H161      1.0  0.10455  0.31588  0.05127  1.0000
  H   H162      1.0  0.07884  0.33496  0.04276  1.0000
  C   C200      1.0  0.16889  0.27637  0.16003  1.0000
  H   H163      1.0  0.18190  0.29896  0.92476  1.0000
  Fe  Fe21      1.0  0.01268  0.47292  0.22692  1.0000
  C   C201      1.0  0.02497  0.38017  0.86608  1.0000
  H   H164      1.0  0.06287  0.40914  0.99095  1.0000
  C   C202      1.0  0.99630  0.44252  0.44776  1.0000
  H   H165      1.0  0.17819  0.28459  0.14752  1.0000
  C   C203      1.0  0.17848  0.45380  0.41785  1.0000
  C   C204      1.0  0.18937  0.46474  0.43478  1.0000
  H   H166      1.0  0.18195  0.32275  0.31954  1.0000
  C   C205      1.0  0.23164  0.42746  0.51816  1.0000
  C   C206      1.0  0.15413  0.47296  0.43490  1.0000
  C   C207      1.0  0.16082  0.45802  0.41820  1.0000
  H   H167      1.0  0.20296  0.46174  0.43481  1.0000
  C   C208      1.0  0.06061  0.47108  0.45673  1.0000
  C   C209      1.0  0.02216  0.43353  0.86717  1.0000
  H   H168      1.0  0.04994  0.48821  0.92978  1.0000
  S   S40       1.0  0.99956  0.39480  0.11153  1.0000
  C   C210      1.0  0.02621  0.44204  0.46390  1.0000
  C   C211      1.0  0.20841  0.29538  0.17444  1.0000
  C   C212      1.0  0.11478  0.41387  0.33963  1.0000
  C   C213      1.0  0.21980  0.44126  0.52056  1.0000
  S   S41       1.0  0.21915  0.37659  0.28692  1.0000
  H   H169      1.0  0.20996  0.48830  0.35869  1.0000
  S   S42       1.0  0.00210  0.46870  0.28348  1.0000
  C   C214      1.0  0.20727  0.26288  0.92021  1.0000
  H   H170      1.0  0.99822  0.24350  0.12579  1.0000
  H   H171      1.0  0.03496  0.43742  0.86041  1.0000
  H   H172      1.0  0.10274  0.43622  0.31572  1.0000
  H   H173      1.0  0.22732  0.27832  0.58859  1.0000
  C   C215      1.0  0.04034  0.38567  0.85017  1.0000
  C   C216      1.0  0.11290  0.47461  0.36644  1.0000
  C   C217      1.0  0.01984  0.46258  0.59050  1.0000
  C   C218      1.0  0.08003  0.46264  0.34003  1.0000
  H   H174      1.0  0.22082  0.25336  0.17489  1.0000
  C   C219      1.0  0.16026  0.25637  0.20752  1.0000
  C   C220      1.0  0.20256  0.28022  0.92198  1.0000
  C   C221      1.0  0.06132  0.39692  0.93936  1.0000
  S   S43       1.0  0.00362  0.32089  0.02719  1.0000
  C   C222      1.0  0.23618  0.27452  0.81132  1.0000
  P   P7        1.0  0.09589  0.46003  0.37501  1.0000
  C   C223      1.0  0.02605  0.47858  0.11487  1.0000
  C   C224      1.0  0.22083  0.26687  0.16889  1.0000
  C   C225      1.0  0.06896  0.44941  0.33384  1.0000
  C   C226      1.0  0.22943  0.27158  0.84650  1.0000
  C   C227      1.0  0.10490  0.43851  0.37427  1.0000
  C   C228      1.0  0.05514  0.46630  0.28625  1.0000
  H   H175      1.0  0.04136  0.48738  0.99512  1.0000
  C   C229      1.0  0.09400  0.38499  0.84743  1.0000
  H   H176      1.0  0.99803  0.33726  0.09995  1.0000
  C   C230      1.0  0.00939  0.38444  0.84976  1.0000
  C   C231      1.0  0.20835  0.27800  0.18421  1.0000
  H   H177      1.0  0.99681  0.39891  0.80697  1.0000
  C   C232      1.0  0.07768  0.37979  0.83862  1.0000
  H   H178      1.0  0.12934  0.26212  0.14419  1.0000
  C   C233      1.0  0.99386  0.48026  0.89184  1.0000
  C   C234      1.0  0.12868  0.46896  0.35111  1.0000
  H   H179      1.0  0.12731  0.39355  0.37041  1.0000
  C   C235      1.0  0.05076  0.34744  0.88645  1.0000
  C   C236      1.0  0.11534  0.39470  0.08568  1.0000
  C   C237      1.0  0.10124  0.38749  0.10324  1.0000
  C   C238      1.0  0.10316  0.37901  0.13688  1.0000
  C   C239      1.0  0.11924  0.37750  0.15273  1.0000
  C   C240      1.0  0.13354  0.38449  0.13500  1.0000
  C   C241      1.0  0.13145  0.39319  0.10137  1.0000
  P   P8        1.0  0.15456  0.38022  0.15326  1.0000
  C   C242      1.0  0.17057  0.38771  0.12114  1.0000
  C   C243      1.0  0.15780  0.39108  0.19534  1.0000
  C   C244      1.0  0.17433  0.39135  0.20939  1.0000
  C   C245      1.0  0.14719  0.40813  0.24611  1.0000
  C   C246      1.0  0.14425  0.39969  0.21375  1.0000
  C   C247      1.0  0.17920  0.37661  0.09703  1.0000
  C   C248      1.0  0.19174  0.38268  0.07273  1.0000
  C   C249      1.0  0.19562  0.39984  0.07208  1.0000
  C   C250      1.0  0.18690  0.41103  0.09566  1.0000
  C   C251      1.0  0.17441  0.40501  0.12008  1.0000
  C   C252      1.0  0.15657  0.35742  0.16034  1.0000
  C   C253      1.0  0.16446  0.35026  0.19143  1.0000
  C   C254      1.0  0.16461  0.33270  0.19805  1.0000
  C   C255      1.0  0.15673  0.32216  0.17398  1.0000
  C   C256      1.0  0.14900  0.32912  0.14281  1.0000
  C   C257      1.0  0.14907  0.34663  0.13576  1.0000
  H   H180      1.0  0.11384  0.40099  0.05929  1.0000
  H   H181      1.0  0.08889  0.38817  0.09036  1.0000
  H   H182      1.0  0.09224  0.37321  0.15011  1.0000
  H   H183      1.0  0.12063  0.37038  0.17820  1.0000
  H   H184      1.0  0.14225  0.39836  0.08652  1.0000
  H   H185      1.0  0.18504  0.38501  0.19535  1.0000
  H   H186      1.0  0.13677  0.41488  0.26011  1.0000
  H   H187      1.0  0.13149  0.40005  0.20312  1.0000
  H   H188      1.0  0.17665  0.36319  0.09750  1.0000
  H   H189      1.0  0.19883  0.37394  0.05513  1.0000
  H   H190      1.0  0.20552  0.40438  0.05356  1.0000
  H   H191      1.0  0.18998  0.42433  0.09530  1.0000
  H   H192      1.0  0.16783  0.41383  0.13833  1.0000
  H   H193      1.0  0.17050  0.35807  0.21079  1.0000
  H   H194      1.0  0.17089  0.32730  0.22189  1.0000
  H   H195      1.0  0.15670  0.30861  0.17932  1.0000
  H   H196      1.0  0.14309  0.32095  0.12373  1.0000
  H   H197      1.0  0.14308  0.35172  0.11125  1.0000
  H   H198      1.0  0.18122  0.25065  0.01118  1.0000
  S   S44       1.0  0.99926  0.39931  0.93718  1.0000
  C   C258      1.0  0.17720  0.25619  0.92361  1.0000
  C   C259      1.0  0.99620  0.48751  0.11204  1.0000
  H   H199      1.0  0.13103  0.45582  0.34404  1.0000
  C   C260      1.0  0.01253  0.48954  0.12549  1.0000
  H   H200      1.0  0.20521  0.31768  0.88179  1.0000
  C   C261      1.0  0.07823  0.47788  0.31955  1.0000
  H   H201      1.0  0.21461  0.31537  0.81662  1.0000
  H   H202      1.0  0.06961  0.43726  0.96307  1.0000
  H   H203      1.0  0.07187  0.44075  0.89563  1.0000
  H   H204      1.0  0.00539  0.45359  0.05770  1.0000
  H   H205      1.0  0.99689  0.44148  0.19748  1.0000
  C   C262      1.0  0.02333  0.46575  0.09029  1.0000
  H   H206      1.0  0.19869  0.30419  0.18513  1.0000
  H   H207      1.0  0.05317  0.46110  0.02448  1.0000
  C   C263      1.0  0.23350  0.29044  0.13577  1.0000
  H   H208      1.0  0.06807  0.41626  0.85632  1.0000
  C   C264      1.0  0.08853  0.47060  0.48339  1.0000
  S   S45       1.0  0.01279  0.45362  0.80762  1.0000
  H   H209      1.0  0.04833  0.48789  0.58393  1.0000
  C   C265      1.0  0.99339  0.47484  0.08674  1.0000
  C   C266      1.0  0.02136  0.47483  0.96761  1.0000
  C   C267      1.0  0.20684  0.24910  0.27032  1.0000
  H   H210      1.0  0.21113  0.31498  0.29657  1.0000
  C   C268      1.0  0.07533  0.37229  0.80483  1.0000
  Fe  Fe22      1.0  0.22846  0.39664  0.32739  1.0000
  H   H211      1.0  0.00580  0.47424  0.88241  1.0000
  S   S46       1.0  0.00047  0.47802  0.71317  1.0000
  C   C269      1.0  0.23892  0.28111  0.57325  1.0000
  C   C270      1.0  0.18534  0.28550  0.92362  1.0000
  H   H212      1.0  0.22624  0.35205  0.55039  1.0000
  H   H213      1.0  0.16591  0.41436  0.28557  1.0000
  C   C271      1.0  0.19927  0.25009  0.23595  1.0000
  C   C272      1.0  0.20955  0.35437  0.23373  1.0000
  P   P9        1.0  0.06042  0.38086  0.87203  1.0000
  C   C273      1.0  0.18263  0.47946  0.45222  1.0000
  C   C274      1.0  0.09610  0.46686  0.44940  1.0000
  H   H214      1.0  0.06404  0.31678  0.94758  1.0000
  H   H215      1.0  0.03131  0.43959  0.52137  1.0000
  C   C275      1.0  0.06391  0.41076  0.96153  1.0000
  C   C276      1.0  0.06779  0.42653  0.94584  1.0000
  C   C277      1.0  0.03978  0.39630  0.81883  1.0000
  H   H216      1.0  0.04306  0.32187  0.89852  1.0000
  H   H217      1.0  0.00064  0.43935  0.54013  1.0000
  C   C278      1.0  0.00896  0.39488  0.81842  1.0000
  C   C279      1.0  0.23051  0.32052  0.90175  1.0000
  H   H218      1.0  0.16734  0.24690  0.92477  1.0000
  C   C280      1.0  0.20033  0.30803  0.28769  1.0000
  H   H219      1.0  0.99903  0.29096  0.18102  1.0000
  C   C281      1.0  0.99475  0.47981  0.57351  1.0000
  C   C282      1.0  0.23549  0.27122  0.98327  1.0000
  Fe  Fe23      1.0  0.99799  0.47459  0.77496  1.0000
  H   H220      1.0  0.00333  0.45796  0.94446  1.0000
  C   C283      1.0  0.20349  0.44012  0.50629  1.0000
  C   C284      1.0  0.19906  0.42541  0.48875  1.0000
  C   C285      1.0  0.21088  0.41176  0.48568  1.0000
  H   H221      1.0  0.99505  0.28610  0.04168  1.0000
  C   C286      1.0  0.01231  0.47580  0.56954  1.0000
  H   H222      1.0  0.01742  0.44525  0.40901  1.0000
  C   C287      1.0  0.04227  0.46054  0.00697  1.0000
  H   H223      1.0  0.01508  0.43212  0.97456  1.0000
  H   H224      1.0  0.22932  0.39126  0.21463  1.0000
  H   H225      1.0  0.19439  0.45081  0.50796  1.0000
  H   H226      1.0  0.18660  0.42476  0.47669  1.0000
  H   H227      1.0  0.20760  0.40052  0.47127  1.0000
  C   C288      1.0  0.18386  0.31244  0.30057  1.0000
  H   H228      1.0  0.02032  0.48327  0.55137  1.0000
  C   C289      1.0  0.06808  0.46693  0.42285  1.0000
  H   H229      1.0  0.20217  0.33643  0.19338  1.0000
  C   C290      1.0  0.01956  0.42162  0.89606  1.0000
  C   C291      1.0  0.01363  0.44341  0.43744  1.0000
  H   H230      1.0  0.12412  0.40829  0.42933  1.0000
  C   C292      1.0  0.02079  0.44425  0.97896  1.0000
  C   C293      1.0  0.00056  0.26706  0.15384  1.0000
  H   H231      1.0  0.22645  0.38093  0.15145  1.0000
  H   H232      1.0  0.15414  0.47573  0.33434  1.0000
  C   C294      1.0  0.18889  0.28611  0.25057  1.0000
  H   H233      1.0  0.23628  0.40228  0.49698  1.0000
  C   C295      1.0  0.03480  0.44499  0.00157  1.0000
  C   C296      1.0  0.00842  0.44009  0.84633  1.0000
  H   H234      1.0  0.02369  0.40966  0.77984  1.0000
  H   H235      1.0  0.01586  0.44361  0.63297  1.0000
  C   C297      1.0  0.06586  0.47963  0.29268  1.0000
  C   C298      1.0  0.06702  0.41454  0.88569  1.0000
  H   H236      1.0  0.02486  0.37313  0.89183  1.0000
  C   C299      1.0  0.10693  0.43011  0.34090  1.0000
  H   H237      1.0  0.21814  0.27889  0.85506  1.0000
  C   C300      1.0  0.00476  0.43462  0.17768  1.0000
  C   C301      1.0  0.06918  0.42846  0.90790  1.0000
  H   H238      1.0  0.15932  0.27769  0.92667  1.0000
  H   H239      1.0  0.03982  0.43349  0.01490  1.0000
  C   C302      1.0  0.06138  0.36054  0.89599  1.0000
  H   H240      1.0  0.23295  0.40222  0.57213  1.0000
  H   H241      1.0  0.20866  0.26044  0.28564  1.0000
  H   H242      1.0  0.99756  0.38052  0.86281  1.0000
  S   S47       1.0  0.99580  0.37215  0.02345  1.0000
  C   C303      1.0  0.07467  0.34150  0.94108  1.0000
  H   H243      1.0  0.08396  0.33921  0.96222  1.0000
  C   C304      1.0  0.05663  0.45124  0.30693  1.0000
  H   H244      1.0  0.03844  0.47956  0.12702  1.0000
  H   H245      1.0  0.03362  0.45671  0.08363  1.0000
  H   H246      1.0  0.08702  0.36506  0.75336  1.0000
  C   C305      1.0  0.00226  0.41542  0.33361  1.0000
  C   C306      1.0  0.06350  0.32883  0.93269  1.0000
  C   C307      1.0  0.17244  0.26738  0.19261  1.0000
  C   C308      1.0  0.10504  0.37637  0.78808  1.0000
  C   C309      1.0  0.16991  0.30363  0.28885  1.0000
  C   C310      1.0  0.06332  0.39859  0.90129  1.0000
  C   C311      1.0  0.18341  0.24739  0.10013  1.0000
  H   H247      1.0  0.23320  0.43993  0.59852  1.0000
  C   C312      1.0  0.23866  0.35532  0.53937  1.0000
  C   C313      1.0  0.12093  0.40600  0.37149  1.0000
  H   H248      1.0  0.09644  0.47252  0.50673  1.0000
  H   H249      1.0  0.08251  0.36687  0.92977  1.0000
  C   C314      1.0  0.17265  0.27351  0.92469  1.0000
  C   C315      1.0  0.11909  0.41429  0.40471  1.0000
  H   H250      1.0  0.20484  0.34684  0.25661  1.0000
  C   C316      1.0  0.08893  0.37074  0.77952  1.0000
  C   C317      1.0  0.17239  0.29053  0.26388  1.0000
  C   C318      1.0  0.07372  0.35724  0.92268  1.0000
  H   H251      1.0  0.04175  0.34927  0.86470  1.0000
  H   H252      1.0  0.21222  0.28969  0.92201  1.0000
  H   H253      1.0  0.24130  0.37794  0.61223  1.0000
  C   C319      1.0  0.10758  0.38341  0.82208  1.0000
  C   C320      1.0  0.16361  0.40796  0.26035  1.0000
  H   H254      1.0  0.06982  0.43770  0.34989  1.0000
  C   C321      1.0  0.02155  0.44051  0.50088  1.0000
  H   H255      1.0  0.03958  0.44220  0.45571  1.0000
  H   H256      1.0  0.18992  0.39937  0.25300  1.0000
  H   H257      1.0  0.05133  0.40149  0.80712  1.0000
  H   H258      1.0  0.09629  0.39013  0.87396  1.0000
  C   C322      1.0  0.15331  0.27465  0.14292  1.0000
  C   C323      1.0  0.14130  0.26362  0.15781  1.0000
  H   H259      1.0  0.11630  0.40747  0.31386  1.0000
  H   H260      1.0  0.06300  0.36757  0.79813  1.0000
  H   H261      1.0  0.15715  0.30709  0.29886  1.0000
  H   H262      1.0  0.04814  0.44103  0.30197  1.0000
  C   C324      1.0  0.01412  0.45905  0.96192  1.0000
  H   H263      1.0  0.22825  0.36891  0.49223  1.0000
  C   C325      1.0  0.05165  0.33174  0.90515  1.0000
  C   C326      1.0  0.22711  0.41280  0.50026  1.0000
  H   H264      1.0  0.04693  0.47335  0.45938  1.0000
  C   C327      1.0  0.14480  0.25442  0.19002  1.0000
  H   H265      1.0  0.11009  0.43660  0.43217  1.0000
  C   C328      1.0  0.24142  0.31770  0.82649  1.0000
  S   S48       1.0  0.23819  0.42590  0.40973  1.0000
  C   C329      1.0  0.22403  0.31692  0.83725  1.0000
  C   C330      1.0  0.23747  0.25967  0.87015  1.0000
  H   H266      1.0  0.22314  0.45303  0.53270  1.0000
  P   P10       1.0  0.22966  0.25652  0.91660  1.0000
  C   C331      1.0  0.20287  0.29485  0.26300  1.0000
  H   H267      1.0  0.01423  0.26536  0.15699  1.0000
  C   C332      1.0  0.22101  0.30157  0.15055  1.0000
  H   H268      1.0  0.22099  0.31499  0.14312  1.0000
  C   C333      1.0  0.14188  0.48027  0.34537  1.0000
  H   H269      1.0  0.99343  0.47125  0.36411  1.0000
  C   C334      1.0  0.00429  0.44030  0.51143  1.0000
  C   C335      1.0  0.23341  0.27312  0.14493  1.0000
  H   H270      1.0  0.13556  0.24574  0.20139  1.0000
  C   C336      1.0  0.99349  0.42109  0.30259  1.0000
  C   C337      1.0  0.16499  0.48379  0.45220  1.0000
  H   H271      1.0  0.23983  0.28235  0.03508  1.0000
  H   H272      1.0  0.23643  0.26087  0.53550  1.0000
  H   H273      1.0  0.99914  0.36116  0.14254  1.0000
  H   H274      1.0  0.01444  0.48520  0.43275  1.0000
  H   H275      1.0  0.23005  0.28389  0.79331  1.0000
  H   H276      1.0  0.23569  0.46401  0.63983  1.0000
  Fe  Fe24      1.0  0.16356  0.67054  0.46164  1.0000
  S   S49       1.0  0.14115  0.68846  0.47396  1.0000
  S   S50       1.0  0.16511  0.64123  0.46345  1.0000
  Fe  Fe25      1.0  0.18576  0.69946  0.43196  1.0000
  S   S51       1.0  0.16415  0.71894  0.44149  1.0000
  S   S52       1.0  0.21177  0.70973  0.41244  1.0000
  Fe  Fe26      1.0  0.16033  0.70608  0.49702  1.0000
  S   S53       1.0  0.15693  0.72435  0.54662  1.0000
  Fe  Fe27      1.0  0.14659  0.70009  0.41769  1.0000
  S   S54       1.0  0.12295  0.70445  0.38062  1.0000
  S   S55       1.0  0.18254  0.68729  0.48788  1.0000
  S   S56       1.0  0.16842  0.68157  0.40492  1.0000
  H   H277      1.0  0.01299  0.63458  0.19178  1.0000
  Fe  Fe28      1.0  0.00780  0.50470  0.72412  1.0000
  C   C338      1.0  0.03842  0.56489  0.09181  1.0000
  S   S57       1.0  0.08007  0.71419  0.11939  1.0000
  H   H278      1.0  0.17075  0.56586  0.53932  1.0000
  S   S58       1.0  0.05059  0.72541  0.18135  1.0000
  Fe  Fe29      1.0  0.07917  0.72792  0.17319  1.0000
  C   C339      1.0  0.00993  0.49508  0.45115  1.0000
  Fe  Fe30      1.0  0.05128  0.71292  0.12610  1.0000
  S   S59       1.0  0.03953  0.68706  0.11443  1.0000
  H   H279      1.0  0.12569  0.66022  0.32245  1.0000
  Fe  Fe31      1.0  0.11612  0.55329  0.49668  1.0000
  S   S60       1.0  0.12154  0.52940  0.53085  1.0000
  S   S61       1.0  0.11846  0.58021  0.51856  1.0000
  Fe  Fe32      1.0  0.10148  0.53308  0.43550  1.0000
  S   S62       1.0  0.10576  0.50801  0.46469  1.0000
  S   S63       1.0  0.09024  0.53685  0.37932  1.0000
  Fe  Fe33      1.0  0.09537  0.52132  0.51522  1.0000
  S   S64       1.0  0.07514  0.50664  0.54894  1.0000
  Fe  Fe34      1.0  0.13144  0.51759  0.47810  1.0000
  S   S65       1.0  0.08943  0.54575  0.48419  1.0000
  S   S66       1.0  0.12782  0.54215  0.44555  1.0000
  S   S67       1.0  0.02891  0.51967  0.69401  1.0000
  H   H280      1.0  0.00543  0.53813  0.45426  1.0000
  H   H281      1.0  0.06567  0.69343  0.92565  1.0000
  H   H282      1.0  0.09136  0.68621  0.06277  1.0000
  C   C340      1.0  0.07220  0.52505  0.37040  1.0000
  C   C341      1.0  0.06442  0.52672  0.33631  1.0000
  C   C342      1.0  0.04975  0.51765  0.32914  1.0000
  C   C343      1.0  0.04287  0.50688  0.35612  1.0000
  H   H283      1.0  0.06968  0.53510  0.31547  1.0000
  H   H284      1.0  0.04373  0.51906  0.30293  1.0000
  C   C344      1.0  0.06247  0.51053  0.58946  1.0000
  H   H285      1.0  0.03209  0.65333  0.09194  1.0000
  H   H286      1.0  0.22911  0.59352  0.38148  1.0000
  C   C345      1.0  0.04163  0.51558  0.65366  1.0000
  C   C346      1.0  0.05411  0.52722  0.64273  1.0000
  C   C347      1.0  0.06447  0.52471  0.61101  1.0000
  C   C348      1.0  0.18754  0.50287  0.37611  1.0000
  C   C349      1.0  0.17340  0.56363  0.51063  1.0000
  H   H287      1.0  0.05588  0.53819  0.65920  1.0000
  H   H288      1.0  0.07408  0.53365  0.60335  1.0000
  H   H289      1.0  0.08489  0.68803  0.43180  1.0000
  C   C350      1.0  0.02066  0.67858  0.09609  1.0000
  H   H290      1.0  0.21809  0.72939  0.50235  1.0000
  H   H291      1.0  0.00742  0.51630  0.88132  1.0000
  H   H292      1.0  0.00771  0.51864  0.06992  1.0000
  C   C351      1.0  0.18058  0.51902  0.38393  1.0000
  C   C352      1.0  0.20616  0.69512  0.64637  1.0000
  H   H293      1.0  0.19979  0.73932  0.45197  1.0000
  S   S68       1.0  0.00716  0.50078  0.78562  1.0000
  C   C353      1.0  0.00540  0.53424  0.61447  1.0000
  H   H294      1.0  0.09029  0.70761  0.34579  1.0000
  H   H295      1.0  0.16755  0.52018  0.39459  1.0000
  H   H296      1.0  0.16371  0.70370  0.61407  1.0000
  C   C354      1.0  0.06539  0.51416  0.39713  1.0000
  S   S69       1.0  0.00200  0.53021  0.17947  1.0000
  H   H297      1.0  0.12194  0.51618  0.37755  1.0000
  C   C355      1.0  0.20083  0.70565  0.57398  1.0000
  C   C356      1.0  0.01752  0.70676  0.99380  1.0000
  C   C357      1.0  0.23917  0.73309  0.56475  1.0000
  C   C358      1.0  0.09467  0.71367  0.28845  1.0000
  C   C359      1.0  0.02061  0.66114  0.08813  1.0000
  C   C360      1.0  0.99488  0.60665  0.16116  1.0000
  C   C361      1.0  0.00686  0.52111  0.04076  1.0000
  C   C362      1.0  0.15075  0.62518  0.47767  1.0000
  C   C363      1.0  0.14114  0.62611  0.51035  1.0000
  C   C364      1.0  0.13116  0.61236  0.52223  1.0000
  C   C365      1.0  0.13058  0.59754  0.50162  1.0000
  C   C366      1.0  0.13967  0.59685  0.46843  1.0000
  C   C367      1.0  0.14982  0.61049  0.45668  1.0000
  H   H298      1.0  0.14189  0.63717  0.52712  1.0000
  H   H299      1.0  0.12419  0.61305  0.54804  1.0000
  H   H300      1.0  0.13917  0.58555  0.45253  1.0000
  H   H301      1.0  0.15717  0.60959  0.43141  1.0000
  C   C368      1.0  0.11729  0.70900  0.33387  1.0000
  H   H302      1.0  0.01235  0.71173  0.15929  1.0000
  H   H303      1.0  0.09187  0.58765  0.45230  1.0000
  C   C369      1.0  0.10681  0.71678  0.26054  1.0000
  C   C370      1.0  0.02087  0.51259  0.88214  1.0000
  C   C371      1.0  0.12944  0.71187  0.30587  1.0000
  H   H304      1.0  0.03854  0.59201  0.28743  1.0000
  H   H305      1.0  0.10384  0.61545  0.44029  1.0000
  H   H306      1.0  0.14967  0.50598  0.35055  1.0000
  H   H307      1.0  0.14287  0.71126  0.31215  1.0000
  C   C372      1.0  0.23012  0.70023  0.38977  1.0000
  C   C373      1.0  0.23136  0.68294  0.38178  1.0000
  H   H308      1.0  0.03247  0.56086  0.03559  1.0000
  H   H309      1.0  0.12757  0.60746  0.33813  1.0000
  H   H310      1.0  0.22092  0.67487  0.38933  1.0000
  H   H311      1.0  0.00127  0.55375  0.11907  1.0000
  H   H312      1.0  0.08095  0.58353  0.33868  1.0000
  H   H313      1.0  0.07605  0.63855  0.33605  1.0000
  C   C374      1.0  0.02488  0.64989  0.91878  1.0000
  H   H314      1.0  0.00303  0.53046  0.93694  1.0000
  C   C375      1.0  0.03280  0.58613  0.26455  1.0000
  C   C376      1.0  0.01474  0.66573  0.98358  1.0000
  C   C377      1.0  0.02604  0.67386  0.95921  1.0000
  C   C378      1.0  0.03130  0.66569  0.92693  1.0000
  P   P11       1.0  0.03408  0.69431  0.97029  1.0000
  H   H315      1.0  0.99904  0.54743  0.04703  1.0000
  C   C379      1.0  0.21421  0.59567  0.33287  1.0000
  H   H316      1.0  0.04535  0.49707  0.41105  1.0000
  H   H317      1.0  0.21868  0.71860  0.65214  1.0000
  C   C380      1.0  0.19769  0.68471  0.62297  1.0000
  H   H318      1.0  0.18819  0.68203  0.56887  1.0000
  C   C381      1.0  0.02178  0.71836  0.02028  1.0000
  H   H319      1.0  0.20796  0.69118  0.67459  1.0000
  C   C382      1.0  0.20451  0.50091  0.36392  1.0000
  H   H320      1.0  0.00374  0.60126  0.08757  1.0000
  C   C383      1.0  0.00573  0.68846  0.09000  1.0000
  H   H321      1.0  0.16281  0.53595  0.33101  1.0000
  C   C384      1.0  0.05237  0.69154  0.99923  1.0000
  C   C385      1.0  0.05452  0.67688  0.02140  1.0000
  C   C386      1.0  0.06861  0.67493  0.04403  1.0000
  C   C387      1.0  0.08060  0.68761  0.04478  1.0000
  H   H322      1.0  0.01080  0.67167  0.00886  1.0000
  C   C388      1.0  0.06436  0.70435  0.00058  1.0000
  H   H323      1.0  0.02883  0.64369  0.89371  1.0000
  C   C389      1.0  0.00592  0.65366  0.07476  1.0000
  C   C390      1.0  0.00826  0.65002  0.97530  1.0000
  H   H324      1.0  0.02996  0.49240  0.63976  1.0000
  H   H325      1.0  0.04024  0.67148  0.90791  1.0000
  C   C391      1.0  0.16165  0.71678  0.62175  1.0000
  H   H326      1.0  0.13633  0.73035  0.96436  1.0000
  C   C392      1.0  0.20028  0.58970  0.31452  1.0000
  C   C393      1.0  0.17639  0.57729  0.48662  1.0000
  H   H327      1.0  0.03494  0.72001  0.02718  1.0000
  H   H328      1.0  0.01634  0.51541  0.41349  1.0000
  C   C394      1.0  0.07842  0.70235  0.02320  1.0000
  H   H329      1.0  0.07130  0.51276  0.42346  1.0000
  H   H330      1.0  0.06275  0.71604  0.98464  1.0000
  C   C395      1.0  0.01329  0.64210  0.94286  1.0000
  H   H331      1.0  0.04520  0.66708  0.02195  1.0000
  H   H332      1.0  0.06994  0.66381  0.06181  1.0000
  C   C396      1.0  0.00440  0.52762  0.96576  1.0000
  H   H333      1.0  0.01778  0.53954  0.61825  1.0000
  C   C397      1.0  0.04900  0.51330  0.85341  1.0000
  C   C398      1.0  0.20939  0.71619  0.59729  1.0000
  H   H334      1.0  0.18004  0.61913  0.35131  1.0000
  C   C399      1.0  0.05544  0.50250  0.88098  1.0000
  H   H335      1.0  0.99922  0.64404  0.99399  1.0000
  C   C400      1.0  0.03173  0.51838  0.85408  1.0000
  H   H336      1.0  0.08889  0.66854  0.38095  1.0000
  C   C401      1.0  0.05040  0.72296  0.86452  1.0000
  C   C402      1.0  0.02898  0.56893  0.26675  1.0000
  H   H337      1.0  0.01223  0.62125  0.61642  1.0000
  H   H338      1.0  0.24084  0.71443  0.46590  1.0000
  C   C403      1.0  0.19036  0.53349  0.37824  1.0000
  H   H339      1.0  0.01641  0.71887  0.22394  1.0000
  P   P12       1.0  0.18106  0.55446  0.38709  1.0000
  C   C404      1.0  0.17913  0.55794  0.43576  1.0000
  C   C405      1.0  0.19410  0.57049  0.36566  1.0000
  C   C406      1.0  0.20833  0.57631  0.38360  1.0000
  H   H340      1.0  0.00548  0.70185  0.09570  1.0000
  C   C407      1.0  0.19028  0.57711  0.33076  1.0000
  C   C408      1.0  0.17907  0.57451  0.44931  1.0000
  H   H341      1.0  0.17642  0.53140  0.45104  1.0000
  H   H342      1.0  0.07449  0.70909  0.86969  1.0000
  H   H343      1.0  0.01454  0.49913  0.14553  1.0000
  C   C409      1.0  0.17651  0.54428  0.46031  1.0000
  C   C410      1.0  0.15987  0.55679  0.36863  1.0000
  C   C411      1.0  0.15429  0.54571  0.34226  1.0000
  C   C412      1.0  0.13742  0.54703  0.33042  1.0000
  C   C413      1.0  0.12616  0.55962  0.34420  1.0000
  C   C414      1.0  0.13186  0.57118  0.36909  1.0000
  C   C415      1.0  0.14870  0.56990  0.38084  1.0000
  H   H344      1.0  0.06593  0.65581  0.28313  1.0000
  H   H345      1.0  0.08124  0.71424  0.28221  1.0000
  H   H346      1.0  0.17106  0.64577  0.38179  1.0000
  C   C416      1.0  0.20745  0.53141  0.36604  1.0000
  S   S70       1.0  0.04693  0.73755  0.09498  1.0000
  H   H347      1.0  0.21172  0.57114  0.41024  1.0000
  H   H348      1.0  0.13295  0.53811  0.31105  1.0000
  C   C417      1.0  0.13942  0.49728  0.35476  1.0000
  H   H349      1.0  0.18066  0.58539  0.43112  1.0000
  S   S71       1.0  0.10112  0.72204  0.21408  1.0000
  H   H350      1.0  0.17103  0.53648  0.51590  1.0000
  C   C418      1.0  0.16256  0.72121  0.65900  1.0000
  H   H351      1.0  0.15814  0.60002  0.32926  1.0000
  C   C419      1.0  0.01379  0.60898  0.60373  1.0000
  S   S72       1.0  0.02367  0.49783  0.23992  1.0000
  H   H352      1.0  0.11295  0.56030  0.33590  1.0000
  H   H353      1.0  0.12314  0.58088  0.38004  1.0000
  H   H354      1.0  0.15295  0.57903  0.39981  1.0000
  C   C420      1.0  0.07324  0.57030  0.64799  1.0000
  C   C421      1.0  0.08939  0.56363  0.63773  1.0000
  C   C422      1.0  0.09401  0.56251  0.60079  1.0000
  C   C423      1.0  0.08244  0.56793  0.57415  1.0000
  C   C424      1.0  0.06633  0.57494  0.58409  1.0000
  C   C425      1.0  0.06173  0.57597  0.62133  1.0000
  P   P13       1.0  0.05188  0.58240  0.54891  1.0000
  C   C426      1.0  0.03146  0.58842  0.56987  1.0000
  C   C427      1.0  0.05988  0.60088  0.52452  1.0000
  C   C428      1.0  0.07689  0.60566  0.52751  1.0000
  C   C429      1.0  0.08274  0.61995  0.50831  1.0000
  C   C430      1.0  0.07170  0.62961  0.48602  1.0000
  C   C431      1.0  0.05474  0.62503  0.48302  1.0000
  C   C432      1.0  0.04883  0.61076  0.50225  1.0000
  C   C433      1.0  0.01794  0.57715  0.57170  1.0000
  C   C434      1.0  0.00470  0.52494  0.46304  1.0000
  H   H355      1.0  0.14056  0.65354  0.39103  1.0000
  C   C435      1.0  0.11057  0.49174  0.37578  1.0000
  C   C436      1.0  0.02926  0.60436  0.58610  1.0000
  C   C437      1.0  0.04928  0.56509  0.51820  1.0000
  C   C438      1.0  0.04705  0.54860  0.53254  1.0000
  C   C439      1.0  0.04485  0.53509  0.50928  1.0000
  C   C440      1.0  0.04521  0.53784  0.47152  1.0000
  C   C441      1.0  0.04757  0.55414  0.45689  1.0000
  C   C442      1.0  0.04957  0.56776  0.48011  1.0000
  H   H356      1.0  0.06958  0.57093  0.67665  1.0000
  H   H357      1.0  0.09828  0.55919  0.65836  1.0000
  H   H358      1.0  0.10653  0.55737  0.59262  1.0000
  H   H359      1.0  0.08622  0.56697  0.54571  1.0000
  H   H360      1.0  0.04930  0.58099  0.63008  1.0000
  H   H361      1.0  0.08580  0.59854  0.54456  1.0000
  H   H362      1.0  0.09590  0.62347  0.51070  1.0000
  H   H363      1.0  0.07630  0.64067  0.47117  1.0000
  H   H364      1.0  0.04617  0.63257  0.46583  1.0000
  H   H365      1.0  0.03564  0.60738  0.49965  1.0000
  H   H366      1.0  0.01920  0.56473  0.55987  1.0000
  H   H367      1.0  0.22769  0.51358  0.34985  1.0000
  H   H368      1.0  0.05435  0.72979  0.83991  1.0000
  H   H369      1.0  0.08026  0.57151  0.40176  1.0000
  H   H370      1.0  0.03961  0.61313  0.58561  1.0000
  H   H371      1.0  0.04706  0.54617  0.56174  1.0000
  H   H372      1.0  0.04337  0.52237  0.52055  1.0000
  H   H373      1.0  0.04399  0.52724  0.45362  1.0000
  H   H374      1.0  0.04827  0.55609  0.42752  1.0000
  H   H375      1.0  0.05172  0.58018  0.46810  1.0000
  H   H376      1.0  0.19725  0.59483  0.28765  1.0000
  H   H377      1.0  0.19825  0.70958  0.54613  1.0000
  H   H378      1.0  0.11521  0.67755  0.27045  1.0000
  C   C443      1.0  0.09987  0.70986  0.32465  1.0000
  C   C444      1.0  0.04033  0.70546  0.92870  1.0000
  H   H379      1.0  0.11769  0.65588  0.49792  1.0000
  C   C445      1.0  0.02723  0.50184  0.91026  1.0000
  H   H380      1.0  0.01244  0.73664  0.05924  1.0000
  P   P14       1.0  0.01280  0.49419  0.94590  1.0000
  H   H381      1.0  0.99987  0.56488  0.89301  1.0000
  C   C446      1.0  0.00247  0.49083  0.48506  1.0000
  H   H382      1.0  0.03089  0.65977  0.18761  1.0000
  H   H383      1.0  0.17961  0.57257  0.31602  1.0000
  H   H384      1.0  0.16556  0.71141  0.67925  1.0000
  H   H385      1.0  0.21544  0.54222  0.36198  1.0000
  H   H386      1.0  0.01621  0.71955  0.92271  1.0000
  H   H387      1.0  0.08547  0.67547  0.25046  1.0000
  H   H388      1.0  0.08746  0.71241  0.02449  1.0000
  C   C447      1.0  0.04464  0.49677  0.90929  1.0000
  H   H389      1.0  0.12253  0.63656  0.44643  1.0000
  C   C448      1.0  0.15787  0.72915  0.59468  1.0000
  C   C449      1.0  0.00898  0.72788  0.03864  1.0000
  H   H390      1.0  0.17606  0.59012  0.49680  1.0000
  H   H391      1.0  0.00817  0.62994  0.93643  1.0000
  C   C450      1.0  0.06174  0.71127  0.88128  1.0000
  C   C451      1.0  0.12379  0.50301  0.36996  1.0000
  H   H392      1.0  0.01421  0.51873  0.57003  1.0000
  H   H393      1.0  0.99684  0.55321  0.98042  1.0000
  C   C452      1.0  0.04991  0.49895  0.60018  1.0000
  C   C453      1.0  0.17353  0.54713  0.49747  1.0000
  C   C454      1.0  0.02961  0.56833  0.05961  1.0000
  C   C455      1.0  0.05671  0.70248  0.91312  1.0000
  H   H394      1.0  0.09890  0.68172  0.49075  1.0000
  H   H395      1.0  0.19288  0.67271  0.63299  1.0000
  H   H396      1.0  0.06442  0.49143  0.27705  1.0000
  C   C456      1.0  0.00906  0.51111  0.97833  1.0000
  C   C457      1.0  0.05073  0.50521  0.39002  1.0000
  H   H397      1.0  0.99509  0.54279  0.84721  1.0000
  C   C458      1.0  0.21826  0.58893  0.36733  1.0000
  H   H398      1.0  0.22887  0.68846  0.49382  1.0000
  S   S73       1.0  0.15741  0.50287  0.47383  1.0000
  C   C459      1.0  0.00331  0.52242  0.58720  1.0000
  C   C460      1.0  0.02895  0.71712  0.91152  1.0000
  H   H399      1.0  0.04811  0.55471  0.09280  1.0000
  C   C461      1.0  0.01711  0.58144  0.05833  1.0000
  C   C462      1.0  0.01337  0.59108  0.08929  1.0000
  C   C463      1.0  0.02193  0.58753  0.12198  1.0000
  C   C464      1.0  0.03474  0.57455  0.12278  1.0000
  P   P15       1.0  0.01734  0.60037  0.16159  1.0000
  C   C465      1.0  0.02179  0.58819  0.20301  1.0000
  C   C466      1.0  0.03047  0.61879  0.15925  1.0000
  C   C467      1.0  0.02511  0.63379  0.17694  1.0000
  C   C468      1.0  0.03531  0.64800  0.17516  1.0000
  C   C469      1.0  0.05103  0.64727  0.15632  1.0000
  C   C470      1.0  0.05655  0.63235  0.13905  1.0000
  C   C471      1.0  0.04633  0.61815  0.14048  1.0000
  H   H400      1.0  0.99858  0.62942  0.12811  1.0000
  C   C472      1.0  0.99737  0.52076  0.49705  1.0000
  C   C473      1.0  0.21209  0.71075  0.63358  1.0000
  C   C474      1.0  0.21448  0.51516  0.35900  1.0000
  C   C475      1.0  0.02920  0.59575  0.23284  1.0000
  C   C476      1.0  0.01790  0.57095  0.20565  1.0000
  H   H401      1.0  0.06880  0.49841  0.88013  1.0000
  Fe  Fe35      1.0  0.01125  0.49464  0.29502  1.0000
  C   C477      1.0  0.20769  0.73847  0.50791  1.0000
  H   H402      1.0  0.22193  0.60546  0.32033  1.0000
  C   C478      1.0  0.12423  0.71572  0.26968  1.0000
  C   C479      1.0  0.01096  0.51212  0.44013  1.0000
  C   C480      1.0  0.19510  0.68994  0.58678  1.0000
  C   C481      1.0  0.99635  0.50367  0.50844  1.0000
  C   C482      1.0  0.03953  0.50143  0.63195  1.0000
  H   H403      1.0  0.04185  0.57182  0.14731  1.0000
  H   H404      1.0  0.01208  0.56488  0.18316  1.0000
  H   H405      1.0  0.23777  0.73096  0.20286  1.0000
  H   H406      1.0  0.05871  0.65846  0.15434  1.0000
  H   H407      1.0  0.06866  0.63189  0.12412  1.0000
  H   H408      1.0  0.05081  0.60674  0.12678  1.0000
  Fe  Fe36      1.0  0.99842  0.50929  0.22217  1.0000
  C   C483      1.0  0.00999  0.50792  0.01620  1.0000
  H   H409      1.0  0.03225  0.60903  0.23177  1.0000
  H   H410      1.0  0.01027  0.58415  0.03333  1.0000
  C   C484      1.0  0.00043  0.59770  0.60545  1.0000
  H   H411      1.0  0.13383  0.71801  0.24859  1.0000
  C   C485      1.0  0.03400  0.72583  0.87955  1.0000
  H   H412      1.0  0.09323  0.61155  0.32575  1.0000
  C   C486      1.0  0.11281  0.65856  0.31341  1.0000
  H   H413      1.0  0.01843  0.54804  0.23892  1.0000
  C   C487      1.0  0.11105  0.65831  0.47263  1.0000
  C   C488      1.0  0.10045  0.67285  0.46862  1.0000
  C   C489      1.0  0.09250  0.67637  0.43547  1.0000
  C   C490      1.0  0.09497  0.66525  0.40645  1.0000
  C   C491      1.0  0.10569  0.65060  0.41020  1.0000
  C   C492      1.0  0.11379  0.64737  0.44343  1.0000
  P   P16       1.0  0.10916  0.63612  0.37279  1.0000
  C   C493      1.0  0.13167  0.63086  0.36607  1.0000
  C   C494      1.0  0.09868  0.61625  0.38227  1.0000
  C   C495      1.0  0.09842  0.60910  0.41783  1.0000
  C   C496      1.0  0.09166  0.59314  0.42483  1.0000
  C   C497      1.0  0.08518  0.58404  0.39637  1.0000
  C   C498      1.0  0.08558  0.59086  0.36081  1.0000
  C   C499      1.0  0.09240  0.60683  0.35369  1.0000
  C   C500      1.0  0.14413  0.64177  0.37758  1.0000
  C   C501      1.0  0.16149  0.63751  0.37202  1.0000
  C   C502      1.0  0.16656  0.62242  0.35495  1.0000
  C   C503      1.0  0.15425  0.61165  0.34280  1.0000
  C   C504      1.0  0.13688  0.61588  0.34814  1.0000
  C   C505      1.0  0.10196  0.64723  0.33190  1.0000
  C   C506      1.0  0.08494  0.64641  0.32099  1.0000
  C   C507      1.0  0.07909  0.65635  0.29132  1.0000
  C   C508      1.0  0.09005  0.66742  0.27286  1.0000
  C   C509      1.0  0.10688  0.66853  0.28398  1.0000
  H   H414      1.0  0.03177  0.56144  0.29123  1.0000
  P   P17       1.0  0.21729  0.73633  0.58084  1.0000
  C   C510      1.0  0.02149  0.56137  0.23732  1.0000
  H   H415      1.0  0.02664  0.52653  0.83236  1.0000
  C   C511      1.0  0.00081  0.54062  0.99045  1.0000
  H   H416      1.0  0.00632  0.64034  0.06816  1.0000
  H   H417      1.0  0.05730  0.51756  0.83119  1.0000
  H   H418      1.0  0.99378  0.54686  0.66080  1.0000
  H   H419      1.0  0.11548  0.72944  0.01667  1.0000
  H   H420      1.0  0.09854  0.49641  0.38760  1.0000
  S   S74       1.0  0.02418  0.49567  0.34953  1.0000
  H   H421      1.0  0.01283  0.49529  0.02708  1.0000
  C   C512      1.0  0.00022  0.70499  0.98573  1.0000
  C   C513      1.0  0.00533  0.72252  0.17102  1.0000
  C   C514      1.0  0.00251  0.58180  0.58945  1.0000
  C   C515      1.0  0.00206  0.53738  0.02792  1.0000
  C   C516      1.0  0.15964  0.73811  0.67036  1.0000
  C   C517      1.0  0.11454  0.73967  0.99653  1.0000
  H   H422      1.0  0.99656  0.69621  0.96525  1.0000
  C   C518      1.0  0.99323  0.49035  0.92296  1.0000
  C   C519      1.0  0.00764  0.72654  0.20744  1.0000
  H   H423      1.0  0.02520  0.73486  0.86649  1.0000
  Fe  Fe37      1.0  0.07559  0.73971  0.09103  1.0000
  H   H424      1.0  0.17986  0.49179  0.38014  1.0000
  C   C520      1.0  0.99413  0.73250  0.14962  1.0000
  Fe  Fe38      1.0  0.09414  0.95100  0.72971  1.0000
  S   S75       1.0  0.08767  0.92803  0.76468  1.0000
  S   S76       1.0  0.08077  0.94976  0.67414  1.0000
  Fe  Fe39      1.0  0.11762  0.96441  0.78932  1.0000
  S   S77       1.0  0.11135  0.94236  0.82745  1.0000
  C   C521      1.0  0.01967  0.97088  0.31367  1.0000
  Fe  Fe40      1.0  0.11537  0.92555  0.77886  1.0000
  S   S78       1.0  0.13377  0.90216  0.78637  1.0000
  Fe  Fe41      1.0  0.08416  0.94654  0.81030  1.0000
  S   S79       1.0  0.05932  0.94315  0.84329  1.0000
  S   S80       1.0  0.12257  0.94732  0.74097  1.0000
  S   S81       1.0  0.08971  0.96964  0.77533  1.0000
  C   C522      1.0  0.03702  0.91181  0.54557  1.0000
  H   H425      1.0  0.13405  0.87373  0.91666  1.0000
  C   C523      1.0  0.02608  0.93813  0.51819  1.0000
  P   P18       1.0  0.00795  0.91660  0.97369  1.0000
  C   C524      1.0  0.99839  0.76886  0.09397  1.0000
  H   H426      1.0  0.00738  0.88460  0.40643  1.0000
  Fe  Fe42      1.0  0.16085  0.76196  0.76653  1.0000
  S   S82       1.0  0.17229  0.78773  0.76281  1.0000
  Fe  Fe43      1.0  0.15082  0.76690  0.84945  1.0000
  S   S83       1.0  0.16161  0.79305  0.84960  1.0000
  H   H427      1.0  0.01950  0.77204  0.23078  1.0000
  Fe  Fe44      1.0  0.14926  0.79747  0.79518  1.0000
  S   S84       1.0  0.13240  0.82082  0.77807  1.0000
  Fe  Fe45      1.0  0.18414  0.78186  0.81748  1.0000
  S   S85       1.0  0.21055  0.79285  0.82627  1.0000
  S   S86       1.0  0.13696  0.77182  0.79651  1.0000
  H   H428      1.0  0.00529  0.91588  0.84786  1.0000
  S   S87       1.0  0.02919  0.77373  0.15243  1.0000
  H   H429      1.0  0.05985  0.98747  0.72981  1.0000
  C   C525      1.0  0.11187  0.81091  0.87855  1.0000
  H   H430      1.0  0.99750  0.90911  0.24593  1.0000
  Fe  Fe46      1.0  0.04786  0.75037  0.14936  1.0000
  C   C526      1.0  0.19098  0.76982  0.93383  1.0000
  C   C527      1.0  0.22952  0.78464  0.84771  1.0000
  H   H431      1.0  0.10634  0.82145  0.68699  1.0000
  C   C528      1.0  0.23130  0.76785  0.86085  1.0000
  H   H432      1.0  0.00524  0.88095  0.95157  1.0000
  H   H433      1.0  0.22089  0.75935  0.85828  1.0000
  H   H434      1.0  0.03265  0.98266  0.83236  1.0000
  C   C529      1.0  0.06545  0.96204  0.64794  1.0000
  H   H435      1.0  0.00359  0.94817  0.01393  1.0000
  C   C530      1.0  0.01138  0.94817  0.22070  1.0000
  C   C531      1.0  0.04155  0.98063  0.60303  1.0000
  C   C532      1.0  0.04326  0.96290  0.60129  1.0000
  C   C533      1.0  0.05516  0.95372  0.62339  1.0000
  Fe  Fe47      1.0  0.00676  0.99009  0.53108  1.0000
  H   H436      1.0  0.17476  0.75868  0.46391  1.0000
  H   H437      1.0  0.03542  0.95630  0.58288  1.0000
  H   H438      1.0  0.05643  0.94005  0.62142  1.0000
  H   H439      1.0  0.06883  0.78589  0.04280  1.0000
  C   C534      1.0  0.00005  0.93679  0.76606  1.0000
  C   C535      1.0  0.04631  0.95327  0.01912  1.0000
  C   C536      1.0  0.05222  0.95748  0.87749  1.0000
  C   C537      1.0  0.03500  0.95763  0.88924  1.0000
  C   C538      1.0  0.02906  0.96809  0.91785  1.0000
  C   C539      1.0  0.01804  0.92239  0.68167  1.0000
  C   C540      1.0  0.00556  0.96161  0.66237  1.0000
  C   C541      1.0  0.15988  0.86706  0.90046  1.0000
  H   H440      1.0  0.06745  0.88747  0.92799  1.0000
  C   C542      1.0  0.13302  0.87958  0.78346  1.0000
  C   C543      1.0  0.14728  0.86947  0.79454  1.0000
  C   C544      1.0  0.14733  0.85155  0.79323  1.0000
  C   C545      1.0  0.13309  0.84341  0.78079  1.0000
  C   C546      1.0  0.11891  0.85352  0.76924  1.0000
  C   C547      1.0  0.11882  0.87146  0.77067  1.0000
  H   H441      1.0  0.15838  0.87555  0.80437  1.0000
  H   H442      1.0  0.15844  0.84406  0.80162  1.0000
  H   H443      1.0  0.10789  0.84741  0.75915  1.0000
  H   H444      1.0  0.10777  0.87899  0.76188  1.0000
  C   C548      1.0  0.99936  0.79500  0.05799  1.0000
  H   H445      1.0  0.09413  0.79326  0.80537  1.0000
  C   C549      1.0  0.16800  0.94407  0.80883  1.0000
  C   C550      1.0  0.11858  0.83378  0.01215  1.0000
  C   C551      1.0  0.04950  0.98223  0.74610  1.0000
  C   C552      1.0  0.20205  0.75149  0.64205  1.0000
  C   C553      1.0  0.12565  0.75341  0.93992  1.0000
  C   C554      1.0  0.07833  0.88387  0.91063  1.0000
  H   H446      1.0  0.02275  0.95432  0.21063  1.0000
  C   C555      1.0  0.00399  0.79487  0.24109  1.0000
  C   C556      1.0  0.01386  0.78357  0.21897  1.0000
  C   C557      1.0  0.01648  0.78726  0.18175  1.0000
  C   C558      1.0  0.00896  0.80238  0.16705  1.0000
  C   C559      1.0  0.10077  0.76548  0.97343  1.0000
  H   H447      1.0  0.04437  0.80821  0.13678  1.0000
  H   H448      1.0  0.00222  0.93422  0.90306  1.0000
  C   C560      1.0  0.22149  0.75216  0.21869  1.0000
  C   C561      1.0  0.21086  0.78054  0.09728  1.0000
  H   H449      1.0  0.10330  0.81774  0.04728  1.0000
  H   H450      1.0  0.21165  0.75237  0.00685  1.0000
  C   C562      1.0  0.03958  0.92848  0.53327  1.0000
  H   H451      1.0  0.03832  0.87865  0.85653  1.0000
  C   C563      1.0  0.99917  0.81375  0.18923  1.0000
  P   P19       1.0  0.01237  0.94817  0.73178  1.0000
  H   H452      1.0  0.02361  0.92318  0.22364  1.0000
  C   C564      1.0  0.10723  0.82810  0.87171  1.0000
  C   C565      1.0  0.08357  0.89492  0.88240  1.0000
  H   H453      1.0  0.19790  0.78436  0.10534  1.0000
  H   H454      1.0  0.16463  0.87927  0.90755  1.0000
  H   H455      1.0  0.17968  0.76816  0.91790  1.0000
  C   C566      1.0  0.99661  0.81007  0.22651  1.0000
  H   H456      1.0  0.19956  0.79097  0.90103  1.0000
  H   H457      1.0  0.11079  0.79113  0.70562  1.0000
  C   C567      1.0  0.12111  0.84039  0.97672  1.0000
  C   C568      1.0  0.01189  0.93067  0.22810  1.0000
  C   C569      1.0  0.19919  0.98950  0.71772  1.0000
  H   H458      1.0  0.12723  0.83683  0.03347  1.0000
  C   C570      1.0  0.19447  0.75892  0.96355  1.0000
  S   S88       1.0  0.99411  0.94838  0.42948  1.0000
  C   C571      1.0  0.05743  0.97874  0.92257  1.0000
  C   C572      1.0  0.06337  0.96827  0.89392  1.0000
  C   C573      1.0  0.19729  0.74402  0.47923  1.0000
  H   H459      1.0  0.11735  0.87151  0.84853  1.0000
  H   H460      1.0  0.22738  0.82763  0.70880  1.0000
  C   C574      1.0  0.03865  0.97081  0.73076  1.0000
  H   H461      1.0  0.09084  0.77533  0.97569  1.0000
  H   H462      1.0  0.01790  0.95620  0.65399  1.0000
  C   C575      1.0  0.03415  0.97954  0.80384  1.0000
  H   H463      1.0  0.20983  0.74549  0.21473  1.0000
  H   H464      1.0  0.02622  0.94967  0.87597  1.0000
  C   C576      1.0  0.21697  0.78461  0.94433  1.0000
  C   C577      1.0  0.06364  0.97976  0.64987  1.0000
  S   S89       1.0  0.17420  0.75535  0.81982  1.0000
  H   H465      1.0  0.02421  0.96794  0.03726  1.0000
  C   C578      1.0  0.14251  0.86390  0.90533  1.0000
  C   C579      1.0  0.12158  0.79859  0.69708  1.0000
  C   C580      1.0  0.01793  0.90426  0.93730  1.0000
  P   P20       1.0  0.21071  0.97164  0.82056  1.0000
  C   C581      1.0  0.09404  0.81900  0.99242  1.0000
  C   C582      1.0  0.18322  0.75500  0.48591  1.0000
  C   C583      1.0  0.02533  0.93218  0.70838  1.0000
  C   C584      1.0  0.02813  0.91049  0.66221  1.0000
  C   C585      1.0  0.04547  0.90811  0.66973  1.0000
  C   C586      1.0  0.05267  0.91745  0.69698  1.0000
  C   C587      1.0  0.04265  0.92936  0.71645  1.0000
  H   H466      1.0  0.02262  0.90330  0.64094  1.0000
  H   H467      1.0  0.02807  0.95099  0.50807  1.0000
  C   C588      1.0  0.03260  0.88576  0.87897  1.0000
  H   H468      1.0  0.07691  0.90710  0.87794  1.0000
  C   C589      1.0  0.02314  0.96828  0.78848  1.0000
  C   C590      1.0  0.02562  0.96348  0.75199  1.0000
  H   H469      1.0  0.11951  0.80717  0.90185  1.0000
  C   C591      1.0  0.11271  0.76609  0.94374  1.0000
  H   H470      1.0  0.23501  0.79068  0.24357  1.0000
  H   H471      1.0  0.04508  0.90893  0.86366  1.0000
  P   P21       1.0  0.11369  0.84413  0.90260  1.0000
  H   H472      1.0  0.04281  0.79775  0.07455  1.0000
  C   C592      1.0  0.10147  0.86376  0.89451  1.0000
  S   S90       1.0  0.16150  0.74297  0.71818  1.0000
  C   C593      1.0  0.08723  0.86832  0.91671  1.0000
  H   H473      1.0  0.21867  0.77486  0.15228  1.0000
  C   C594      1.0  0.05606  0.80411  0.12273  1.0000
  H   H474      1.0  0.05343  0.89917  0.65426  1.0000
  H   H475      1.0  0.06619  0.91584  0.70234  1.0000
  H   H476      1.0  0.04862  0.93653  0.73722  1.0000
  C   C595      1.0  0.09252  0.81993  0.81757  1.0000
  H   H477      1.0  0.18872  0.79751  0.53201  1.0000
  H   H478      1.0  0.02166  0.90739  0.04620  1.0000
  H   H479      1.0  0.08552  0.82345  0.79328  1.0000
  C   C596      1.0  0.17109  0.85453  0.88623  1.0000
  H   H480      1.0  0.23491  0.96050  0.87708  1.0000
  S   S91       1.0  0.01079  0.98853  0.46977  1.0000
  C   C597      1.0  0.20120  0.76257  0.67134  1.0000
  H   H481      1.0  0.13997  0.77787  0.70497  1.0000
  C   C598      1.0  0.19648  0.95416  0.81844  1.0000
  C   C599      1.0  0.01715  0.94534  0.01023  1.0000
  H   H482      1.0  0.13173  0.84852  0.97120  1.0000
  H   H483      1.0  0.08777  0.82233  0.93600  1.0000
  C   C600      1.0  0.04739  0.98643  0.78278  1.0000
  H   H484      1.0  0.09398  0.84562  0.83459  1.0000
  H   H485      1.0  0.14301  0.82373  0.87268  1.0000
  H   H486      1.0  0.99362  0.82536  0.17752  1.0000
  H   H487      1.0  0.07665  0.96834  0.88502  1.0000
  C   C601      1.0  0.20232  0.93734  0.82537  1.0000
  H   H488      1.0  0.00033  0.97140  0.60833  1.0000
  H   H489      1.0  0.19560  0.91100  0.82865  1.0000
  H   H490      1.0  0.16516  0.91705  0.81385  1.0000
  C   C602      1.0  0.21586  0.78098  0.06037  1.0000
  H   H491      1.0  0.15465  0.94675  0.80275  1.0000
  H   H492      1.0  0.20124  0.78779  0.59080  1.0000
  H   H493      1.0  0.06594  0.93610  0.99805  1.0000
  C   C603      1.0  0.09644  0.82567  0.95703  1.0000
  C   C604      1.0  0.00820  0.93000  0.79720  1.0000
  C   C605      1.0  0.05509  0.79801  0.08736  1.0000
  H   H494      1.0  0.17435  0.97031  0.80542  1.0000
  C   C606      1.0  0.20165  0.97890  0.74844  1.0000
  H   H495      1.0  0.19913  0.96554  0.74652  1.0000
  C   C607      1.0  0.10510  0.82304  0.01996  1.0000
  H   H496      1.0  0.01079  0.80539  0.13831  1.0000
  C   C608      1.0  0.17392  0.92736  0.81527  1.0000
  H   H497      1.0  0.16702  0.82130  0.53086  1.0000
  H   H498      1.0  0.01101  0.89577  0.46792  1.0000
  H   H499      1.0  0.08371  0.81050  0.99840  1.0000
  H   H500      1.0  0.18581  0.74887  0.97059  1.0000
  H   H501      1.0  0.08307  0.86001  0.93884  1.0000
  C   C609      1.0  0.09747  0.83251  0.84106  1.0000
  H   H502      1.0  0.21392  0.78185  0.69990  1.0000
  H   H503      1.0  0.21551  0.93447  0.83202  1.0000
  H   H504      1.0  0.05203  0.93393  0.53519  1.0000
  H   H505      1.0  0.05520  0.96237  0.02834  1.0000
  C   C610      1.0  0.19107  0.92398  0.82358  1.0000
  C   C611      1.0  0.10704  0.79841  0.85482  1.0000
  H   H506      1.0  0.10599  0.76188  0.24446  1.0000
  H   H507      1.0  0.08035  0.74592  0.26142  1.0000
  H   H508      1.0  0.10174  0.89887  0.83806  1.0000
  C   C612      1.0  0.13613  0.84827  0.89528  1.0000
  C   C613      1.0  0.17920  0.95742  0.81039  1.0000
  C   C614      1.0  0.16723  0.88022  0.63021  1.0000
  C   C615      1.0  0.15742  0.88814  0.65779  1.0000
  C   C616      1.0  0.15090  0.87847  0.68699  1.0000
  C   C617      1.0  0.15396  0.86087  0.68839  1.0000
  C   C618      1.0  0.16324  0.85270  0.66010  1.0000
  C   C619      1.0  0.17034  0.86259  0.63158  1.0000
  P   P22       1.0  0.16816  0.83015  0.66396  1.0000
  C   C620      1.0  0.18417  0.82819  0.69850  1.0000
  C   C621      1.0  0.14975  0.81812  0.67729  1.0000
  C   C622      1.0  0.13311  0.82539  0.67646  1.0000
  C   C623      1.0  0.11910  0.81567  0.68662  1.0000
  C   C624      1.0  0.02090  0.90487  0.54319  1.0000
  C   C625      1.0  0.13804  0.79113  0.69684  1.0000
  C   C626      1.0  0.15204  0.80082  0.68666  1.0000
  C   C627      1.0  0.17918  0.82682  0.73542  1.0000
  C   C628      1.0  0.19149  0.82530  0.76242  1.0000
  C   C629      1.0  0.20885  0.82531  0.75276  1.0000
  C   C630      1.0  0.21391  0.82738  0.71612  1.0000
  C   C631      1.0  0.20161  0.82904  0.68907  1.0000
  C   C632      1.0  0.17547  0.82054  0.62180  1.0000
  C   C633      1.0  0.16795  0.82554  0.58868  1.0000
  C   C634      1.0  0.17286  0.81737  0.55635  1.0000
  C   C635      1.0  0.18503  0.80392  0.55701  1.0000
  C   C636      1.0  0.19214  0.79849  0.59007  1.0000
  C   C637      1.0  0.18726  0.80663  0.62238  1.0000
  H   H509      1.0  0.17259  0.88780  0.60802  1.0000
  H   H510      1.0  0.15506  0.90180  0.65693  1.0000
  H   H511      1.0  0.14364  0.88468  0.70884  1.0000
  H   H512      1.0  0.14916  0.85364  0.71173  1.0000
  H   H513      1.0  0.17848  0.85682  0.61071  1.0000
  H   H514      1.0  0.13081  0.83851  0.66814  1.0000
  S   S92       1.0  0.07633  0.75364  0.14416  1.0000
  C   C638      1.0  0.06972  0.79132  0.06956  1.0000
  H   H515      1.0  0.17360  0.82918  0.86548  1.0000
  H   H516      1.0  0.16469  0.79478  0.68633  1.0000
  H   H517      1.0  0.16579  0.82657  0.74335  1.0000
  C   C639      1.0  0.11012  0.83628  0.94881  1.0000
  H   H518      1.0  0.21833  0.82360  0.77376  1.0000
  C   C640      1.0  0.00710  0.91476  0.52934  1.0000
  H   H519      1.0  0.20572  0.83091  0.66090  1.0000
  H   H520      1.0  0.15807  0.83554  0.58793  1.0000
  C   C641      1.0  0.08537  0.79077  0.08710  1.0000
  H   H521      1.0  0.11186  0.77636  0.92379  1.0000
  H   H522      1.0  0.04061  0.96742  0.70249  1.0000
  H   H523      1.0  0.19241  0.80179  0.64787  1.0000
  C   C642      1.0  0.06275  0.76487  0.23921  1.0000
  C   C643      1.0  0.07895  0.75831  0.24817  1.0000
  C   C644      1.0  0.09343  0.76744  0.23879  1.0000
  C   C645      1.0  0.09169  0.78333  0.22105  1.0000
  C   C646      1.0  0.07538  0.79027  0.21311  1.0000
  C   C647      1.0  0.06103  0.78069  0.22138  1.0000
  P   P23       1.0  0.07289  0.80999  0.18734  1.0000
  C   C648      1.0  0.05432  0.82262  0.20204  1.0000
  C   C649      1.0  0.09073  0.82327  0.19399  1.0000
  C   C650      1.0  0.09688  0.82520  0.22924  1.0000
  C   C651      1.0  0.11041  0.83584  0.23489  1.0000
  C   C652      1.0  0.11774  0.84479  0.20544  1.0000
  C   C653      1.0  0.11147  0.84317  0.17035  1.0000
  C   C654      1.0  0.09793  0.83252  0.16462  1.0000
  C   C655      1.0  0.04793  0.83592  0.17940  1.0000
  C   C656      1.0  0.03351  0.84573  0.19035  1.0000
  C   C657      1.0  0.02556  0.84253  0.22422  1.0000
  C   C658      1.0  0.03217  0.82972  0.24741  1.0000
  C   C659      1.0  0.04659  0.81990  0.23659  1.0000
  C   C660      1.0  0.07177  0.80380  0.14039  1.0000
  H   H524      1.0  0.00403  0.92606  0.37082  1.0000
  H   H525      1.0  0.99502  0.90395  0.60312  1.0000
  H   H526      1.0  0.18258  0.97206  0.87608  1.0000
  H   H527      1.0  0.09650  0.78477  0.07384  1.0000
  C   C661      1.0  0.08641  0.79695  0.12242  1.0000
  H   H528      1.0  0.05157  0.75754  0.24527  1.0000
  H   H529      1.0  0.18760  0.82360  0.79083  1.0000
  C   C662      1.0  0.09739  0.80291  0.82432  1.0000
  H   H530      1.0  0.10309  0.78993  0.21296  1.0000
  H   H531      1.0  0.04852  0.78537  0.21349  1.0000
  H   H532      1.0  0.09114  0.81852  0.25239  1.0000
  H   H533      1.0  0.11513  0.83724  0.26217  1.0000
  H   H534      1.0  0.12817  0.85310  0.20989  1.0000
  H   H535      1.0  0.11700  0.85029  0.14763  1.0000
  H   H536      1.0  0.09301  0.83167  0.13741  1.0000
  H   H537      1.0  0.05397  0.83858  0.15310  1.0000
  C   C663      1.0  0.20713  0.98286  0.86280  1.0000
  C   C664      1.0  0.00059  0.90287  0.01067  1.0000
  H   H538      1.0  0.02577  0.82715  0.27344  1.0000
  H   H539      1.0  0.05150  0.81016  0.25522  1.0000
  C   C665      1.0  0.04029  0.97863  0.93488  1.0000
  C   C666      1.0  0.10644  0.87482  0.86593  1.0000
  C   C667      1.0  0.01396  0.88721  0.93279  1.0000
  H   H540      1.0  0.02172  0.93178  0.80101  1.0000
  H   H541      1.0  0.09847  0.79576  0.13624  1.0000
  H   H542      1.0  0.18454  0.85698  0.88228  1.0000
  C   C668      1.0  0.10151  0.75225  0.00010  1.0000
  C   C669      1.0  0.00349  0.89127  0.07237  1.0000
  C   C670      1.0  0.21447  0.77353  0.67667  1.0000
  C   C671      1.0  0.99964  0.96008  0.69874  1.0000
  H   H543      1.0  0.01300  0.96324  0.80547  1.0000
  C   C672      1.0  0.20423  0.74410  0.54355  1.0000
  H   H544      1.0  0.01029  0.89038  0.09781  1.0000
  C   C673      1.0  0.22042  0.77390  0.97463  1.0000
  H   H545      1.0  0.00466  0.92424  0.67535  1.0000
  H   H546      1.0  0.22568  0.79436  0.93572  1.0000
  H   H547      1.0  0.04571  0.91569  0.97601  1.0000
  C   C674      1.0  0.03646  0.90277  0.88303  1.0000
  H   H548      1.0  0.19454  0.98436  0.69283  1.0000
  H   H549      1.0  0.11113  0.78524  0.85958  1.0000
  C   C675      1.0  0.12643  0.74025  0.96672  1.0000
  C   C676      1.0  0.02135  0.87799  0.90383  1.0000
  H   H550      1.0  0.02322  0.98046  0.25911  1.0000
  C   C677      1.0  0.16493  0.83886  0.87680  1.0000
  C   C678      1.0  0.22063  0.76894  0.23039  1.0000
  C   C679      1.0  0.17963  0.76060  0.52126  1.0000
  C   C680      1.0  0.23736  0.74390  0.21233  1.0000
  C   C681      1.0  0.04075  0.92716  0.98873  1.0000
  C   C682      1.0  0.05232  0.93854  0.00179  1.0000
  H   H551      1.0  0.01505  0.96471  0.37069  1.0000
  C   C683      1.0  0.02876  0.95647  0.02395  1.0000
  H   H552      1.0  0.20831  0.77527  0.23565  1.0000
  H   H553      1.0  0.06620  0.98690  0.93544  1.0000
  H   H554      1.0  0.19035  0.76240  0.69035  1.0000
  C   C684      1.0  0.99563  0.97028  0.63631  1.0000
  H   H555      1.0  0.01583  0.96795  0.92682  1.0000
  C   C685      1.0  0.01466  0.97460  0.34955  1.0000
  H   H556      1.0  0.07170  0.98646  0.66775  1.0000
  H   H557      1.0  0.18665  0.75919  0.57726  1.0000
  C   C686      1.0  0.09758  0.89033  0.85995  1.0000
  C   C687      1.0  0.22255  0.77518  0.12373  1.0000
  C   C688      1.0  0.23567  0.77759  0.23499  1.0000
  C   C689      1.0  0.14751  0.83577  0.88111  1.0000
  H   H558      1.0  0.00214  0.79187  0.26984  1.0000
  H   H559      1.0  0.15356  0.76357  0.65095  1.0000
  S   S93       1.0  0.14113  0.75325  0.90264  1.0000
  H   H560      1.0  0.00628  0.80351  0.03987  1.0000
  H   H561      1.0  0.03246  0.92506  0.91481  1.0000
  H   H562      1.0  0.02832  0.85570  0.17250  1.0000
  H   H563      1.0  0.00534  0.92457  0.12525  1.0000
  H   H564      1.0  0.04760  0.90426  0.55666  1.0000
  S   S94       1.0  0.13668  0.98185  0.81660  1.0000
  H   H565      1.0  0.99587  0.97121  0.21954  1.0000
  H   H566      1.0  0.00496  0.75742  0.10380  1.0000
  C   C690      1.0  0.00982  0.90101  0.04301  1.0000
  C   C691      1.0  0.23258  0.77586  0.04957  1.0000
  H   H567      1.0  0.02393  0.95806  0.30699  1.0000
  H   H568      1.0  0.20667  0.78541  0.04034  1.0000
  H   H569      1.0  0.99498  0.94770  0.08298  1.0000
  C   C692      1.0  0.23273  0.96386  0.81844  1.0000
  C   C693      1.0  0.20911  0.76094  0.98392  1.0000
  C   C694      1.0  0.99628  0.88723  0.42389  1.0000
  C   C695      1.0  0.99895  0.92093  0.82380  1.0000
  C   C696      1.0  0.02920  0.91194  0.91204  1.0000
  H   H570      1.0  0.01410  0.84979  0.23236  1.0000
  H   H571      1.0  0.15170  0.75580  0.58582  1.0000
  C   C697      1.0  0.20218  0.78268  0.92437  1.0000
  C   C698      1.0  0.00997  0.93125  0.51599  1.0000
  H   H572      1.0  0.01928  0.89181  0.55195  1.0000
  H   H573      1.0  0.99979  0.93876  0.50351  1.0000
  C   C699      1.0  0.21618  0.75125  0.61774  1.0000
  S   S95       1.0  0.08580  0.75216  0.03685  1.0000
  C   C700      1.0  0.02306  0.93078  0.99178  1.0000
  C   C701      1.0  0.99717  0.92271  0.24074  1.0000
  C   C702      1.0  0.15577  0.75050  0.64331  1.0000
  H   H574      1.0  0.00087  0.74388  0.25047  1.0000
  C   C703      1.0  0.22853  0.77352  0.65239  1.0000
  H   H575      1.0  0.01832  0.86480  0.90062  1.0000
  C   C704      1.0  0.99609  0.95767  0.22561  1.0000
  C   C705      1.0  0.23926  0.77031  0.11332  1.0000
  C   C706      1.0  0.99826  0.89363  0.45878  1.0000
  C   C707      1.0  0.19000  0.98864  0.91770  1.0000
  C   C708      1.0  0.20717  0.98555  0.78124  1.0000
  C   C709      1.0  0.19009  0.75520  0.54998  1.0000
  C   C710      1.0  0.15481  0.74604  0.60606  1.0000
  C   C711      1.0  0.22941  0.76244  0.62298  1.0000
  H   H576      1.0  0.16826  0.76847  0.52672  1.0000
  C   C712      1.0  0.19241  0.98027  0.88462  1.0000
  H   H577      1.0  0.02018  0.77633  0.06152  1.0000
  H   H578      1.0  0.23506  0.96519  0.75937  1.0000
  C   C713      1.0  0.01918  0.98368  0.28650  1.0000
  H   H579      1.0  0.23871  0.74351  0.96513  1.0000
  P   P24       1.0  0.23906  0.77664  0.00182  1.0000
  H   H580      1.0  0.17840  0.98691  0.93389  1.0000
  C   C714      1.0  0.24147  0.96227  0.78468  1.0000
  H   H581      1.0  0.23260  0.81051  0.03342  1.0000
  C   C715      1.0  0.00715  0.77969  0.06994  1.0000
  C   C716      1.0  0.05179  0.98893  0.62766  1.0000
  C   C717      1.0  0.24230  0.81152  0.01205  1.0000
  H   H582      1.0  0.23890  0.78191  0.65678  1.0000
  H   H583      1.0  0.19178  0.74289  0.63863  1.0000
  H   H584      1.0  0.23866  0.75507  0.52807  1.0000
  H   H585      1.0  0.24050  0.76250  0.60483  1.0000
  C   C718      1.0  0.24142  0.95968  0.85072  1.0000
  H   H586      1.0  0.24208  0.80848  0.84167  1.0000
  C   C719      1.0  0.99886  0.74059  0.22240  1.0000
  S   S96       1.0  0.47506  0.00831  0.21342  1.0000
  Fe  Fe48      1.0  0.47494  0.00532  0.27528  1.0000
  S   S97       1.0  0.45939  0.02196  0.31663  1.0000
  C   C720      1.0  0.25604  0.01748  0.76028  1.0000
  C   C721      1.0  0.46022  0.10025  0.67780  1.0000
  H   H587      1.0  0.32518  0.02192  0.90813  1.0000
  Fe  Fe49      1.0  0.46219  0.10019  0.46574  1.0000
  S   S98       1.0  0.43729  0.09617  0.49621  1.0000
  S   S99       1.0  0.47488  0.08485  0.41844  1.0000
  Fe  Fe50      1.0  0.47211  0.12927  0.51766  1.0000
  S   S100      1.0  0.44802  0.12664  0.55219  1.0000
  C   C722      1.0  0.29198  0.03978  0.05635  1.0000
  Fe  Fe51      1.0  0.45276  0.09831  0.54678  1.0000
  S   S101      1.0  0.44685  0.07939  0.59258  1.0000
  Fe  Fe52      1.0  0.43391  0.12469  0.49967  1.0000
  S   S102      1.0  0.40933  0.14127  0.49004  1.0000
  S   S103      1.0  0.47781  0.10088  0.51657  1.0000
  S   S104      1.0  0.45786  0.12881  0.46482  1.0000
  Fe  Fe53      1.0  0.26859  0.14782  0.49542  1.0000
  S   S105      1.0  0.29185  0.16388  0.49775  1.0000
  C   C723      1.0  0.31991  0.00604  0.16648  1.0000
  Fe  Fe54      1.0  0.26995  0.13937  0.58036  1.0000
  S   S106      1.0  0.29270  0.15565  0.58738  1.0000
  S   S107      1.0  0.25563  0.12293  0.62425  1.0000
  Fe  Fe55      1.0  0.27974  0.17487  0.54954  1.0000
  S   S108      1.0  0.27693  0.20412  0.55392  1.0000
  Fe  Fe56      1.0  0.30358  0.14382  0.53558  1.0000
  S   S109      1.0  0.33052  0.13064  0.53637  1.0000
  S   S110      1.0  0.28120  0.12679  0.52999  1.0000
  S   S111      1.0  0.25965  0.09102  0.78836  1.0000
  S   S112      1.0  0.25294  0.07138  0.88794  1.0000
  C   C724      1.0  0.25747  0.00587  0.78954  1.0000
  S   S113      1.0  0.26209  0.01893  0.90049  1.0000
  C   C725      1.0  0.48661  0.99349  0.05021  1.0000
  C   C726      1.0  0.27033  0.11798  0.69346  1.0000
  C   C727      1.0  0.35938  0.22617  0.62043  1.0000
  C   C728      1.0  0.45895  0.03752  0.54618  1.0000
  H   H588      1.0  0.30258  0.22689  0.66458  1.0000
  H   H589      1.0  0.25967  0.16998  0.39300  1.0000
  C   C729      1.0  0.25725  0.11410  0.66992  1.0000
  C   C730      1.0  0.30033  0.08648  0.84629  1.0000
  H   H590      1.0  0.32958  0.14326  0.61067  1.0000
  C   C731      1.0  0.24530  0.09564  0.71889  1.0000
  H   H591      1.0  0.33766  0.02597  0.15648  1.0000
  H   H592      1.0  0.45044  0.04153  0.56835  1.0000
  C   C732      1.0  0.28100  0.21983  0.58683  1.0000
  C   C733      1.0  0.29122  0.21648  0.61719  1.0000
  C   C734      1.0  0.24438  0.16628  0.34526  1.0000
  H   H593      1.0  0.24468  0.01798  0.74400  1.0000
  H   H594      1.0  0.29668  0.20381  0.62181  1.0000
  H   H595      1.0  0.38194  0.05754  0.30519  1.0000
  H   H596      1.0  0.27605  0.08155  0.66977  1.0000
  C   C735      1.0  0.38750  0.13836  0.50385  1.0000
  C   C736      1.0  0.38258  0.12463  0.52607  1.0000
  C   C737      1.0  0.36517  0.12257  0.53568  1.0000
  C   C738      1.0  0.35236  0.13437  0.52389  1.0000
  C   C739      1.0  0.35731  0.14835  0.50233  1.0000
  C   C740      1.0  0.37473  0.15028  0.49232  1.0000
  H   H597      1.0  0.39224  0.11561  0.53597  1.0000
  H   H598      1.0  0.36159  0.11175  0.55249  1.0000
  H   H599      1.0  0.34769  0.15755  0.49297  1.0000
  H   H600      1.0  0.37833  0.16106  0.47543  1.0000
  H   H601      1.0  0.32222  0.00513  0.19552  1.0000
  H   H602      1.0  0.46642  0.07925  0.98110  1.0000
  H   H603      1.0  0.24402  0.09832  0.16305  1.0000
  C   C741      1.0  0.27436  0.03916  0.99093  1.0000
  C   C742      1.0  0.47163  0.04552  0.65979  1.0000
  C   C743      1.0  0.45896  0.05575  0.64255  1.0000
  C   C744      1.0  0.46326  0.06696  0.61367  1.0000
  C   C745      1.0  0.48034  0.06775  0.60189  1.0000
  C   C746      1.0  0.33224  0.02499  0.99025  1.0000
  C   C747      1.0  0.26350  0.10734  0.36808  1.0000
  H   H604      1.0  0.26336  0.10341  0.42645  1.0000
  C   C748      1.0  0.46446  0.03851  0.34701  1.0000
  C   C749      1.0  0.45174  0.04486  0.37163  1.0000
  C   C750      1.0  0.45488  0.05843  0.39498  1.0000
  C   C751      1.0  0.47067  0.06621  0.39339  1.0000
  C   C752      1.0  0.24476  0.10287  0.68310  1.0000
  C   C753      1.0  0.48054  0.04569  0.34695  1.0000
  H   H605      1.0  0.43932  0.03929  0.37246  1.0000
  H   H606      1.0  0.44502  0.06310  0.41369  1.0000
  C   C754      1.0  0.27977  0.05264  0.04793  1.0000
  H   H607      1.0  0.24892  0.17749  0.33102  1.0000
  C   C755      1.0  0.28350  0.01073  0.90684  1.0000
  H   H608      1.0  0.29602  0.03436  0.89817  1.0000
  S   S114      1.0  0.25603  0.15949  0.54569  1.0000
  H   H609      1.0  0.45838  0.06216  0.51937  1.0000
  C   C756      1.0  0.37824  0.03523  0.38545  1.0000
  C   C757      1.0  0.37836  0.03862  0.34784  1.0000
  C   C758      1.0  0.38198  0.05487  0.33433  1.0000
  C   C759      1.0  0.38575  0.06766  0.35838  1.0000
  C   C760      1.0  0.38633  0.06416  0.39607  1.0000
  C   C761      1.0  0.38202  0.04800  0.40956  1.0000
  P   P25       1.0  0.39133  0.08067  0.42690  1.0000
  C   C762      1.0  0.40013  0.07170  0.46846  1.0000
  C   C763      1.0  0.40816  0.09349  0.40804  1.0000
  C   C764      1.0  0.40997  0.11003  0.42041  1.0000
  C   C765      1.0  0.42358  0.11969  0.40767  1.0000
  C   C766      1.0  0.43578  0.11273  0.38332  1.0000
  C   C767      1.0  0.43422  0.09618  0.37126  1.0000
  C   C768      1.0  0.42049  0.08657  0.38359  1.0000
  C   C769      1.0  0.41206  0.05795  0.46694  1.0000
  C   C770      1.0  0.41954  0.05147  0.49887  1.0000
  C   C771      1.0  0.41546  0.05892  0.53240  1.0000
  C   C772      1.0  0.40387  0.07280  0.53401  1.0000
  C   C773      1.0  0.39628  0.07923  0.50216  1.0000
  C   C774      1.0  0.37174  0.09295  0.43548  1.0000
  C   C775      1.0  0.35970  0.08717  0.46150  1.0000
  C   C776      1.0  0.34479  0.09691  0.46912  1.0000
  C   C777      1.0  0.34161  0.11227  0.45023  1.0000
  C   C778      1.0  0.35323  0.11783  0.42343  1.0000
  C   C779      1.0  0.36817  0.10813  0.41577  1.0000
  H   H610      1.0  0.37527  0.02268  0.39594  1.0000
  H   H611      1.0  0.37560  0.02867  0.32916  1.0000
  C   C780      1.0  0.24509  0.12925  0.22587  1.0000
  H   H612      1.0  0.38842  0.08023  0.34755  1.0000
  H   H613      1.0  0.38168  0.04521  0.43864  1.0000
  H   H614      1.0  0.40109  0.11535  0.44056  1.0000
  H   H615      1.0  0.42493  0.13240  0.41767  1.0000
  H   H616      1.0  0.44670  0.11998  0.37462  1.0000
  H   H617      1.0  0.44403  0.09058  0.35339  1.0000
  H   H618      1.0  0.41990  0.07356  0.37495  1.0000
  H   H619      1.0  0.41580  0.05240  0.44104  1.0000
  H   H620      1.0  0.42880  0.04092  0.49749  1.0000
  H   H621      1.0  0.42161  0.05428  0.55707  1.0000
  H   H622      1.0  0.40120  0.07893  0.55983  1.0000
  H   H623      1.0  0.38781  0.09034  0.50379  1.0000
  H   H624      1.0  0.36198  0.07532  0.47648  1.0000
  H   H625      1.0  0.33584  0.09285  0.49031  1.0000
  H   H626      1.0  0.33025  0.12000  0.45693  1.0000
  H   H627      1.0  0.35078  0.12981  0.40908  1.0000
  H   H628      1.0  0.37696  0.11264  0.39481  1.0000
  C   C781      1.0  0.48605  0.08488  0.24655  1.0000
  H   H629      1.0  0.49127  0.02427  0.46936  1.0000
  C   C782      1.0  0.35135  0.01194  0.78025  1.0000
  C   C783      1.0  0.47420  0.21724  0.55155  1.0000
  Fe  Fe57      1.0  0.47490  0.99544  0.76501  1.0000
  H   H630      1.0  0.46613  0.01398  0.92982  1.0000
  C   C784      1.0  0.47724  0.01568  0.51787  1.0000
  C   C785      1.0  0.30969  0.05375  0.65539  1.0000
  C   C786      1.0  0.30544  0.99648  0.11343  1.0000
  H   H631      1.0  0.31208  0.00844  0.74433  1.0000
  C   C787      1.0  0.46532  0.10801  0.64490  1.0000
  C   C788      1.0  0.31075  0.04637  0.69044  1.0000
  C   C789      1.0  0.29927  0.05168  0.71835  1.0000
  H   H632      1.0  0.26751  0.03886  0.96559  1.0000
  C   C790      1.0  0.48191  0.02757  0.49046  1.0000
  H   H633      1.0  0.48380  0.07622  0.57953  1.0000
  H   H634      1.0  0.33858  0.20162  0.65244  1.0000
  H   H635      1.0  0.28093  0.11407  0.74713  1.0000
  H   H636      1.0  0.32580  0.18060  0.69432  1.0000
  H   H637      1.0  0.25004  0.12875  0.16781  1.0000
  C   C791      1.0  0.24678  0.12138  0.19218  1.0000
  H   H638      1.0  0.42555  0.00312  0.85800  1.0000
  H   H639      1.0  0.25939  0.06995  0.27672  1.0000
  H   H640      1.0  0.31216  0.23141  0.44460  1.0000
  C   C792      1.0  0.29719  0.06642  0.64796  1.0000
  C   C793      1.0  0.27094  0.05230  0.01528  1.0000
  C   C794      1.0  0.36274  0.01891  0.98447  1.0000
  C   C795      1.0  0.28674  0.06439  0.71058  1.0000
  H   H641      1.0  0.32435  0.22688  0.56681  1.0000
  H   H642      1.0  0.36519  0.19641  0.50006  1.0000
  P   P26       1.0  0.31086  0.00953  0.04251  1.0000
  H   H643      1.0  0.45579  0.11200  0.62527  1.0000
  H   H644      1.0  0.31970  0.19573  0.43770  1.0000
  C   C796      1.0  0.24498  0.14757  0.39988  1.0000
  C   C797      1.0  0.32861  0.01778  0.14450  1.0000
  C   C798      1.0  0.28653  0.02630  0.99928  1.0000
  C   C799      1.0  0.28571  0.07169  0.67553  1.0000
  H   H645      1.0  0.32143  0.15127  0.67389  1.0000
  H   H646      1.0  0.37151  0.16694  0.57753  1.0000
  S   S115      1.0  0.45255  0.00178  0.80363  1.0000
  H   H647      1.0  0.27440  0.11542  0.36797  1.0000
  C   C800      1.0  0.46643  0.22619  0.62359  1.0000
  H   H648      1.0  0.46846  0.08882  0.72855  1.0000
  H   H649      1.0  0.27709  0.06286  0.06676  1.0000
  H   H650      1.0  0.32062  0.03671  0.69561  1.0000
  H   H651      1.0  0.49116  0.06119  0.96113  1.0000
  C   C801      1.0  0.33362  0.23088  0.58580  1.0000
  H   H652      1.0  0.43534  0.05680  0.90147  1.0000
  C   C802      1.0  0.33116  0.01346  0.01993  1.0000
  H   H653      1.0  0.24584  0.15131  0.05412  1.0000
  H   H654      1.0  0.33263  0.02802  0.09030  1.0000
  C   C803      1.0  0.47490  0.04418  0.49070  1.0000
  C   C804      1.0  0.25732  0.10050  0.40112  1.0000
  C   C805      1.0  0.47591  0.00633  0.03486  1.0000
  H   H655      1.0  0.31030  0.10167  0.80161  1.0000
  Fe  Fe58      1.0  0.24368  0.07482  0.82964  1.0000
  S   S116      1.0  0.47414  0.99781  0.70372  1.0000
  H   H656      1.0  0.44765  0.06661  0.23863  1.0000
  H   H657      1.0  0.30032  0.09666  0.86562  1.0000
  C   C806      1.0  0.34798  0.02769  0.97261  1.0000
  H   H658      1.0  0.26140  0.06219  0.00883  1.0000
  C   C807      1.0  0.46140  0.04719  0.90362  1.0000
  C   C808      1.0  0.38525  0.20693  0.55924  1.0000
  C   C809      1.0  0.29453  0.22963  0.64146  1.0000
  C   C810      1.0  0.46575  0.02086  0.54584  1.0000
  C   C811      1.0  0.30598  0.08928  0.81028  1.0000
  H   H659      1.0  0.25749  0.11229  0.85929  1.0000
  C   C812      1.0  0.32579  0.19657  0.46380  1.0000
  C   C813      1.0  0.27075  0.11089  0.72940  1.0000
  H   H660      1.0  0.35137  0.19463  0.44098  1.0000
  H   H661      1.0  0.30198  0.19862  0.49432  1.0000
  C   C814      1.0  0.37388  0.19422  0.56983  1.0000
  C   C815      1.0  0.44922  0.06899  0.94302  1.0000
  C   C816      1.0  0.34139  0.19829  0.53175  1.0000
  H   H662      1.0  0.34137  0.16439  0.56749  1.0000
  C   C817      1.0  0.47712  0.04792  0.92107  1.0000
  H   H663      1.0  0.46242  0.01229  0.56813  1.0000
  H   H664      1.0  0.28889  0.04552  0.84081  1.0000
  H   H665      1.0  0.27781  0.06873  0.73175  1.0000
  C   C818      1.0  0.31698  0.99655  0.92022  1.0000
  H   H666      1.0  0.45990  0.03862  0.88125  1.0000
  C   C819      1.0  0.34359  0.19598  0.46567  1.0000
  H   H667      1.0  0.29617  0.01617  0.82031  1.0000
  C   C820      1.0  0.37993  0.17718  0.57109  1.0000
  H   H668      1.0  0.25589  0.16129  0.73159  1.0000
  C   C821      1.0  0.25820  0.09974  0.74260  1.0000
  H   H669      1.0  0.42901  0.99156  0.16102  1.0000
  C   C822      1.0  0.39706  0.17301  0.56268  1.0000
  C   C823      1.0  0.24347  0.10415  0.18958  1.0000
  H   H670      1.0  0.24720  0.99745  0.79610  1.0000
  H   H671      1.0  0.24504  0.10403  0.06531  1.0000
  C   C824      1.0  0.24866  0.06167  0.27941  1.0000
  C   C825      1.0  0.46351  0.04918  0.51867  1.0000
  C   C826      1.0  0.32352  0.19841  0.52964  1.0000
  H   H672      1.0  0.49149  0.09733  0.24628  1.0000
  H   H673      1.0  0.31059  0.07853  0.75767  1.0000
  C   C827      1.0  0.33166  0.15601  0.61976  1.0000
  C   C828      1.0  0.31431  0.00807  0.09107  1.0000
  H   H674      1.0  0.26745  0.03784  0.73016  1.0000
  C   C829      1.0  0.48978  0.09714  0.69526  1.0000
  C   C830      1.0  0.33680  0.18896  0.64279  1.0000
  C   C831      1.0  0.32577  0.01886  0.10698  1.0000
  H   H675      1.0  0.36032  0.03423  0.80545  1.0000
  C   C832      1.0  0.35139  0.19696  0.49944  1.0000
  C   C833      1.0  0.34144  0.18450  0.60684  1.0000
  H   H676      1.0  0.40153  0.15979  0.56288  1.0000
  C   C834      1.0  0.29775  0.02094  0.90419  1.0000
  H   H677      1.0  0.42148  0.18233  0.54544  1.0000
  C   C835      1.0  0.33842  0.16803  0.59533  1.0000
  C   C836      1.0  0.31432  0.01386  0.91043  1.0000
  C   C837      1.0  0.48872  0.04645  0.64827  1.0000
  H   H678      1.0  0.45721  0.20082  0.63036  1.0000
  P   P27       1.0  0.35128  0.19957  0.57560  1.0000
  C   C838      1.0  0.40242  0.20270  0.55107  1.0000
  C   C839      1.0  0.32956  0.17703  0.66683  1.0000
  H   H679      1.0  0.44680  0.09816  0.68332  1.0000
  H   H680      1.0  0.29865  0.04028  0.08176  1.0000
  C   C840      1.0  0.40830  0.18574  0.55268  1.0000
  H   H681      1.0  0.24707  0.14275  0.22778  1.0000
  H   H682      1.0  0.28006  0.12653  0.68402  1.0000
  C   C841      1.0  0.48859  0.01391  0.89391  1.0000
  H   H683      1.0  0.31550  0.19892  0.55418  1.0000
  C   C842      1.0  0.46271  0.21004  0.61155  1.0000
  C   C843      1.0  0.29538  0.02645  0.03209  1.0000
  H   H684      1.0  0.29642  0.07225  0.62091  1.0000
  H   H685      1.0  0.29021  0.06834  0.88518  1.0000
  C   C844      1.0  0.44747  0.05757  0.91485  1.0000
  H   H686      1.0  0.24491  0.20750  0.99875  1.0000
  C   C845      1.0  0.46853  0.08361  0.24135  1.0000
  H   H687      1.0  0.27295  0.99663  0.83405  1.0000
  H   H688      1.0  0.48703  0.16233  0.59457  1.0000
  C   C846      1.0  0.47402  0.23806  0.59962  1.0000
  H   H689      1.0  0.49202  0.02957  0.98519  1.0000
  H   H690      1.0  0.34866  0.03616  0.94897  1.0000
  H   H691      1.0  0.43841  0.07706  0.95161  1.0000
  C   C847      1.0  0.47244  0.09490  0.70308  1.0000
  H   H692      1.0  0.46054  0.09498  0.23722  1.0000
  H   H693      1.0  0.27645  0.99614  0.04157  1.0000
  H   H694      1.0  0.47516  0.99867  0.44571  1.0000
  C   C848      1.0  0.46668  0.20554  0.57559  1.0000
  C   C849      1.0  0.24403  0.15483  0.72897  1.0000
  H   H695      1.0  0.33363  0.05115  0.79615  1.0000
  C   C850      1.0  0.25054  0.16205  0.38066  1.0000
  C   C851      1.0  0.32709  0.16052  0.65539  1.0000
  H   H696      1.0  0.41110  0.21253  0.54268  1.0000
  H   H697      1.0  0.36307  0.00450  0.78481  1.0000
  H   H698      1.0  0.26049  0.10965  0.31045  1.0000
  H   H699      1.0  0.46432  0.19283  0.56654  1.0000
  C   C852      1.0  0.46497  0.07017  0.95971  1.0000
  H   H700      1.0  0.44577  0.05502  0.65173  1.0000
  H   H701      1.0  0.46587  0.04069  0.24823  1.0000
  H   H702      1.0  0.32094  0.03161  0.98000  1.0000
  H   H703      1.0  0.34564  0.99573  0.05453  1.0000
  C   C853      1.0  0.28509  0.01661  0.80312  1.0000
  C   C854      1.0  0.28374  0.02843  0.77385  1.0000
  C   C855      1.0  0.26905  0.02881  0.75257  1.0000
  P   P28       1.0  0.30077  0.04290  0.76426  1.0000
  C   C856      1.0  0.29975  0.06019  0.79591  1.0000
  C   C857      1.0  0.32080  0.03104  0.76959  1.0000
  C   C858      1.0  0.33459  0.03825  0.78660  1.0000
  C   C859      1.0  0.34978  0.02870  0.79193  1.0000
  H   H704      1.0  0.47854  0.05333  0.46957  1.0000
  C   C860      1.0  0.27199  0.00541  0.81088  1.0000
  C   C861      1.0  0.32254  0.01424  0.75755  1.0000
  C   C862      1.0  0.30590  0.07615  0.78527  1.0000
  C   C863      1.0  0.46127  0.06767  0.24202  1.0000
  H   H705      1.0  0.31864  0.04974  0.63398  1.0000
  C   C864      1.0  0.29451  0.07056  0.85723  1.0000
  C   C865      1.0  0.29392  0.05756  0.83201  1.0000
  C   C866      1.0  0.31580  0.19803  0.49572  1.0000
  Fe  Fe59      1.0  0.24728  0.04360  0.88230  1.0000
  S   S117      1.0  0.25267  0.14107  0.44455  1.0000
  H   H706      1.0  0.37483  0.02059  0.97012  1.0000
  H   H707      1.0  0.46819  0.03710  0.68230  1.0000
  H   H708      1.0  0.37322  0.00063  0.02318  1.0000
  H   H709      1.0  0.26404  0.03908  0.26785  1.0000
  C   C867      1.0  0.25526  0.10433  0.33554  1.0000
  C   C868      1.0  0.47964  0.02384  0.08734  1.0000
  H   H710      1.0  0.46398  0.22922  0.65199  1.0000
  C   C869      1.0  0.24309  0.09033  0.40159  1.0000
  C   C870      1.0  0.47157  0.05301  0.24731  1.0000
  C   C871      1.0  0.28617  0.99336  0.91598  1.0000
  H   H711      1.0  0.28900  0.01617  0.98020  1.0000
  C   C872      1.0  0.47788  0.23344  0.56342  1.0000
  H   H712      1.0  0.40471  0.99420  0.11850  1.0000
  C   C873      1.0  0.47894  0.05979  0.94856  1.0000
  H   H713      1.0  0.48621  0.11565  0.61048  1.0000
  C   C874      1.0  0.36181  0.00759  0.01428  1.0000
  P   P29       1.0  0.48772  0.99481  0.52044  1.0000
  C   C875      1.0  0.34611  0.00485  0.03198  1.0000
  C   C876      1.0  0.47230  0.02137  0.05358  1.0000
  H   H714      1.0  0.49058  0.04081  0.32887  1.0000
  H   H715      1.0  0.47768  0.21354  0.52396  1.0000
  C   C877      1.0  0.48912  0.05420  0.25233  1.0000
  H   H716      1.0  0.48642  0.03526  0.82872  1.0000
  C   C878      1.0  0.48355  0.05941  0.36992  1.0000
  H   H717      1.0  0.26632  0.23927  0.55793  1.0000
  H   H718      1.0  0.46374  0.03108  0.04204  1.0000
  H   H719      1.0  0.30325  0.23227  0.51013  1.0000
  H   H720      1.0  0.47678  0.03539  0.10215  1.0000
  H   H721      1.0  0.33897  0.99171  0.75408  1.0000
  C   C879      1.0  0.24517  0.11887  0.86283  1.0000
  C   C880      1.0  0.30829  0.99545  0.15097  1.0000
  H   H722      1.0  0.24507  0.11687  0.92163  1.0000
  C   C881      1.0  0.33776  0.00474  0.76295  1.0000
  C   C882      1.0  0.47389  0.00697  0.91008  1.0000
  C   C883      1.0  0.48265  0.10991  0.63653  1.0000
  H   H723      1.0  0.38078  0.22006  0.55642  1.0000
  C   C884      1.0  0.49075  0.01137  0.10212  1.0000
  H   H724      1.0  0.24617  0.15405  0.67020  1.0000
  C   C885      1.0  0.25133  0.04421  0.27444  1.0000
  H   H725      1.0  0.37034  0.21826  0.62839  1.0000
  C   C886      1.0  0.34809  0.22058  0.59439  1.0000
  H   H726      1.0  0.47028  0.00469  0.00854  1.0000
  C   C887      1.0  0.27420  0.23649  0.58130  1.0000
  C   C888      1.0  0.46887  0.99088  0.90032  1.0000
  C   C889      1.0  0.48749  0.99196  0.44455  1.0000
  Fe  Fe60      1.0  0.46542  0.34659  0.73218  1.0000
  S   S118      1.0  0.44511  0.34581  0.69001  1.0000
  C   C890      1.0  0.25329  0.31975  0.85392  1.0000
  Fe  Fe61      1.0  0.44811  0.37837  0.76926  1.0000
  S   S119      1.0  0.42642  0.37912  0.72921  1.0000
  S   S120      1.0  0.44657  0.39957  0.81242  1.0000
  Fe  Fe62      1.0  0.42578  0.35070  0.73548  1.0000
  S   S121      1.0  0.40232  0.33389  0.74235  1.0000
  Fe  Fe63      1.0  0.44714  0.37432  0.68672  1.0000
  S   S122      1.0  0.44674  0.38839  0.63184  1.0000
  S   S123      1.0  0.44602  0.34999  0.77871  1.0000
  S   S124      1.0  0.46871  0.37493  0.72574  1.0000
  C   C891      1.0  0.26289  0.29008  0.95699  1.0000
  H   H727      1.0  0.31901  0.25396  0.59731  1.0000
  C   C892      1.0  0.30796  0.24335  0.45654  1.0000
  C   C893      1.0  0.38280  0.47390  0.42080  1.0000
  C   C894      1.0  0.48620  0.46291  0.13740  1.0000
  C   C895      1.0  0.30618  0.45260  0.20280  1.0000
  C   C896      1.0  0.46843  0.48302  0.66717  1.0000
  C   C897      1.0  0.27445  0.44662  0.43900  1.0000
  H   H728      1.0  0.33530  0.46372  0.23658  1.0000
  Fe  Fe64      1.0  0.28468  0.29084  0.67326  1.0000
  S   S125      1.0  0.25805  0.30254  0.67856  1.0000
  S   S126      1.0  0.29289  0.26252  0.66679  1.0000
  Fe  Fe65      1.0  0.30098  0.32479  0.68911  1.0000
  S   S127      1.0  0.27515  0.33851  0.69564  1.0000
  S   S128      1.0  0.32484  0.34106  0.68850  1.0000
  Fe  Fe66      1.0  0.26683  0.31551  0.72894  1.0000
  H   H729      1.0  0.33898  0.26361  0.64291  1.0000
  Fe  Fe67      1.0  0.26797  0.32493  0.64511  1.0000
  C   C898      1.0  0.26824  0.45794  0.55916  1.0000
  S   S129      1.0  0.29316  0.30273  0.72534  1.0000
  S   S130      1.0  0.29403  0.31228  0.63702  1.0000
  C   C899      1.0  0.38960  0.48780  0.43798  1.0000
  S   S131      1.0  0.25507  0.39895  0.34982  1.0000
  S   S132      1.0  0.25106  0.33835  0.60101  1.0000
  S   S133      1.0  0.25805  0.38134  0.44941  1.0000
  C   C900      1.0  0.27410  0.33788  0.42763  1.0000
  S   S134      1.0  0.26548  0.45088  0.33850  1.0000
  C   C901      1.0  0.28063  0.39349  0.59475  1.0000
  C   C902      1.0  0.43788  0.29487  0.65605  1.0000
  C   C903      1.0  0.47158  0.34995  0.61021  1.0000
  H   H730      1.0  0.29212  0.40654  0.43760  1.0000
  C   C904      1.0  0.27819  0.46451  0.24488  1.0000
  C   C905      1.0  0.25897  0.27505  0.52355  1.0000
  C   C906      1.0  0.25341  0.34997  0.55846  1.0000
  C   C907      1.0  0.25569  0.36940  0.49155  1.0000
  C   C908      1.0  0.27044  0.36400  0.51057  1.0000
  C   C909      1.0  0.26933  0.35449  0.54380  1.0000
  H   H731      1.0  0.28286  0.36734  0.49968  1.0000
  H   H732      1.0  0.28075  0.35099  0.55854  1.0000
  C   C910      1.0  0.28765  0.24629  0.63597  1.0000
  C   C911      1.0  0.27742  0.24960  0.60568  1.0000
  H   H733      1.0  0.27207  0.26229  0.60094  1.0000
  C   C912      1.0  0.45922  0.41273  0.83977  1.0000
  C   C913      1.0  0.47711  0.41138  0.84004  1.0000
  H   H734      1.0  0.26747  0.46904  0.26175  1.0000
  C   C914      1.0  0.47800  0.43355  0.88643  1.0000
  C   C915      1.0  0.46015  0.43518  0.88552  1.0000
  C   C916      1.0  0.45089  0.42487  0.86243  1.0000
  C   C917      1.0  0.44158  0.46977  0.83392  1.0000
  H   H735      1.0  0.36487  0.24588  0.65787  1.0000
  H   H736      1.0  0.45342  0.44418  0.90304  1.0000
  H   H737      1.0  0.43709  0.42613  0.86252  1.0000
  C   C918      1.0  0.45940  0.40630  0.62423  1.0000
  C   C919      1.0  0.45821  0.41559  0.59110  1.0000
  C   C920      1.0  0.46804  0.43001  0.58452  1.0000
  C   C921      1.0  0.47914  0.43517  0.61108  1.0000
  C   C922      1.0  0.48035  0.42586  0.64408  1.0000
  C   C923      1.0  0.47059  0.41145  0.65057  1.0000
  C   C924      1.0  0.34176  0.25180  0.62891  1.0000
  C   C925      1.0  0.35122  0.41337  0.42165  1.0000
  H   H738      1.0  0.27626  0.40453  0.49604  1.0000
  H   H739      1.0  0.47160  0.40445  0.67614  1.0000
  C   C926      1.0  0.38116  0.33563  0.72486  1.0000
  C   C927      1.0  0.36968  0.32264  0.73321  1.0000
  C   C928      1.0  0.35257  0.32383  0.72155  1.0000
  C   C929      1.0  0.34661  0.33816  0.70172  1.0000
  C   C930      1.0  0.35817  0.35100  0.69284  1.0000
  C   C931      1.0  0.37532  0.34974  0.70412  1.0000
  H   H740      1.0  0.37400  0.31167  0.74921  1.0000
  H   H741      1.0  0.34392  0.31381  0.72831  1.0000
  H   H742      1.0  0.35376  0.36215  0.67749  1.0000
  H   H743      1.0  0.38391  0.35985  0.69746  1.0000
  C   C932      1.0  0.35626  0.24175  0.63743  1.0000
  C   C933      1.0  0.26808  0.38300  0.60943  1.0000
  C   C934      1.0  0.24404  0.27133  0.54336  1.0000
  C   C935      1.0  0.30313  0.47017  0.20641  1.0000
  H   H744      1.0  0.27097  0.34896  0.41057  1.0000
  C   C936      1.0  0.26923  0.28826  0.53429  1.0000
  C   C937      1.0  0.26624  0.43057  0.49377  1.0000
  H   H745      1.0  0.45884  0.45311  0.24251  1.0000
  C   C938      1.0  0.32074  0.46939  0.31833  1.0000
  C   C939      1.0  0.29553  0.44109  0.22089  1.0000
  C   C940      1.0  0.29018  0.47497  0.32964  1.0000
  C   C941      1.0  0.28708  0.45744  0.33200  1.0000
  C   C942      1.0  0.30102  0.44592  0.32780  1.0000
  C   C943      1.0  0.31767  0.45187  0.32106  1.0000
  H   H746      1.0  0.34126  0.40420  0.42068  1.0000
  H   H747      1.0  0.42583  0.46582  0.44531  1.0000
  H   H748      1.0  0.29893  0.43242  0.32914  1.0000
  H   H749      1.0  0.32825  0.44278  0.31759  1.0000
  C   C944      1.0  0.39927  0.44055  0.49534  1.0000
  C   C945      1.0  0.46769  0.48495  0.83886  1.0000
  H   H750      1.0  0.31074  0.25780  0.40626  1.0000
  H   H751      1.0  0.27306  0.29790  0.94653  1.0000
  C   C946      1.0  0.35132  0.48529  0.16233  1.0000
  C   C947      1.0  0.36677  0.41041  0.40290  1.0000
  H   H752      1.0  0.44302  0.46189  0.50035  1.0000
  H   H753      1.0  0.31688  0.44779  0.18632  1.0000
  C   C948      1.0  0.36126  0.44008  0.44263  1.0000
  C   C949      1.0  0.37679  0.43737  0.42324  1.0000
  C   C950      1.0  0.37955  0.42233  0.40377  1.0000
  P   P30       1.0  0.39308  0.45298  0.42424  1.0000
  C   C951      1.0  0.40731  0.45037  0.38498  1.0000
  H   H754      1.0  0.24829  0.33552  0.44789  1.0000
  C   C952      1.0  0.30684  0.48091  0.32303  1.0000
  H   H755      1.0  0.27350  0.43819  0.25678  1.0000
  H   H756      1.0  0.29813  0.42754  0.21878  1.0000
  H   H757      1.0  0.27993  0.48022  0.57872  1.0000
  H   H758      1.0  0.33072  0.46843  0.11598  1.0000
  C   C953      1.0  0.48567  0.27790  0.55443  1.0000
  H   H759      1.0  0.48550  0.46117  0.27098  1.0000
  H   H760      1.0  0.47186  0.27835  0.55309  1.0000
  C   C954      1.0  0.41421  0.45603  0.32088  1.0000
  C   C955      1.0  0.40318  0.45803  0.35119  1.0000
  C   C956      1.0  0.40517  0.45051  0.46565  1.0000
  C   C957      1.0  0.42098  0.45820  0.46792  1.0000
  C   C958      1.0  0.43077  0.45596  0.49916  1.0000
  C   C959      1.0  0.33052  0.24639  0.60301  1.0000
  S   S135      1.0  0.46206  0.47636  0.43047  1.0000
  H   H761      1.0  0.25866  0.27933  0.90510  1.0000
  H   H762      1.0  0.36888  0.39892  0.38748  1.0000
  H   H763      1.0  0.42158  0.27350  0.65582  1.0000
  S   S136      1.0  0.46734  0.48945  0.95046  1.0000
  H   H764      1.0  0.35895  0.45150  0.45820  1.0000
  H   H765      1.0  0.39148  0.41983  0.38899  1.0000
  P   P31       1.0  0.48129  0.25778  0.61715  1.0000
  H   H766      1.0  0.36279  0.46617  0.38531  1.0000
  S   S137      1.0  0.24755  0.31604  0.77874  1.0000
  H   H767      1.0  0.26375  0.29957  0.01159  1.0000
  C   C960      1.0  0.47547  0.33611  0.58799  1.0000
  H   H768      1.0  0.29088  0.43333  0.40042  1.0000
  C   C961      1.0  0.28514  0.41764  0.44783  1.0000
  H   H769      1.0  0.43620  0.47764  0.16680  1.0000
  H   H770      1.0  0.47046  0.47050  0.65585  1.0000
  H   H771      1.0  0.28587  0.41538  0.56082  1.0000
  H   H772      1.0  0.46528  0.32855  0.57843  1.0000
  H   H773      1.0  0.40460  0.43050  0.54937  1.0000
  Fe  Fe68      1.0  0.49112  0.46935  0.55249  1.0000
  H   H774      1.0  0.48132  0.37038  0.64035  1.0000
  C   C962      1.0  0.36177  0.46436  0.22093  1.0000
  H   H775      1.0  0.36580  0.45683  0.24453  1.0000
  C   C963      1.0  0.34849  0.42817  0.44160  1.0000
  C   C964      1.0  0.46390  0.27218  0.63094  1.0000
  H   H776      1.0  0.48395  0.48562  0.79089  1.0000
  Fe  Fe69      1.0  0.24938  0.42732  0.35233  1.0000
  S   S138      1.0  0.47032  0.48820  0.53612  1.0000
  S   S139      1.0  0.48126  0.46614  0.01916  1.0000
  H   H777      1.0  0.33641  0.43048  0.45606  1.0000
  C   C965      1.0  0.36808  0.47651  0.39983  1.0000
  C   C966      1.0  0.25462  0.27949  0.93353  1.0000
  C   C967      1.0  0.32153  0.30987  0.94577  1.0000
  C   C968      1.0  0.32891  0.32278  0.96483  1.0000
  C   C969      1.0  0.33371  0.33764  0.94638  1.0000
  C   C970      1.0  0.33120  0.33959  0.90884  1.0000
  C   C971      1.0  0.32402  0.32657  0.88936  1.0000
  C   C972      1.0  0.31902  0.31177  0.90820  1.0000
  P   P32       1.0  0.32008  0.32963  0.84121  1.0000
  C   C973      1.0  0.33741  0.34136  0.82069  1.0000
  C   C974      1.0  0.31909  0.30918  0.82009  1.0000
  C   C975      1.0  0.30392  0.30020  0.82265  1.0000
  C   C976      1.0  0.30296  0.28439  0.80643  1.0000
  C   C977      1.0  0.31709  0.27747  0.78717  1.0000
  C   C978      1.0  0.33225  0.28628  0.78457  1.0000
  C   C979      1.0  0.33329  0.30203  0.80109  1.0000
  C   C980      1.0  0.33429  0.35416  0.79409  1.0000
  C   C981      1.0  0.34779  0.36336  0.77910  1.0000
  C   C982      1.0  0.36449  0.35975  0.79020  1.0000
  C   C983      1.0  0.36776  0.34684  0.81611  1.0000
  C   C984      1.0  0.35429  0.33771  0.83144  1.0000
  C   C985      1.0  0.29984  0.34105  0.83534  1.0000
  C   C986      1.0  0.29171  0.34961  0.86459  1.0000
  C   C987      1.0  0.27575  0.35787  0.86006  1.0000
  C   C988      1.0  0.26783  0.35771  0.82635  1.0000
  C   C989      1.0  0.27589  0.34935  0.79709  1.0000
  C   C990      1.0  0.29182  0.34103  0.80148  1.0000
  H   H778      1.0  0.31771  0.29839  0.96014  1.0000
  H   H779      1.0  0.33084  0.32130  0.99394  1.0000
  H   H780      1.0  0.33934  0.34771  0.96118  1.0000
  H   H781      1.0  0.33476  0.35131  0.89505  1.0000
  H   H782      1.0  0.31317  0.30167  0.89411  1.0000
  H   H783      1.0  0.29276  0.30549  0.83688  1.0000
  H   H784      1.0  0.29106  0.27780  0.80771  1.0000
  H   H785      1.0  0.31615  0.26549  0.77352  1.0000
  H   H786      1.0  0.34312  0.28107  0.76915  1.0000
  H   H787      1.0  0.34511  0.30866  0.79829  1.0000
  H   H788      1.0  0.32156  0.35697  0.78435  1.0000
  H   H789      1.0  0.34537  0.37292  0.75794  1.0000
  H   H790      1.0  0.37502  0.36652  0.77773  1.0000
  H   H791      1.0  0.38084  0.34369  0.82352  1.0000
  H   H792      1.0  0.35709  0.32764  0.85125  1.0000
  H   H793      1.0  0.29745  0.34979  0.89107  1.0000
  H   H794      1.0  0.26932  0.36411  0.88288  1.0000
  H   H795      1.0  0.25526  0.36369  0.82304  1.0000
  H   H796      1.0  0.26949  0.34891  0.77130  1.0000
  H   H797      1.0  0.29779  0.33445  0.77853  1.0000
  H   H798      1.0  0.42588  0.43408  0.41324  1.0000
  H   H799      1.0  0.27773  0.45620  0.53748  1.0000
  C   C991      1.0  0.48464  0.35962  0.62329  1.0000
  C   C992      1.0  0.30307  0.24383  0.49342  1.0000
  H   H800      1.0  0.27333  0.45800  0.42182  1.0000
  H   H801      1.0  0.40117  0.48642  0.45334  1.0000
  P   P33       1.0  0.28800  0.29361  0.50748  1.0000
  C   C993      1.0  0.29654  0.27421  0.48733  1.0000
  C   C994      1.0  0.28222  0.30995  0.47397  1.0000
  C   C995      1.0  0.29506  0.31773  0.45278  1.0000
  C   C996      1.0  0.29098  0.33158  0.42957  1.0000
  C   C997      1.0  0.43768  0.48667  0.38152  1.0000
  C   C998      1.0  0.26127  0.33025  0.44863  1.0000
  H   H802      1.0  0.48389  0.41650  0.15071  1.0000
  C   C999      1.0  0.30135  0.27361  0.45020  1.0000
  C   C1000     1.0  0.25762  0.29107  0.99361  1.0000
  H   H803      1.0  0.25928  0.24217  0.87637  1.0000
  C   C1001     1.0  0.25111  0.26584  0.79962  1.0000
  C   C1002     1.0  0.26529  0.44555  0.47219  1.0000
  C   C1003     1.0  0.30387  0.30219  0.53641  1.0000
  C   C1004     1.0  0.31590  0.29152  0.55445  1.0000
  C   C1005     1.0  0.32819  0.29841  0.57629  1.0000
  C   C1006     1.0  0.32859  0.31599  0.58035  1.0000
  C   C1007     1.0  0.31668  0.32670  0.56259  1.0000
  C   C1008     1.0  0.30435  0.31984  0.54086  1.0000
  C   C1009     1.0  0.30714  0.25823  0.43497  1.0000
  C   C1010     1.0  0.26381  0.29822  0.56388  1.0000
  C   C1011     1.0  0.47597  0.48645  0.28466  1.0000
  H   H804      1.0  0.27103  0.30895  0.57166  1.0000
  H   H805      1.0  0.30829  0.31341  0.45506  1.0000
  H   H806      1.0  0.30093  0.33775  0.41374  1.0000
  H   H807      1.0  0.44814  0.47820  0.10320  1.0000
  H   H808      1.0  0.44427  0.25347  0.63362  1.0000
  C   C1012     1.0  0.49141  0.46920  0.17049  1.0000
  H   H809      1.0  0.30041  0.28483  0.43274  1.0000
  C   C1013     1.0  0.48637  0.42166  0.86322  1.0000
  C   C1014     1.0  0.25257  0.25105  0.85826  1.0000
  C   C1015     1.0  0.47474  0.47021  0.27019  1.0000
  H   H810      1.0  0.48378  0.40217  0.82294  1.0000
  H   H811      1.0  0.31582  0.27792  0.55212  1.0000
  H   H812      1.0  0.33722  0.29011  0.59068  1.0000
  H   H813      1.0  0.33779  0.32131  0.59814  1.0000
  H   H814      1.0  0.31670  0.34029  0.56653  1.0000
  H   H815      1.0  0.29507  0.32835  0.52788  1.0000
  C   C1016     1.0  0.46653  0.48497  0.70508  1.0000
  H   H816      1.0  0.26245  0.26757  0.49992  1.0000
  C   C1017     1.0  0.26526  0.31634  0.47171  1.0000
  Fe  Fe70      1.0  0.48597  0.46734  0.95758  1.0000
  C   C1018     1.0  0.46117  0.47182  0.78168  1.0000
  H   H817      1.0  0.39151  0.46563  0.34813  1.0000
  P   P34       1.0  0.46743  0.46645  0.73545  1.0000
  Fe  Fe71      1.0  0.46441  0.48984  0.01195  1.0000
  C   C1019     1.0  0.45374  0.45029  0.71963  1.0000
  C   C1020     1.0  0.45506  0.43377  0.73475  1.0000
  C   C1021     1.0  0.44486  0.42109  0.72231  1.0000
  C   C1022     1.0  0.43325  0.42467  0.69466  1.0000
  C   C1023     1.0  0.43149  0.44117  0.68008  1.0000
  C   C1024     1.0  0.44150  0.45401  0.69285  1.0000
  C   C1025     1.0  0.43114  0.48685  0.14715  1.0000
  H   H818      1.0  0.45838  0.35336  0.61708  1.0000
  H   H819      1.0  0.48482  0.44515  0.79100  1.0000
  C   C1026     1.0  0.42247  0.44034  0.38769  1.0000
  C   C1027     1.0  0.44569  0.47712  0.25227  1.0000
  C   C1028     1.0  0.34440  0.46827  0.21623  1.0000
  H   H820      1.0  0.29356  0.25926  0.53729  1.0000
  H   H821      1.0  0.49204  0.32370  0.65928  1.0000
  C   C1029     1.0  0.43434  0.27789  0.65014  1.0000
  H   H822      1.0  0.46380  0.43054  0.75641  1.0000
  H   H823      1.0  0.44615  0.40842  0.73405  1.0000
  H   H824      1.0  0.42570  0.41462  0.68447  1.0000
  H   H825      1.0  0.42241  0.44394  0.65876  1.0000
  H   H826      1.0  0.43799  0.44485  0.30063  1.0000
  H   H827      1.0  0.47584  0.46926  0.12285  1.0000
  C   C1030     1.0  0.43351  0.43841  0.35737  1.0000
  H   H828      1.0  0.43959  0.46673  0.68165  1.0000
  H   H829      1.0  0.48739  0.27477  0.68707  1.0000
  Fe  Fe72      1.0  0.47848  0.48277  0.47809  1.0000
  H   H830      1.0  0.49028  0.44398  0.09683  1.0000
  H   H831      1.0  0.41103  0.46223  0.29507  1.0000
  H   H832      1.0  0.43252  0.44417  0.55266  1.0000
  H   H833      1.0  0.47993  0.29398  0.63135  1.0000
  S   S140      1.0  0.34216  0.47601  0.30919  1.0000
  C   C1031     1.0  0.25889  0.41033  0.56240  1.0000
  C   C1032     1.0  0.46721  0.28936  0.63613  1.0000
  H   H834      1.0  0.44157  0.47532  0.36701  1.0000
  H   H835      1.0  0.42997  0.46500  0.84638  1.0000
  C   C1033     1.0  0.28158  0.44706  0.24205  1.0000
  C   C1034     1.0  0.45967  0.46560  0.25394  1.0000
  H   H836      1.0  0.27958  0.48405  0.33281  1.0000
  H   H837      1.0  0.26665  0.32041  0.84653  1.0000
  H   H838      1.0  0.27095  0.24745  0.81396  1.0000
  H   H839      1.0  0.27160  0.37215  0.62682  1.0000
  H   H840      1.0  0.38720  0.43438  0.49445  1.0000
  C   C1035     1.0  0.42486  0.44599  0.52852  1.0000
  C   C1036     1.0  0.44583  0.46616  0.79757  1.0000
  H   H841      1.0  0.44536  0.43099  0.35993  1.0000
  H   H842      1.0  0.48545  0.36327  0.17848  1.0000
  C   C1037     1.0  0.44729  0.26655  0.63764  1.0000
  C   C1038     1.0  0.40911  0.43830  0.52662  1.0000
  H   H843      1.0  0.25727  0.32322  0.91146  1.0000
  H   H844      1.0  0.48886  0.42981  0.66478  1.0000
  C   C1039     1.0  0.29749  0.25918  0.50876  1.0000
  C   C1040     1.0  0.42939  0.44627  0.32399  1.0000
  C   C1041     1.0  0.48873  0.45669  0.73711  1.0000
  C   C1042     1.0  0.47204  0.48128  0.80257  1.0000
  H   H845      1.0  0.44961  0.41164  0.57055  1.0000
  H   H846      1.0  0.43396  0.47357  0.23982  1.0000
  H   H847      1.0  0.45718  0.31367  0.65407  1.0000
  C   C1043     1.0  0.45431  0.30059  0.64891  1.0000
  H   H848      1.0  0.29390  0.39091  0.60128  1.0000
  C   C1044     1.0  0.24788  0.32133  0.89096  1.0000
  C   C1045     1.0  0.49108  0.40452  0.15248  1.0000
  H   H849      1.0  0.44926  0.48170  0.88284  1.0000
  P   P35       1.0  0.31677  0.48491  0.18243  1.0000
  C   C1046     1.0  0.28889  0.47606  0.22716  1.0000
  H   H850      1.0  0.46709  0.43707  0.55893  1.0000
  C   C1047     1.0  0.48291  0.39012  0.16611  1.0000
  H   H851      1.0  0.42796  0.30357  0.66657  1.0000
  H   H852      1.0  0.25512  0.31108  0.48852  1.0000
  C   C1048     1.0  0.27605  0.40722  0.57161  1.0000
  C   C1049     1.0  0.45249  0.47914  0.85454  1.0000
  H   H853      1.0  0.43727  0.45868  0.78236  1.0000
  H   H854      1.0  0.24276  0.26443  0.13250  1.0000
  H   H855      1.0  0.46960  0.39112  0.17491  1.0000
  C   C1050     1.0  0.28435  0.43267  0.42680  1.0000
  C   C1051     1.0  0.25930  0.25407  0.82305  1.0000
  C   C1052     1.0  0.27612  0.41657  0.48117  1.0000
  C   C1053     1.0  0.24868  0.29465  0.58317  1.0000
  C   C1054     1.0  0.37390  0.47070  0.19612  1.0000
  H   H856      1.0  0.38737  0.46785  0.20008  1.0000
  H   H857      1.0  0.48489  0.48028  0.18189  1.0000
  C   C1055     1.0  0.43807  0.48720  0.11116  1.0000
  S   S141      1.0  0.49049  0.44561  0.91639  1.0000
  H   H858      1.0  0.25642  0.26846  0.77250  1.0000
  C   C1056     1.0  0.33900  0.47845  0.18644  1.0000
  C   C1057     1.0  0.31329  0.47525  0.07346  1.0000
  H   H859      1.0  0.24438  0.30256  0.60560  1.0000
  H   H860      1.0  0.32055  0.46814  0.05297  1.0000
  H   H861      1.0  0.48888  0.29334  0.50556  1.0000
  C   C1058     1.0  0.31913  0.47561  0.10921  1.0000
  S   S142      1.0  0.48779  0.32682  0.73909  1.0000
  C   C1059     1.0  0.25485  0.44668  0.56407  1.0000
  C   C1060     1.0  0.36869  0.48123  0.16693  1.0000
  H   H862      1.0  0.48430  0.24199  0.54460  1.0000
  H   H863      1.0  0.37823  0.48657  0.14849  1.0000
  H   H864      1.0  0.25707  0.45620  0.48046  1.0000
  C   C1061     1.0  0.26963  0.47151  0.58274  1.0000
  C   C1062     1.0  0.25095  0.38628  0.60116  1.0000
  P   P36       1.0  0.25305  0.42881  0.53470  1.0000
  C   C1063     1.0  0.24405  0.28150  0.00678  1.0000
  C   C1064     1.0  0.30985  0.48488  0.13585  1.0000
  C   C1065     1.0  0.25784  0.47378  0.61164  1.0000
  C   C1066     1.0  0.24633  0.39992  0.57789  1.0000
  H   H865      1.0  0.25895  0.48428  0.62991  1.0000
  H   H866      1.0  0.29348  0.48350  0.03659  1.0000
  C   C1067     1.0  0.29802  0.48387  0.06425  1.0000
  H   H867      1.0  0.24303  0.29522  0.11663  1.0000
  C   C1068     1.0  0.49245  0.33213  0.57804  1.0000
  S   S143      1.0  0.49191  0.45299  0.60413  1.0000
  C   C1069     1.0  0.49182  0.37442  0.16805  1.0000
  C   C1070     1.0  0.24472  0.46238  0.61719  1.0000
  C   C1071     1.0  0.24330  0.44880  0.59367  1.0000
  Fe  Fe73      1.0  0.24265  0.39737  0.40640  1.0000
  H   H868      1.0  0.28603  0.48952  0.22995  1.0000
  Fe  Fe74      1.0  0.30484  0.68437  0.30980  1.0000
  S   S144      1.0  0.31539  0.71003  0.29624  1.0000
  S   S145      1.0  0.27799  0.67674  0.33008  1.0000
  Fe  Fe75      1.0  0.33939  0.66572  0.29214  1.0000
  S   S146      1.0  0.35225  0.69054  0.27824  1.0000
  S   S147      1.0  0.35480  0.64007  0.29652  1.0000
  Fe  Fe76      1.0  0.33852  0.70088  0.32885  1.0000
  S   S148      1.0  0.34873  0.71873  0.37258  1.0000
  Fe  Fe77      1.0  0.32845  0.69821  0.24654  1.0000
  S   S149      1.0  0.32719  0.70918  0.18617  1.0000
  S   S150      1.0  0.32718  0.67589  0.34405  1.0000
  S   S151      1.0  0.31643  0.67274  0.25846  1.0000
  H   H869      1.0  0.46405  0.52433  0.63858  1.0000
  C   C1072     1.0  0.32679  0.65065  0.42421  1.0000
  H   H870      1.0  0.44324  0.54954  0.17267  1.0000
  C   C1073     1.0  0.45449  0.52475  0.16229  1.0000
  S   S152      1.0  0.40701  0.71613  0.62358  1.0000
  H   H871      1.0  0.38992  0.71246  0.79431  1.0000
  Fe  Fe78      1.0  0.43485  0.72243  0.62117  1.0000
  S   S153      1.0  0.45896  0.70527  0.63191  1.0000
  C   C1074     1.0  0.46331  0.56895  0.52775  1.0000
  S   S154      1.0  0.39114  0.71420  0.52262  1.0000
  C   C1075     1.0  0.31635  0.68934  0.57452  1.0000
  Fe  Fe79      1.0  0.38841  0.50883  0.24150  1.0000
  S   S155      1.0  0.39159  0.53399  0.26773  1.0000
  C   C1076     1.0  0.41758  0.49810  0.15771  1.0000
  Fe  Fe80      1.0  0.35748  0.49990  0.29388  1.0000
  S   S156      1.0  0.35882  0.52472  0.32326  1.0000
  H   H872      1.0  0.31370  0.72556  0.48506  1.0000
  Fe  Fe81      1.0  0.36292  0.53720  0.26784  1.0000
  S   S157      1.0  0.34900  0.56218  0.24936  1.0000
  Fe  Fe82      1.0  0.38744  0.52011  0.32121  1.0000
  S   S158      1.0  0.40354  0.52657  0.36922  1.0000
  S   S159      1.0  0.35969  0.51247  0.23801  1.0000
  H   H873      1.0  0.40089  0.51860  0.13908  1.0000
  C   C1077     1.0  0.48650  0.55693  0.72592  1.0000
  H   H874      1.0  0.44943  0.58463  0.60909  1.0000
  H   H875      1.0  0.27649  0.49916  0.08389  1.0000
  H   H876      1.0  0.34753  0.49394  0.14035  1.0000
  H   H877      1.0  0.26908  0.71167  0.35372  1.0000
  C   C1078     1.0  0.46283  0.55052  0.13022  1.0000
  S   S160      1.0  0.38604  0.49476  0.29561  1.0000
  C   C1079     1.0  0.41120  0.50984  0.13173  1.0000
  H   H878      1.0  0.44005  0.57550  0.03759  1.0000
  C   C1080     1.0  0.41965  0.51235  0.38598  1.0000
  C   C1081     1.0  0.26136  0.71239  0.24629  1.0000
  H   H879      1.0  0.25314  0.68987  0.27517  1.0000
  C   C1082     1.0  0.48350  0.68114  0.65308  1.0000
  C   C1083     1.0  0.46229  0.51548  0.69477  1.0000
  H   H880      1.0  0.28658  0.49973  0.14718  1.0000
  C   C1084     1.0  0.29850  0.65192  0.39913  1.0000
  C   C1085     1.0  0.46617  0.68649  0.65646  1.0000
  H   H881      1.0  0.47620  0.49207  0.85513  1.0000
  H   H882      1.0  0.29098  0.72590  0.97081  1.0000
  C   C1086     1.0  0.45533  0.67683  0.67896  1.0000
  C   C1087     1.0  0.46330  0.50135  0.71869  1.0000
  C   C1088     1.0  0.26701  0.70516  0.46912  1.0000
  H   H883      1.0  0.44195  0.68060  0.68169  1.0000
  H   H884      1.0  0.28187  0.67261  0.41591  1.0000
  H   H885      1.0  0.33244  0.67021  0.46091  1.0000
  H   H886      1.0  0.48781  0.50519  0.22657  1.0000
  H   H887      1.0  0.48631  0.56769  0.70698  1.0000
  H   H888      1.0  0.34113  0.69457  0.59527  1.0000
  C   C1089     1.0  0.44071  0.50515  0.43255  1.0000
  C   C1090     1.0  0.46453  0.51339  0.65717  1.0000
  H   H889      1.0  0.46137  0.50332  0.74761  1.0000
  C   C1091     1.0  0.48697  0.52903  0.77448  1.0000
  Fe  Fe83      1.0  0.40462  0.72905  0.56779  1.0000
  H   H890      1.0  0.48466  0.64946  0.60001  1.0000
  C   C1092     1.0  0.27811  0.69147  0.47902  1.0000
  P   P37       1.0  0.30077  0.69197  0.46811  1.0000
  H   H891      1.0  0.48395  0.60635  0.66247  1.0000
  C   C1093     1.0  0.31308  0.52048  0.18055  1.0000
  C   C1094     1.0  0.35234  0.61842  0.28398  1.0000
  C   C1095     1.0  0.36345  0.60566  0.29873  1.0000
  C   C1096     1.0  0.36244  0.58844  0.28904  1.0000
  C   C1097     1.0  0.35052  0.58369  0.26369  1.0000
  C   C1098     1.0  0.33951  0.59645  0.24865  1.0000
  C   C1099     1.0  0.34031  0.61364  0.25887  1.0000
  H   H892      1.0  0.37286  0.60913  0.31806  1.0000
  H   H893      1.0  0.37093  0.57887  0.30116  1.0000
  H   H894      1.0  0.33026  0.59303  0.22896  1.0000
  H   H895      1.0  0.33177  0.62323  0.24694  1.0000
  C   C1100     1.0  0.35992  0.71685  0.41506  1.0000
  C   C1101     1.0  0.36701  0.70143  0.42871  1.0000
  C   C1102     1.0  0.37629  0.70088  0.46159  1.0000
  C   C1103     1.0  0.37869  0.71567  0.48165  1.0000
  H   H896      1.0  0.48071  0.55821  0.61674  1.0000
  H   H897      1.0  0.27204  0.67032  0.23933  1.0000
  H   H898      1.0  0.36559  0.68994  0.41362  1.0000
  H   H899      1.0  0.38186  0.68888  0.47127  1.0000
  C   C1104     1.0  0.31469  0.64399  0.40167  1.0000
  H   H900      1.0  0.29902  0.72677  0.35442  1.0000
  H   H901      1.0  0.29141  0.71252  0.17736  1.0000
  C   C1105     1.0  0.25994  0.68628  0.35363  1.0000
  C   C1106     1.0  0.49061  0.53536  0.38590  1.0000
  H   H902      1.0  0.28932  0.64719  0.38054  1.0000
  H   H903      1.0  0.48169  0.66913  0.77401  1.0000
  H   H904      1.0  0.41852  0.49456  0.34254  1.0000
  C   C1107     1.0  0.41805  0.51012  0.09572  1.0000
  C   C1108     1.0  0.27119  0.67669  0.49460  1.0000
  H   H905      1.0  0.46178  0.56336  0.74979  1.0000
  C   C1109     1.0  0.25353  0.67572  0.50051  1.0000
  H   H906      1.0  0.47726  0.73910  0.58867  1.0000
  H   H907      1.0  0.48916  0.57095  0.00342  1.0000
  C   C1110     1.0  0.31584  0.52297  0.25620  1.0000
  H   H908      1.0  0.29118  0.68179  0.19029  1.0000
  C   C1111     1.0  0.45535  0.73308  0.71491  1.0000
  H   H909      1.0  0.46095  0.56407  0.12576  1.0000
  H   H910      1.0  0.35389  0.70096  0.53419  1.0000
  C   C1112     1.0  0.46632  0.51532  0.14112  1.0000
  C   C1113     1.0  0.46375  0.65751  0.81137  1.0000
  C   C1114     1.0  0.31245  0.53644  0.19668  1.0000
  C   C1115     1.0  0.31380  0.53767  0.23447  1.0000
  C   C1116     1.0  0.44684  0.49335  0.26634  1.0000
  H   H911      1.0  0.46709  0.52381  0.40238  1.0000
  C   C1117     1.0  0.24937  0.70409  0.47486  1.0000
  H   H912      1.0  0.38734  0.51475  0.44675  1.0000
  C   C1118     1.0  0.31076  0.72542  0.45642  1.0000
  C   C1119     1.0  0.34063  0.69743  0.53678  1.0000
  H   H913      1.0  0.26122  0.72179  0.95229  1.0000
  C   C1120     1.0  0.43154  0.49882  0.08514  1.0000
  H   H914      1.0  0.47329  0.57004  0.94618  1.0000
  H   H915      1.0  0.31744  0.52396  0.28537  1.0000
  H   H916      1.0  0.45333  0.65494  0.71540  1.0000
  C   C1121     1.0  0.46931  0.56246  0.96974  1.0000
  C   C1122     1.0  0.46746  0.49715  0.64343  1.0000
  H   H917      1.0  0.31131  0.54793  0.17995  1.0000
  H   H918      1.0  0.31378  0.55006  0.24685  1.0000
  H   H919      1.0  0.30888  0.49441  0.32172  1.0000
  C   C1123     1.0  0.30048  0.71138  0.40353  1.0000
  C   C1124     1.0  0.37283  0.53738  0.16891  1.0000
  C   C1125     1.0  0.35622  0.54206  0.15883  1.0000
  C   C1126     1.0  0.35178  0.55913  0.15173  1.0000
  C   C1127     1.0  0.36402  0.57151  0.15423  1.0000
  C   C1128     1.0  0.38076  0.56687  0.16447  1.0000
  C   C1129     1.0  0.38496  0.54973  0.17252  1.0000
  P   P38       1.0  0.39713  0.58241  0.16501  1.0000
  C   C1130     1.0  0.38700  0.60347  0.16575  1.0000
  C   C1131     1.0  0.40934  0.57901  0.20584  1.0000
  C   C1132     1.0  0.40106  0.57436  0.23877  1.0000
  C   C1133     1.0  0.41033  0.57209  0.27076  1.0000
  C   C1134     1.0  0.42795  0.57420  0.27000  1.0000
  C   C1135     1.0  0.43632  0.57880  0.23730  1.0000
  C   C1136     1.0  0.42704  0.58130  0.20532  1.0000
  C   C1137     1.0  0.38344  0.61163  0.19895  1.0000
  C   C1138     1.0  0.37524  0.62771  0.19921  1.0000
  C   C1139     1.0  0.37033  0.63571  0.16653  1.0000
  C   C1140     1.0  0.37360  0.62761  0.13341  1.0000
  C   C1141     1.0  0.38184  0.61153  0.13298  1.0000
  C   C1142     1.0  0.41105  0.58007  0.12502  1.0000
  C   C1143     1.0  0.41356  0.56425  0.10828  1.0000
  C   C1144     1.0  0.42408  0.56263  0.07710  1.0000
  C   C1145     1.0  0.43221  0.57676  0.06226  1.0000
  C   C1146     1.0  0.43015  0.59247  0.07915  1.0000
  C   C1147     1.0  0.41973  0.59410  0.11055  1.0000
  H   H920      1.0  0.37630  0.52415  0.17435  1.0000
  H   H921      1.0  0.34676  0.53247  0.15721  1.0000
  H   H922      1.0  0.33879  0.56285  0.14486  1.0000
  H   H923      1.0  0.36022  0.58463  0.14879  1.0000
  H   H924      1.0  0.39769  0.54584  0.18109  1.0000
  H   H925      1.0  0.38739  0.57259  0.23980  1.0000
  H   H926      1.0  0.40381  0.56855  0.29614  1.0000
  H   H927      1.0  0.43507  0.57229  0.29485  1.0000
  H   H928      1.0  0.44997  0.58055  0.23685  1.0000
  H   H929      1.0  0.43371  0.58506  0.18042  1.0000
  H   H930      1.0  0.38666  0.60564  0.22485  1.0000
  H   H931      1.0  0.37247  0.63391  0.22495  1.0000
  H   H932      1.0  0.36381  0.64810  0.16705  1.0000
  H   H933      1.0  0.36957  0.63377  0.10815  1.0000
  H   H934      1.0  0.38394  0.60529  0.10716  1.0000
  H   H935      1.0  0.40739  0.55306  0.11878  1.0000
  H   H936      1.0  0.42578  0.55038  0.06424  1.0000
  S   S161      1.0  0.48710  0.52842  0.91440  1.0000
  H   H937      1.0  0.43649  0.60343  0.06768  1.0000
  H   H938      1.0  0.41832  0.60636  0.12337  1.0000
  H   H939      1.0  0.43181  0.64994  0.50324  1.0000
  C   C1148     1.0  0.47286  0.54045  0.77408  1.0000
  C   C1149     1.0  0.48245  0.71282  0.51662  1.0000
  H   H940      1.0  0.46277  0.51095  0.29162  1.0000
  H   H941      1.0  0.31261  0.51984  0.15116  1.0000
  C   C1150     1.0  0.28848  0.49272  0.09087  1.0000
  H   H942      1.0  0.41276  0.51904  0.07576  1.0000
  C   C1151     1.0  0.25873  0.70357  0.36172  1.0000
  C   C1152     1.0  0.31643  0.50702  0.24018  1.0000
  C   C1153     1.0  0.41295  0.71588  0.88607  1.0000
  C   C1154     1.0  0.30244  0.72633  0.38279  1.0000
  C   C1155     1.0  0.30634  0.67311  0.44238  1.0000
  H   H943      1.0  0.33657  0.69958  0.47920  1.0000
  H   H944      1.0  0.36133  0.51906  0.41025  1.0000
  C   C1156     1.0  0.47921  0.65695  0.69477  1.0000
  C   C1157     1.0  0.30471  0.71078  0.44051  1.0000
  C   C1158     1.0  0.46183  0.66221  0.69795  1.0000
  C   C1159     1.0  0.30642  0.68851  0.54341  1.0000
  C   C1160     1.0  0.32269  0.66519  0.44435  1.0000
  C   C1161     1.0  0.45271  0.54234  0.15677  1.0000
  H   H945      1.0  0.27178  0.71655  0.45608  1.0000
  Fe  Fe84      1.0  0.49112  0.50727  0.53386  1.0000
  H   H946      1.0  0.47221  0.64660  0.81705  1.0000
  C   C1162     1.0  0.32346  0.71896  0.11248  1.0000
  H   H947      1.0  0.29557  0.70038  0.39065  1.0000
  H   H948      1.0  0.33952  0.64480  0.42521  1.0000
  C   C1163     1.0  0.46444  0.60376  0.70402  1.0000
  C   C1164     1.0  0.44704  0.60551  0.71294  1.0000
  C   C1165     1.0  0.43545  0.61077  0.68619  1.0000
  C   C1166     1.0  0.44131  0.61445  0.65062  1.0000
  C   C1167     1.0  0.45884  0.61306  0.64165  1.0000
  C   C1168     1.0  0.47036  0.60744  0.66848  1.0000
  P   P39       1.0  0.46611  0.61740  0.59535  1.0000
  H   H949      1.0  0.43596  0.50228  0.26478  1.0000
  C   C1169     1.0  0.46389  0.59879  0.56810  1.0000
  H   H950      1.0  0.38846  0.72539  0.90689  1.0000
  C   C1170     1.0  0.47190  0.59796  0.53341  1.0000
  C   C1171     1.0  0.47805  0.72430  0.48836  1.0000
  C   C1172     1.0  0.24395  0.71046  0.37972  1.0000
  C   C1173     1.0  0.45366  0.63555  0.57803  1.0000
  C   C1174     1.0  0.45052  0.64969  0.60022  1.0000
  C   C1175     1.0  0.44102  0.66389  0.58733  1.0000
  C   C1176     1.0  0.43432  0.66398  0.55236  1.0000
  C   C1177     1.0  0.43714  0.64987  0.53026  1.0000
  C   C1178     1.0  0.44677  0.63569  0.54298  1.0000
  H   H951      1.0  0.47347  0.60018  0.72501  1.0000
  H   H952      1.0  0.44259  0.60300  0.74070  1.0000
  H   H953      1.0  0.42195  0.61212  0.69308  1.0000
  H   H954      1.0  0.43217  0.61847  0.63015  1.0000
  H   H955      1.0  0.46730  0.50164  0.14452  1.0000
  H   H956      1.0  0.31083  0.68652  0.60127  1.0000
  H   H957      1.0  0.45984  0.52807  0.70530  1.0000
  H   H958      1.0  0.44640  0.51837  0.18236  1.0000
  C   C1179     1.0  0.27517  0.73787  0.13526  1.0000
  H   H959      1.0  0.45559  0.64981  0.62743  1.0000
  H   H960      1.0  0.43891  0.67488  0.60440  1.0000
  H   H961      1.0  0.42691  0.67501  0.54249  1.0000
  C   C1180     1.0  0.33076  0.69659  0.50567  1.0000
  C   C1181     1.0  0.40248  0.67231  0.71069  1.0000
  C   C1182     1.0  0.39129  0.68391  0.69324  1.0000
  C   C1183     1.0  0.39110  0.70106  0.70217  1.0000
  C   C1184     1.0  0.40229  0.70669  0.72799  1.0000
  C   C1185     1.0  0.41321  0.69508  0.74648  1.0000
  C   C1186     1.0  0.41332  0.67782  0.73744  1.0000
  P   P40       1.0  0.42665  0.70244  0.78177  1.0000
  C   C1187     1.0  0.41411  0.70866  0.82179  1.0000
  C   C1188     1.0  0.44167  0.68543  0.79464  1.0000
  C   C1189     1.0  0.43642  0.67259  0.81927  1.0000
  C   C1190     1.0  0.44743  0.65871  0.82761  1.0000
  C   C1191     1.0  0.26656  0.71758  0.56744  1.0000
  H   H962      1.0  0.37404  0.72279  0.84825  1.0000
  C   C1192     1.0  0.45818  0.68418  0.77876  1.0000
  C   C1193     1.0  0.42219  0.71003  0.85537  1.0000
  C   C1194     1.0  0.47948  0.51079  0.35741  1.0000
  H   H963      1.0  0.27442  0.70723  0.57865  1.0000
  C   C1195     1.0  0.27350  0.72884  0.54156  1.0000
  C   C1196     1.0  0.39660  0.71307  0.81962  1.0000
  C   C1197     1.0  0.43786  0.72048  0.76330  1.0000
  C   C1198     1.0  0.44586  0.71959  0.72867  1.0000
  C   C1199     1.0  0.26109  0.69488  0.25309  1.0000
  C   C1200     1.0  0.44581  0.49046  0.41393  1.0000
  H   H964      1.0  0.47874  0.60869  0.52231  1.0000
  Fe  Fe85      1.0  0.48976  0.50616  0.95602  1.0000
  H   H965      1.0  0.40277  0.65905  0.70349  1.0000
  H   H966      1.0  0.38286  0.67970  0.67256  1.0000
  H   H967      1.0  0.38245  0.71013  0.68865  1.0000
  H   H968      1.0  0.40221  0.72011  0.73387  1.0000
  H   H969      1.0  0.42183  0.66857  0.75055  1.0000
  H   H970      1.0  0.42366  0.67313  0.83141  1.0000
  H   H971      1.0  0.44325  0.64875  0.84626  1.0000
  C   C1201     1.0  0.45544  0.58455  0.58222  1.0000
  H   H972      1.0  0.43968  0.73262  0.44967  1.0000
  H   H973      1.0  0.46267  0.69358  0.75928  1.0000
  H   H974      1.0  0.43572  0.70692  0.85762  1.0000
  C   C1202     1.0  0.27171  0.68382  0.23277  1.0000
  H   H975      1.0  0.42392  0.52752  0.43286  1.0000
  H   H976      1.0  0.44914  0.55854  0.57340  1.0000
  S   S162      1.0  0.43292  0.73391  0.56407  1.0000
  H   H977      1.0  0.44496  0.70839  0.71239  1.0000
  H   H978      1.0  0.31812  0.70660  0.10977  1.0000
  C   C1203     1.0  0.46913  0.67028  0.78715  1.0000
  S   S163      1.0  0.40926  0.49678  0.20352  1.0000
  H   H979      1.0  0.29326  0.68505  0.54670  1.0000
  C   C1204     1.0  0.42775  0.51610  0.41847  1.0000
  C   C1205     1.0  0.46199  0.49812  0.28198  1.0000
  H   H980      1.0  0.27944  0.66576  0.50130  1.0000
  C   C1206     1.0  0.33343  0.69384  0.57120  1.0000
  C   C1207     1.0  0.29435  0.66645  0.41920  1.0000
  H   H981      1.0  0.24318  0.72385  0.38571  1.0000
  H   H982      1.0  0.47750  0.71969  0.46087  1.0000
  C   C1208     1.0  0.45518  0.56971  0.56205  1.0000
  C   C1209     1.0  0.31353  0.69219  0.50868  1.0000
  C   C1210     1.0  0.47946  0.58631  0.07721  1.0000
  C   C1211     1.0  0.28099  0.73527  0.97757  1.0000
  H   H983      1.0  0.46916  0.49552  0.61429  1.0000
  C   C1212     1.0  0.47794  0.73512  0.56053  1.0000
  C   C1213     1.0  0.28256  0.70776  0.19794  1.0000
  H   H984      1.0  0.31863  0.49575  0.25712  1.0000
  C   C1214     1.0  0.29429  0.49312  0.12662  1.0000
  C   C1215     1.0  0.36199  0.73155  0.43556  1.0000
  H   H985      1.0  0.48951  0.54495  0.40662  1.0000
  C   C1216     1.0  0.27185  0.71894  0.21808  1.0000
  S   S164      1.0  0.48677  0.63868  0.72046  1.0000
  C   C1217     1.0  0.24615  0.67605  0.36384  1.0000
  C   C1218     1.0  0.45577  0.55155  0.96692  1.0000
  C   C1219     1.0  0.45110  0.54116  0.99663  1.0000
  C   C1220     1.0  0.46012  0.54145  0.02903  1.0000
  H   H986      1.0  0.31808  0.63307  0.38514  1.0000
  H   H987      1.0  0.47805  0.58239  0.48693  1.0000
  C   C1221     1.0  0.38170  0.50395  0.43454  1.0000
  H   H988      1.0  0.46350  0.55722  0.51278  1.0000
  C   C1222     1.0  0.28245  0.69027  0.20521  1.0000
  H   H989      1.0  0.27775  0.73460  0.07703  1.0000
  C   C1223     1.0  0.31483  0.50564  0.20235  1.0000
  H   H990      1.0  0.46215  0.53850  0.79280  1.0000
  H   H991      1.0  0.48666  0.51827  0.79327  1.0000
  C   C1224     1.0  0.47266  0.55444  0.74994  1.0000
  C   C1225     1.0  0.48266  0.60285  0.08754  1.0000
  H   H992      1.0  0.46980  0.50133  0.35692  1.0000
  C   C1226     1.0  0.47158  0.58310  0.51333  1.0000
  H   H993      1.0  0.48492  0.73358  0.31779  1.0000
  H   H994      1.0  0.32023  0.72601  0.05523  1.0000
  C   C1227     1.0  0.48854  0.62218  0.59468  1.0000
  C   C1228     1.0  0.37115  0.73098  0.46852  1.0000
  P   P41       1.0  0.48675  0.55143  0.07239  1.0000
  H   H995      1.0  0.44930  0.55070  0.94126  1.0000
  H   H996      1.0  0.44094  0.53229  0.99412  1.0000
  H   H997      1.0  0.45661  0.53277  0.05107  1.0000
  C   C1229     1.0  0.32911  0.72368  0.14702  1.0000
  H   H998      1.0  0.26750  0.72680  0.13933  1.0000
  C   C1230     1.0  0.32468  0.73001  0.08125  1.0000
  H   H999      1.0  0.34908  0.49460  0.37974  1.0000
  H   H1000     1.0  0.40872  0.73424  0.46333  1.0000
  H   H1001     1.0  0.24445  0.71087  0.59927  1.0000
  H   H1002     1.0  0.41927  0.71715  0.91176  1.0000
  H   H1003     1.0  0.44868  0.62491  0.52543  1.0000
  S   S165      1.0  0.43897  0.49914  0.03872  1.0000
  H   H1004     1.0  0.48495  0.51572  0.09735  1.0000
  H   H1005     1.0  0.44681  0.50811  0.45768  1.0000
  C   C1231     1.0  0.36707  0.50641  0.41376  1.0000
  C   C1232     1.0  0.39560  0.72043  0.88347  1.0000
  C   C1233     1.0  0.47492  0.54114  0.10914  1.0000
  H   H1006     1.0  0.46175  0.73208  0.68841  1.0000
  H   H1007     1.0  0.48543  0.70927  0.57468  1.0000
  C   C1234     1.0  0.47834  0.56283  0.00214  1.0000
  C   C1235     1.0  0.47400  0.55211  0.03186  1.0000
  S   S166      1.0  0.48443  0.53155  0.56450  1.0000
  C   C1236     1.0  0.38743  0.71891  0.85036  1.0000
  S   S167      1.0  0.48571  0.50766  0.01686  1.0000
  H   H1008     1.0  0.24823  0.66418  0.51190  1.0000
  H   H1009     1.0  0.43228  0.73681  0.80935  1.0000
  H   H1010     1.0  0.28672  0.72712  0.53251  1.0000
  C   C1237     1.0  0.48245  0.71825  0.55265  1.0000
  C   C1238     1.0  0.47796  0.52344  0.38352  1.0000
  H   H1011     1.0  0.48051  0.55114  0.85372  1.0000
  H   H1012     1.0  0.49206  0.68845  0.63588  1.0000
  C   C1239     1.0  0.43872  0.73549  0.78308  1.0000
  H   H1013     1.0  0.25368  0.72077  0.26362  1.0000
  H   H1014     1.0  0.24688  0.66268  0.35770  1.0000
  H   H1015     1.0  0.46796  0.58407  0.06267  1.0000
  C   C1240     1.0  0.24261  0.68939  0.49047  1.0000
  H   H1016     1.0  0.47372  0.61322  0.08078  1.0000
  H   H1017     1.0  0.48543  0.69961  0.51080  1.0000
  C   C1241     1.0  0.42463  0.49755  0.36759  1.0000
  C   C1242     1.0  0.49106  0.57282  0.08551  1.0000
  C   C1243     1.0  0.48999  0.66652  0.67204  1.0000
  C   C1244     1.0  0.47636  0.52341  0.11439  1.0000
  C   C1245     1.0  0.24949  0.71970  0.57908  1.0000
  C   C1246     1.0  0.26421  0.73296  0.96719  1.0000
  C   C1247     1.0  0.36024  0.49268  0.39648  1.0000
  C   C1248     1.0  0.48141  0.73775  0.34503  1.0000
  C   C1249     1.0  0.31328  0.74012  0.43523  1.0000
  C   C1250     1.0  0.33593  0.73985  0.14946  1.0000
  Fe  Fe86      1.0  0.32857  0.80432  0.93708  1.0000
  S   S168      1.0  0.34987  0.78585  0.95349  1.0000
  S   S169      1.0  0.32983  0.83363  0.92875  1.0000
  Fe  Fe87      1.0  0.30510  0.77492  0.91927  1.0000
  S   S170      1.0  0.27959  0.76443  0.90132  1.0000
  Fe  Fe88      1.0  0.32970  0.77059  0.98425  1.0000
  Fe  Fe89      1.0  0.34391  0.77128  0.90274  1.0000
  H   H1018     1.0  0.40983  0.98072  0.89219  1.0000
  S   S171      1.0  0.30858  0.79003  0.97009  1.0000
  S   S172      1.0  0.32346  0.79033  0.88521  1.0000
  Fe  Fe90      1.0  0.42700  0.75881  0.59183  1.0000
  S   S173      1.0  0.43615  0.78523  0.57237  1.0000
  S   S174      1.0  0.39845  0.75466  0.59248  1.0000
  Fe  Fe91      1.0  0.36549  0.92957  0.97689  1.0000
  S   S175      1.0  0.35591  0.95350  0.00588  1.0000
  S   S176      1.0  0.35931  0.90185  0.99402  1.0000
  Fe  Fe92      1.0  0.39110  0.94954  0.93050  1.0000
  S   S177      1.0  0.38336  0.97448  0.95530  1.0000
  S   S178      1.0  0.41283  0.94365  0.88993  1.0000
  Fe  Fe93      1.0  0.38364  0.96043  0.00953  1.0000
  S   S179      1.0  0.39402  0.97426  0.05893  1.0000
  Fe  Fe94      1.0  0.35610  0.96638  0.94995  1.0000
  C   C1251     1.0  0.45624  0.74792  0.73478  1.0000
  S   S180      1.0  0.39301  0.93595  0.98489  1.0000
  S   S181      1.0  0.36408  0.94209  0.92090  1.0000
  H   H1019     1.0  0.42909  0.90807  0.93620  1.0000
  C   C1252     1.0  0.30594  0.74627  0.23465  1.0000
  H   H1020     1.0  0.44780  0.94712  0.10515  1.0000
  Fe  Fe95      1.0  0.47140  0.98009  0.21181  1.0000
  H   H1021     1.0  0.31867  0.75108  0.44724  1.0000
  H   H1022     1.0  0.47284  0.81705  0.42967  1.0000
  C   C1253     1.0  0.24629  0.74448  0.53905  1.0000
  H   H1023     1.0  0.27583  0.77404  0.01563  1.0000
  C   C1254     1.0  0.41229  0.97213  0.08749  1.0000
  C   C1255     1.0  0.42473  0.95900  0.08380  1.0000
  C   C1256     1.0  0.43849  0.95750  0.10810  1.0000
  C   C1257     1.0  0.44017  0.96911  0.13644  1.0000
  C   C1258     1.0  0.39122  0.75304  0.76631  1.0000
  C   C1259     1.0  0.44160  0.98548  0.82733  1.0000
  H   H1024     1.0  0.42362  0.94985  0.06254  1.0000
  C   C1260     1.0  0.41171  0.89650  0.97504  1.0000
  S   S182      1.0  0.36659  0.76182  0.86509  1.0000
  C   C1261     1.0  0.42680  0.81500  0.77085  1.0000
  C   C1262     1.0  0.42373  0.96002  0.86634  1.0000
  C   C1263     1.0  0.43673  0.95564  0.84080  1.0000
  C   C1264     1.0  0.44559  0.96830  0.82126  1.0000
  S   S183      1.0  0.45712  0.96565  0.16811  1.0000
  H   H1025     1.0  0.42938  0.97059  0.00583  1.0000
  C   C1265     1.0  0.41980  0.97719  0.87260  1.0000
  H   H1026     1.0  0.43985  0.94239  0.83580  1.0000
  C   C1266     1.0  0.46017  0.74922  0.38787  1.0000
  C   C1267     1.0  0.40659  0.89501  0.01178  1.0000
  S   S184      1.0  0.46908  0.97732  0.27358  1.0000
  C   C1268     1.0  0.28937  0.76201  0.15877  1.0000
  Fe  Fe96      1.0  0.40231  0.74215  0.64825  1.0000
  H   H1027     1.0  0.40450  0.89052  0.95439  1.0000
  C   C1269     1.0  0.47386  0.74137  0.49602  1.0000
  C   C1270     1.0  0.44781  0.74918  0.76873  1.0000
  C   C1271     1.0  0.43432  0.91477  0.99143  1.0000
  C   C1272     1.0  0.26204  0.82895  0.97723  1.0000
  S   S185      1.0  0.33287  0.76113  0.04523  1.0000
  H   H1028     1.0  0.44299  0.94334  0.57118  1.0000
  C   C1273     1.0  0.45596  0.79578  0.56681  1.0000
  C   C1274     1.0  0.45612  0.81172  0.54842  1.0000
  C   C1275     1.0  0.47136  0.82070  0.54366  1.0000
  H   H1029     1.0  0.43915  0.80843  0.77292  1.0000
  S   S186      1.0  0.33825  0.98864  0.92958  1.0000
  C   C1276     1.0  0.47134  0.78901  0.58058  1.0000
  H   H1030     1.0  0.44434  0.81717  0.53773  1.0000
  H   H1031     1.0  0.47124  0.83279  0.52908  1.0000
  H   H1032     1.0  0.47149  0.77691  0.59516  1.0000
  C   C1277     1.0  0.33854  0.85231  0.94722  1.0000
  C   C1278     1.0  0.33678  0.86791  0.92766  1.0000
  C   C1279     1.0  0.34307  0.88312  0.94125  1.0000
  C   C1280     1.0  0.35117  0.88305  0.97492  1.0000
  C   C1281     1.0  0.35302  0.86744  0.99440  1.0000
  C   C1282     1.0  0.34687  0.85220  0.98063  1.0000
  H   H1033     1.0  0.33043  0.86826  0.90177  1.0000
  H   H1034     1.0  0.34155  0.89491  0.92573  1.0000
  H   H1035     1.0  0.35926  0.86710  0.02041  1.0000
  H   H1036     1.0  0.34837  0.84040  0.99613  1.0000
  C   C1283     1.0  0.25144  0.74540  0.97455  1.0000
  C   C1284     1.0  0.35736  0.75852  0.79181  1.0000
  C   C1285     1.0  0.47505  0.95836  0.96923  1.0000
  H   H1037     1.0  0.28087  0.94962  0.81464  1.0000
  H   H1038     1.0  0.40431  0.75095  0.75694  1.0000
  C   C1286     1.0  0.26046  0.77274  0.88075  1.0000
  H   H1039     1.0  0.48236  0.94406  0.35090  1.0000
  H   H1040     1.0  0.26312  0.77619  0.23235  1.0000
  H   H1041     1.0  0.45444  0.97845  0.04012  1.0000
  C   C1287     1.0  0.25537  0.76027  0.99254  1.0000
  H   H1042     1.0  0.43317  0.95483  0.94838  1.0000
  H   H1043     1.0  0.46330  0.75849  0.72360  1.0000
  H   H1044     1.0  0.26546  0.95178  0.87434  1.0000
  C   C1288     1.0  0.26735  0.81487  0.95686  1.0000
  H   H1045     1.0  0.29121  0.76068  0.33121  1.0000
  H   H1046     1.0  0.31147  0.75183  0.38186  1.0000
  C   C1289     1.0  0.33151  0.74619  0.08374  1.0000
  C   C1290     1.0  0.43396  0.74419  0.46075  1.0000
  H   H1047     1.0  0.32221  0.75857  0.31461  1.0000
  H   H1048     1.0  0.48263  0.94168  0.14132  1.0000
  C   C1291     1.0  0.42800  0.98251  0.13949  1.0000
  H   H1049     1.0  0.46105  0.87385  0.69983  1.0000
  H   H1050     1.0  0.27714  0.81606  0.93558  1.0000
  H   H1051     1.0  0.26452  0.78838  0.94817  1.0000
  H   H1052     1.0  0.29290  0.76976  0.18119  1.0000
  H   H1053     1.0  0.35651  0.74356  0.42573  1.0000
  C   C1292     1.0  0.25251  0.75222  0.21871  1.0000
  C   C1293     1.0  0.47820  0.80605  0.44425  1.0000
  C   C1294     1.0  0.28843  0.74767  0.24354  1.0000
  C   C1295     1.0  0.47223  0.74838  0.41566  1.0000
  C   C1296     1.0  0.44429  0.95836  0.96314  1.0000
  H   H1054     1.0  0.29819  0.75199  0.00234  1.0000
  H   H1055     1.0  0.46935  0.75947  0.53897  1.0000
  C   C1297     1.0  0.44406  0.75801  0.46805  1.0000
  H   H1056     1.0  0.42855  0.81788  0.71224  1.0000
  C   C1298     1.0  0.43643  0.77245  0.48427  1.0000
  H   H1057     1.0  0.37233  0.74242  0.48376  1.0000
  H   H1058     1.0  0.41791  0.83920  0.07412  1.0000
  C   C1299     1.0  0.25874  0.95464  0.84930  1.0000
  C   C1300     1.0  0.24778  0.79724  0.99202  1.0000
  C   C1301     1.0  0.25860  0.78960  0.86804  1.0000
  C   C1302     1.0  0.37800  0.75235  0.74131  1.0000
  H   H1059     1.0  0.41318  0.78416  0.50593  1.0000
  C   C1303     1.0  0.29486  0.76647  0.12340  1.0000
  C   C1304     1.0  0.45644  0.97194  0.01454  1.0000
  H   H1060     1.0  0.29556  0.75978  0.06698  1.0000
  H   H1061     1.0  0.26904  0.79806  0.87054  1.0000
  C   C1305     1.0  0.25156  0.76932  0.22884  1.0000
  H   H1062     1.0  0.44402  0.78289  0.49224  1.0000
  C   C1306     1.0  0.26020  0.79912  0.96413  1.0000
  H   H1063     1.0  0.47791  0.92262  0.40095  1.0000
  H   H1064     1.0  0.45531  0.74426  0.33156  1.0000
  H   H1065     1.0  0.45543  0.96477  0.80139  1.0000
  P   P42       1.0  0.49141  0.97418  0.02581  1.0000
  C   C1307     1.0  0.28077  0.74234  0.09990  1.0000
  C   C1308     1.0  0.42364  0.83926  0.60228  1.0000
  C   C1309     1.0  0.42979  0.82445  0.62000  1.0000
  C   C1310     1.0  0.44525  0.82444  0.63820  1.0000
  C   C1311     1.0  0.45459  0.83922  0.63873  1.0000
  C   C1312     1.0  0.44881  0.85398  0.61982  1.0000
  C   C1313     1.0  0.43304  0.85401  0.60239  1.0000
  P   P43       1.0  0.46055  0.87328  0.62022  1.0000
  C   C1314     1.0  0.44975  0.88687  0.65314  1.0000
  C   C1315     1.0  0.28535  0.98659  0.03062  1.0000
  H   H1066     1.0  0.44998  0.94645  0.50492  1.0000
  H   H1067     1.0  0.44828  0.76077  0.78392  1.0000
  H   H1068     1.0  0.45883  0.78948  0.42758  1.0000
  C   C1316     1.0  0.45117  0.95333  0.56133  1.0000
  C   C1317     1.0  0.46071  0.95370  0.95025  1.0000
  C   C1318     1.0  0.43831  0.90000  0.64188  1.0000
  C   C1319     1.0  0.43038  0.91073  0.66763  1.0000
  C   C1320     1.0  0.43361  0.90825  0.70475  1.0000
  C   C1321     1.0  0.44458  0.89488  0.71623  1.0000
  C   C1322     1.0  0.45253  0.88414  0.69056  1.0000
  C   C1323     1.0  0.46171  0.88339  0.57560  1.0000
  C   C1324     1.0  0.46649  0.90036  0.57229  1.0000
  C   C1325     1.0  0.46871  0.90807  0.53783  1.0000
  C   C1326     1.0  0.46622  0.89886  0.50641  1.0000
  C   C1327     1.0  0.46169  0.88187  0.50943  1.0000
  C   C1328     1.0  0.45958  0.87409  0.54389  1.0000
  H   H1069     1.0  0.41169  0.83918  0.58803  1.0000
  H   H1070     1.0  0.42274  0.81288  0.61908  1.0000
  H   H1071     1.0  0.45013  0.81281  0.65123  1.0000
  H   H1072     1.0  0.46637  0.83896  0.65354  1.0000
  H   H1073     1.0  0.42810  0.86539  0.58854  1.0000
  C   C1329     1.0  0.47883  0.98136  0.87550  1.0000
  H   H1074     1.0  0.48460  0.89328  0.66037  1.0000
  C   C1330     1.0  0.29036  0.95862  0.00549  1.0000
  H   H1075     1.0  0.25727  0.76698  0.06902  1.0000
  H   H1076     1.0  0.48403  0.93266  0.60211  1.0000
  H   H1077     1.0  0.43555  0.90205  0.61329  1.0000
  H   H1078     1.0  0.42181  0.92107  0.65882  1.0000
  H   H1079     1.0  0.42764  0.91672  0.72464  1.0000
  H   H1080     1.0  0.34425  0.76041  0.80126  1.0000
  H   H1081     1.0  0.32752  0.97913  0.00924  1.0000
  H   H1082     1.0  0.46893  0.90745  0.59642  1.0000
  H   H1083     1.0  0.47293  0.92099  0.53543  1.0000
  H   H1084     1.0  0.46836  0.90468  0.47965  1.0000
  H   H1085     1.0  0.46044  0.87460  0.48496  1.0000
  H   H1086     1.0  0.45683  0.86073  0.54561  1.0000
  H   H1087     1.0  0.45706  0.98592  0.91139  1.0000
  S   S187      1.0  0.43035  0.74780  0.64861  1.0000
  H   H1088     1.0  0.27532  0.98528  0.91828  1.0000
  C   C1331     1.0  0.47689  0.77631  0.46307  1.0000
  C   C1332     1.0  0.46860  0.97721  0.57350  1.0000
  H   H1089     1.0  0.28556  0.94670  0.99666  1.0000
  H   H1090     1.0  0.38220  0.83770  0.76267  1.0000
  H   H1091     1.0  0.33154  0.74895  0.25311  1.0000
  C   C1333     1.0  0.48625  0.95562  0.09065  1.0000
  C   C1334     1.0  0.27912  0.97117  0.01953  1.0000
  C   C1335     1.0  0.30782  0.96153  0.00237  1.0000
  H   H1092     1.0  0.46894  0.96871  0.48257  1.0000
  C   C1336     1.0  0.40889  0.75949  0.48454  1.0000
  H   H1093     1.0  0.47658  0.96527  0.09776  1.0000
  C   C1337     1.0  0.39755  0.87546  0.13252  1.0000
  C   C1338     1.0  0.39583  0.85850  0.14371  1.0000
  H   H1094     1.0  0.26775  0.84110  0.97171  1.0000
  H   H1095     1.0  0.39188  0.88548  0.14918  1.0000
  C   C1339     1.0  0.47024  0.79047  0.44337  1.0000
  H   H1096     1.0  0.24838  0.76628  0.13384  1.0000
  H   H1097     1.0  0.44480  0.92273  0.98342  1.0000
  C   C1340     1.0  0.37053  0.75894  0.81691  1.0000
  C   C1341     1.0  0.24946  0.82730  0.00470  1.0000
  C   C1342     1.0  0.27233  0.76250  0.00270  1.0000
  H   H1098     1.0  0.45504  0.96296  0.61500  1.0000
  H   H1099     1.0  0.34238  0.76329  0.12107  1.0000
  H   H1100     1.0  0.38882  0.85548  0.16875  1.0000
  S   S188      1.0  0.48541  0.95547  0.66094  1.0000
  H   H1101     1.0  0.46602  0.90729  0.13468  1.0000
  H   H1102     1.0  0.26555  0.96898  0.02161  1.0000
  C   C1343     1.0  0.45515  0.95507  0.52408  1.0000
  H   H1103     1.0  0.31653  0.95195  0.99080  1.0000
  C   C1344     1.0  0.49198  0.85547  0.61813  1.0000
  H   H1104     1.0  0.31029  0.74157  0.20836  1.0000
  C   C1345     1.0  0.30289  0.98965  0.02743  1.0000
  C   C1346     1.0  0.48660  0.79793  0.57561  1.0000
  C   C1347     1.0  0.41223  0.84934  0.09040  1.0000
  C   C1348     1.0  0.39471  0.83148  0.76530  1.0000
  H   H1105     1.0  0.40012  0.83253  0.70732  1.0000
  H   H1106     1.0  0.40164  0.83229  0.13113  1.0000
  C   C1349     1.0  0.31804  0.75044  0.26004  1.0000
  C   C1350     1.0  0.29067  0.75659  0.09407  1.0000
  C   C1351     1.0  0.48265  0.86960  0.63178  1.0000
  C   C1352     1.0  0.33486  0.82839  0.83258  1.0000
  C   C1353     1.0  0.33268  0.81462  0.81000  1.0000
  C   C1354     1.0  0.34693  0.80523  0.79689  1.0000
  C   C1355     1.0  0.36335  0.80971  0.80600  1.0000
  C   C1356     1.0  0.36567  0.82379  0.82803  1.0000
  C   C1357     1.0  0.35127  0.83295  0.84168  1.0000
  P   P44       1.0  0.38699  0.82928  0.83988  1.0000
  C   C1358     1.0  0.40058  0.82616  0.79979  1.0000
  C   C1359     1.0  0.38720  0.85115  0.85394  1.0000
  C   C1360     1.0  0.39311  0.86403  0.83018  1.0000
  C   C1361     1.0  0.39362  0.88079  0.84200  1.0000
  C   C1362     1.0  0.38835  0.88478  0.87758  1.0000
  C   C1363     1.0  0.38254  0.87203  0.90136  1.0000
  C   C1364     1.0  0.38181  0.85532  0.88959  1.0000
  C   C1365     1.0  0.41672  0.81788  0.80234  1.0000
  C   C1366     1.0  0.39445  0.81595  0.87743  1.0000
  C   C1367     1.0  0.38679  0.80051  0.88612  1.0000
  C   C1368     1.0  0.39277  0.79023  0.91505  1.0000
  C   C1369     1.0  0.40631  0.79534  0.93575  1.0000
  C   C1370     1.0  0.41400  0.81073  0.92736  1.0000
  C   C1371     1.0  0.40813  0.82099  0.89825  1.0000
  H   H1107     1.0  0.32381  0.83521  0.84415  1.0000
  H   H1108     1.0  0.31993  0.81085  0.80376  1.0000
  H   H1109     1.0  0.34524  0.79421  0.78035  1.0000
  H   H1110     1.0  0.37421  0.80197  0.79635  1.0000
  H   H1111     1.0  0.35253  0.84340  0.85993  1.0000
  H   H1112     1.0  0.39735  0.86127  0.80261  1.0000
  H   H1113     1.0  0.29644  0.98810  0.10202  1.0000
  H   H1114     1.0  0.38868  0.89778  0.88671  1.0000
  H   H1115     1.0  0.37845  0.87511  0.92893  1.0000
  H   H1116     1.0  0.37692  0.84568  0.90832  1.0000
  H   H1117     1.0  0.42148  0.81339  0.82842  1.0000
  H   H1118     1.0  0.37614  0.79635  0.87085  1.0000
  H   H1119     1.0  0.38675  0.77831  0.92145  1.0000
  H   H1120     1.0  0.41075  0.78739  0.95837  1.0000
  H   H1121     1.0  0.42446  0.81472  0.94350  1.0000
  H   H1122     1.0  0.41422  0.83287  0.89202  1.0000
  P   P45       1.0  0.46687  0.75613  0.46059  1.0000
  C   C1372     1.0  0.25877  0.95714  0.78336  1.0000
  C   C1373     1.0  0.40308  0.84544  0.12256  1.0000
  C   C1374     1.0  0.33709  0.75091  0.11832  1.0000
  H   H1123     1.0  0.30449  0.97296  0.92932  1.0000
  C   C1375     1.0  0.26743  0.95344  0.81565  1.0000
  C   C1376     1.0  0.45787  0.96441  0.58597  1.0000
  H   H1124     1.0  0.35068  0.75473  0.73572  1.0000
  H   H1125     1.0  0.39810  0.89073  0.82360  1.0000
  C   C1377     1.0  0.48908  0.74278  0.40740  1.0000
  C   C1378     1.0  0.40482  0.82859  0.73389  1.0000
  C   C1379     1.0  0.42556  0.90639  0.96483  1.0000
  S   S189      1.0  0.32537  0.75484  0.93469  1.0000
  C   C1380     1.0  0.47282  0.97900  0.53611  1.0000
  H   H1126     1.0  0.30288  0.77727  0.11868  1.0000
  C   C1381     1.0  0.31274  0.75578  0.29474  1.0000
  H   H1127     1.0  0.47480  0.96900  0.86749  1.0000
  C   C1382     1.0  0.46594  0.96782  0.51148  1.0000
  C   C1383     1.0  0.42084  0.82033  0.73666  1.0000
  C   C1384     1.0  0.38749  0.75625  0.80369  1.0000
  C   C1385     1.0  0.35660  0.91127  0.08528  1.0000
  C   C1386     1.0  0.35524  0.92889  0.08881  1.0000
  C   C1387     1.0  0.36999  0.93818  0.09135  1.0000
  C   C1388     1.0  0.38607  0.92987  0.09040  1.0000
  C   C1389     1.0  0.38753  0.91211  0.08842  1.0000
  C   C1390     1.0  0.37267  0.90291  0.08483  1.0000
  P   P46       1.0  0.40834  0.90144  0.08587  1.0000
  C   C1391     1.0  0.41547  0.90322  0.03872  1.0000
  C   C1392     1.0  0.42338  0.90966  0.11708  1.0000
  C   C1393     1.0  0.44076  0.90469  0.11383  1.0000
  C   C1394     1.0  0.45259  0.91085  0.13777  1.0000
  C   C1395     1.0  0.44711  0.92176  0.16555  1.0000
  C   C1396     1.0  0.42978  0.92633  0.16973  1.0000
  C   C1397     1.0  0.41791  0.92015  0.14592  1.0000
  C   C1398     1.0  0.42921  0.91337  0.02820  1.0000
  C   C1399     1.0  0.40642  0.87947  0.09987  1.0000
  C   C1400     1.0  0.41401  0.86629  0.07918  1.0000
  H   H1128     1.0  0.34526  0.90414  0.08131  1.0000
  H   H1129     1.0  0.34282  0.93540  0.08829  1.0000
  H   H1130     1.0  0.36902  0.95191  0.09295  1.0000
  H   H1131     1.0  0.39734  0.93736  0.09094  1.0000
  H   H1132     1.0  0.37341  0.88936  0.08040  1.0000
  H   H1133     1.0  0.44518  0.89614  0.09259  1.0000
  H   H1134     1.0  0.24788  0.74894  0.88700  1.0000
  H   H1135     1.0  0.45627  0.92691  0.18364  1.0000
  H   H1136     1.0  0.42565  0.93498  0.19106  1.0000
  H   H1137     1.0  0.40456  0.92368  0.15023  1.0000
  H   H1138     1.0  0.39784  0.75644  0.82263  1.0000
  H   H1139     1.0  0.43573  0.92056  0.04801  1.0000
  H   H1140     1.0  0.42131  0.86903  0.05443  1.0000
  C   C1401     1.0  0.44216  0.96732  0.99544  1.0000
  H   H1141     1.0  0.26551  0.95614  0.75727  1.0000
  H   H1142     1.0  0.39542  0.88781  0.01903  1.0000
  C   C1402     1.0  0.36107  0.75522  0.75451  1.0000
  H   H1143     1.0  0.44705  0.89296  0.74503  1.0000
  C   C1403     1.0  0.27983  0.74743  0.16507  1.0000
  C   C1404     1.0  0.29532  0.75689  0.30408  1.0000
  H   H1144     1.0  0.30156  0.98633  0.16801  1.0000
  H   H1145     1.0  0.46223  0.94654  0.92539  1.0000
  S   S190      1.0  0.38166  0.74766  0.69374  1.0000
  C   C1405     1.0  0.30274  0.98632  0.92254  1.0000
  C   C1406     1.0  0.41416  0.98394  0.11531  1.0000
  C   C1407     1.0  0.47304  0.96805  0.00087  1.0000
  C   C1408     1.0  0.24665  0.76198  0.87721  1.0000
  C   C1409     1.0  0.28319  0.75264  0.27875  1.0000
  C   C1410     1.0  0.41641  0.74502  0.46862  1.0000
  C   C1411     1.0  0.48676  0.81383  0.55712  1.0000
  H   H1146     1.0  0.26981  0.75294  0.28691  1.0000
  H   H1147     1.0  0.39541  0.75993  0.49179  1.0000
  C   C1412     1.0  0.41888  0.77320  0.49230  1.0000
  C   C1413     1.0  0.28505  0.75002  0.99532  1.0000
  P   P47       1.0  0.27303  0.74159  0.21092  1.0000
  C   C1414     1.0  0.48956  0.94216  0.11534  1.0000
  C   C1415     1.0  0.24427  0.77067  0.07641  1.0000
  C   C1416     1.0  0.49115  0.88167  0.65155  1.0000
  C   C1417     1.0  0.31405  0.97701  0.01304  1.0000
  H   H1148     1.0  0.48764  0.95435  0.95922  1.0000
  H   H1149     1.0  0.47390  0.98541  0.59336  1.0000
  C   C1418     1.0  0.47353  0.74661  0.53236  1.0000
  H   H1150     1.0  0.44729  0.75420  0.39301  1.0000
  S   S191      1.0  0.49040  0.97089  0.76506  1.0000
  Fe  Fe97      1.0  0.49163  0.97445  0.70383  1.0000
  C   C1419     1.0  0.46472  0.74374  0.35280  1.0000
  H   H1151     1.0  0.26874  0.75098  0.50720  1.0000
  H   H1152     1.0  0.48600  0.84651  0.60096  1.0000
  H   H1153     1.0  0.34043  0.74385  0.17544  1.0000
  C   C1420     1.0  0.49059  0.92415  0.38930  1.0000
  C   C1421     1.0  0.42871  0.98986  0.85314  1.0000
  C   C1422     1.0  0.26336  0.74226  0.52731  1.0000
  H   H1154     1.0  0.24533  0.83825  0.02041  1.0000
  C   C1423     1.0  0.24326  0.79547  0.85161  1.0000
  C   C1424     1.0  0.30917  0.74056  0.39840  1.0000
  C   C1425     1.0  0.49197  0.77780  0.48250  1.0000
  H   H1155     1.0  0.48658  0.98867  0.38629  1.0000
  H   H1156     1.0  0.52247  0.06092  0.33842  1.0000
  H   H1157     1.0  0.68064  0.00094  0.89916  1.0000
  C   C1426     1.0  0.53923  0.99850  0.12792  1.0000
  Fe  Fe98      1.0  0.60770  0.05706  0.98246  1.0000
  S   S192      1.0  0.61715  0.03282  0.01144  1.0000
  S   S193      1.0  0.61281  0.08415  0.00105  1.0000
  Fe  Fe99      1.0  0.58807  0.03708  0.92755  1.0000
  S   S194      1.0  0.59639  0.01176  0.95141  1.0000
  S   S195      1.0  0.57137  0.04198  0.87840  1.0000
  Fe  Fe100     1.0  0.59019  0.02370  0.00618  1.0000
  S   S196      1.0  0.57480  0.00650  0.04583  1.0000
  Fe  Fe101     1.0  0.62257  0.02243  0.95503  1.0000
  C   C1427     1.0  0.52231  0.01265  0.59108  1.0000
  S   S197      1.0  0.58046  0.04852  0.98141  1.0000
  S   S198      1.0  0.61446  0.04723  0.92699  1.0000
  H   H1158     1.0  0.64797  0.05034  0.04597  1.0000
  H   H1159     1.0  0.54148  0.04115  0.13638  1.0000
  H   H1160     1.0  0.50611  0.05799  0.60962  1.0000
  Fe  Fe102     1.0  0.64631  0.20914  0.91440  1.0000
  S   S199      1.0  0.66633  0.18946  0.89861  1.0000
  S   S200      1.0  0.62612  0.22146  0.87566  1.0000
  Fe  Fe103     1.0  0.65765  0.20782  0.99669  1.0000
  S   S201      1.0  0.67788  0.18708  0.98486  1.0000
  S   S202      1.0  0.64997  0.22031  0.05258  1.0000
  Fe  Fe104     1.0  0.68441  0.20264  0.93419  1.0000
  S   S203      1.0  0.71140  0.21111  0.91767  1.0000
  Fe  Fe105     1.0  0.65824  0.17503  0.94991  1.0000
  S   S204      1.0  0.65520  0.14684  0.93602  1.0000
  S   S205      1.0  0.66484  0.22374  0.94698  1.0000
  S   S206      1.0  0.63761  0.19453  0.96483  1.0000
  Fe  Fe106     1.0  0.55454  0.22159  0.61656  1.0000
  S   S207      1.0  0.53248  0.20265  0.61604  1.0000
  Fe  Fe107     1.0  0.58413  0.23142  0.66634  1.0000
  S   S208      1.0  0.60343  0.21917  0.70761  1.0000
  S   S209      1.0  0.55533  0.23440  0.67125  1.0000
  S   S210      1.0  0.58338  0.21749  0.61292  1.0000
  H   H1161     1.0  0.53235  0.03379  0.36671  1.0000
  H   H1162     1.0  0.56213  0.03728  0.08421  1.0000
  C   C1428     1.0  0.52599  0.09407  0.52881  1.0000
  H   H1163     1.0  0.58719  0.99474  0.79952  1.0000
  H   H1164     1.0  0.51350  0.02436  0.03307  1.0000
  H   H1165     1.0  0.54786  0.12060  0.31385  1.0000
  H   H1166     1.0  0.52492  0.08376  0.12810  1.0000
  H   H1167     1.0  0.53277  0.07570  0.84274  1.0000
  C   C1429     1.0  0.62000  0.22024  0.82889  1.0000
  C   C1430     1.0  0.62860  0.20968  0.80362  1.0000
  C   C1431     1.0  0.62341  0.20962  0.76682  1.0000
  C   C1432     1.0  0.60952  0.22003  0.75454  1.0000
  H   H1168     1.0  0.64965  0.08049  0.02618  1.0000
  H   H1169     1.0  0.59929  0.23879  0.83573  1.0000
  H   H1170     1.0  0.63927  0.20161  0.81241  1.0000
  H   H1171     1.0  0.63014  0.20136  0.74774  1.0000
  H   H1172     1.0  0.50282  0.13262  0.69995  1.0000
  C   C1433     1.0  0.73152  0.18461  0.88754  1.0000
  C   C1434     1.0  0.72973  0.20198  0.89449  1.0000
  H   H1173     1.0  0.73061  0.12789  0.86558  1.0000
  H   H1174     1.0  0.72168  0.17622  0.89696  1.0000
  C   C1435     1.0  0.49643  0.07019  0.25276  1.0000
  C   C1436     1.0  0.52766  0.18334  0.55368  1.0000
  C   C1437     1.0  0.52176  0.18789  0.58862  1.0000
  C   C1438     1.0  0.50693  0.18022  0.60290  1.0000
  C   C1439     1.0  0.51753  0.02586  0.00468  1.0000
  H   H1175     1.0  0.53900  0.18901  0.54214  1.0000
  C   C1440     1.0  0.49829  0.16811  0.58293  1.0000
  C   C1441     1.0  0.68795  0.22346  0.80706  1.0000
  C   C1442     1.0  0.52761  0.08570  0.59269  1.0000
  C   C1443     1.0  0.50544  0.02883  0.97756  1.0000
  C   C1444     1.0  0.56098  0.02502  0.85877  1.0000
  C   C1445     1.0  0.56284  0.00836  0.87254  1.0000
  C   C1446     1.0  0.73342  0.04777  0.90679  1.0000
  H   H1176     1.0  0.52740  0.09101  0.50019  1.0000
  C   C1447     1.0  0.54219  0.01520  0.81211  1.0000
  C   C1448     1.0  0.55057  0.02839  0.82863  1.0000
  C   C1449     1.0  0.62178  0.01762  0.85142  1.0000
  C   C1450     1.0  0.71441  0.02601  0.88936  1.0000
  S   S211      1.0  0.50334  0.00053  0.27703  1.0000
  C   C1451     1.0  0.62380  0.10180  0.98127  1.0000
  C   C1452     1.0  0.62480  0.11674  0.00143  1.0000
  C   C1453     1.0  0.63391  0.13079  0.98773  1.0000
  C   C1454     1.0  0.64236  0.13006  0.95366  1.0000
  C   C1455     1.0  0.64110  0.11525  0.93316  1.0000
  C   C1456     1.0  0.63181  0.10128  0.94671  1.0000
  H   H1177     1.0  0.61863  0.11739  0.02813  1.0000
  H   H1178     1.0  0.63473  0.14202  0.00394  1.0000
  H   H1179     1.0  0.64739  0.11454  0.90663  1.0000
  H   H1180     1.0  0.63097  0.09005  0.93064  1.0000
  C   C1457     1.0  0.70471  0.15791  0.77882  1.0000
  C   C1458     1.0  0.68653  0.23042  0.36953  1.0000
  H   H1181     1.0  0.58218  0.99048  0.48789  1.0000
  H   H1182     1.0  0.50004  0.10757  0.36540  1.0000
  C   C1459     1.0  0.55958  0.01022  0.08245  1.0000
  H   H1183     1.0  0.61004  0.23632  0.94447  1.0000
  C   C1460     1.0  0.50983  0.10552  0.34428  1.0000
  C   C1461     1.0  0.49508  0.10425  0.66144  1.0000
  C   C1462     1.0  0.73517  0.20554  0.77532  1.0000
  H   H1184     1.0  0.54294  0.00996  0.32793  1.0000
  C   C1463     1.0  0.51081  0.01163  0.56272  1.0000
  H   H1185     1.0  0.52374  0.16795  0.50669  1.0000
  C   C1464     1.0  0.52226  0.07942  0.18625  1.0000
  H   H1186     1.0  0.73272  0.00191  0.96589  1.0000
  Fe  Fe108     1.0  0.49822  0.01207  0.70695  1.0000
  H   H1187     1.0  0.53409  0.06911  0.54810  1.0000
  H   H1188     1.0  0.53201  0.05177  0.71232  1.0000
  C   C1465     1.0  0.51588  0.06445  0.80536  1.0000
  H   H1189     1.0  0.49598  0.06486  0.36958  1.0000
  C   C1466     1.0  0.52154  0.10196  0.60297  1.0000
  H   H1190     1.0  0.74187  0.22604  0.88855  1.0000
  P   P48       1.0  0.51751  0.10678  0.65060  1.0000
  C   C1467     1.0  0.53045  0.09271  0.67942  1.0000
  C   C1468     1.0  0.52261  0.12858  0.65833  1.0000
  C   C1469     1.0  0.51324  0.13813  0.68439  1.0000
  C   C1470     1.0  0.51713  0.15504  0.69023  1.0000
  C   C1471     1.0  0.53039  0.16250  0.67017  1.0000
  C   C1472     1.0  0.53981  0.15307  0.64432  1.0000
  C   C1473     1.0  0.53605  0.13613  0.63858  1.0000
  C   C1474     1.0  0.52595  0.07575  0.68539  1.0000
  H   H1191     1.0  0.66718  0.19658  0.75171  1.0000
  H   H1192     1.0  0.52673  0.02490  0.59881  1.0000
  C   C1475     1.0  0.73094  0.03129  0.89514  1.0000
  C   C1476     1.0  0.54494  0.09855  0.69640  1.0000
  H   H1193     1.0  0.71246  0.01322  0.88036  1.0000
  H   H1194     1.0  0.52065  0.07147  0.78172  1.0000
  C   C1477     1.0  0.53883  0.02200  0.31549  1.0000
  C   C1478     1.0  0.70241  0.15397  0.81597  1.0000
  H   H1195     1.0  0.51484  0.07093  0.67262  1.0000
  H   H1196     1.0  0.70953  0.22509  0.84247  1.0000
  H   H1197     1.0  0.60957  0.04066  0.83046  1.0000
  H   H1198     1.0  0.49648  0.01330  0.12823  1.0000
  C   C1479     1.0  0.52413  0.11561  0.34232  1.0000
  H   H1199     1.0  0.70833  0.11702  0.97454  1.0000
  H   H1200     1.0  0.50965  0.16248  0.70978  1.0000
  C   C1480     1.0  0.69802  0.18392  0.82843  1.0000
  H   H1201     1.0  0.68306  0.22748  0.08660  1.0000
  H   H1202     1.0  0.53312  0.17574  0.67390  1.0000
  H   H1203     1.0  0.54977  0.15909  0.62814  1.0000
  H   H1204     1.0  0.54349  0.12905  0.61836  1.0000
  H   H1205     1.0  0.58794  0.02572  0.79668  1.0000
  H   H1206     1.0  0.55745  0.06228  0.74265  1.0000
  C   C1481     1.0  0.64287  0.23795  0.11694  1.0000
  C   C1482     1.0  0.68755  0.21965  0.66766  1.0000
  H   H1207     1.0  0.54881  0.11151  0.69222  1.0000
  H   H1208     1.0  0.71278  0.22357  0.38077  1.0000
  C   C1483     1.0  0.52265  0.06687  0.83970  1.0000
  C   C1484     1.0  0.62136  0.99990  0.85364  1.0000
  P   P49       1.0  0.69939  0.20980  0.77494  1.0000
  H   H1209     1.0  0.69592  0.19383  0.84821  1.0000
  C   C1485     1.0  0.66573  0.06271  0.81219  1.0000
  C   C1486     1.0  0.64809  0.06229  0.81860  1.0000
  C   C1487     1.0  0.64141  0.06351  0.85418  1.0000
  C   C1488     1.0  0.65234  0.06498  0.88345  1.0000
  C   C1489     1.0  0.67007  0.06531  0.87727  1.0000
  C   C1490     1.0  0.67669  0.06432  0.84138  1.0000
  P   P50       1.0  0.68429  0.06802  0.91454  1.0000
  C   C1491     1.0  0.67339  0.06234  0.95700  1.0000
  C   C1492     1.0  0.70269  0.05374  0.90735  1.0000
  C   C1493     1.0  0.70037  0.03719  0.89521  1.0000
  H   H1210     1.0  0.51714  0.11982  0.51776  1.0000
  C   C1494     1.0  0.53522  0.09972  0.29041  1.0000
  H   H1211     1.0  0.61514  0.23546  0.01120  1.0000
  C   C1495     1.0  0.71938  0.05898  0.91281  1.0000
  C   C1496     1.0  0.67214  0.04524  0.96821  1.0000
  C   C1497     1.0  0.66312  0.04095  0.00031  1.0000
  S   S212      1.0  0.50517  0.03463  0.67066  1.0000
  C   C1498     1.0  0.65627  0.07067  0.01040  1.0000
  C   C1499     1.0  0.66517  0.07501  0.97822  1.0000
  C   C1500     1.0  0.68998  0.09005  0.91671  1.0000
  C   C1501     1.0  0.68388  0.10216  0.89091  1.0000
  C   C1502     1.0  0.68667  0.11943  0.89525  1.0000
  C   C1503     1.0  0.69561  0.12476  0.92518  1.0000
  C   C1504     1.0  0.70188  0.11281  0.95073  1.0000
  C   C1505     1.0  0.69900  0.09554  0.94667  1.0000
  H   H1212     1.0  0.67092  0.06178  0.78459  1.0000
  H   H1213     1.0  0.63958  0.06099  0.79603  1.0000
  C   C1506     1.0  0.60609  0.23055  0.81664  1.0000
  H   H1214     1.0  0.64694  0.06573  0.91087  1.0000
  H   H1215     1.0  0.69033  0.06476  0.83600  1.0000
  H   H1216     1.0  0.68764  0.03288  0.89037  1.0000
  H   H1217     1.0  0.70336  0.14087  0.82563  1.0000
  H   H1218     1.0  0.70847  0.22448  0.70195  1.0000
  H   H1219     1.0  0.50213  0.18361  0.62978  1.0000
  H   H1220     1.0  0.72168  0.07167  0.92156  1.0000
  H   H1221     1.0  0.67764  0.03506  0.95198  1.0000
  H   H1222     1.0  0.66180  0.02769  0.00813  1.0000
  H   H1223     1.0  0.65189  0.19867  0.69352  1.0000
  H   H1224     1.0  0.66520  0.08827  0.96975  1.0000
  H   H1225     1.0  0.67629  0.09850  0.86836  1.0000
  H   H1226     1.0  0.68107  0.12883  0.87659  1.0000
  H   H1227     1.0  0.69700  0.13822  0.92939  1.0000
  H   H1228     1.0  0.69729  0.16398  0.86956  1.0000
  H   H1229     1.0  0.70319  0.08653  0.96770  1.0000
  C   C1507     1.0  0.53491  0.02476  0.99522  1.0000
  H   H1230     1.0  0.54429  0.02256  0.01617  1.0000
  H   H1231     1.0  0.55366  0.02492  0.95119  1.0000
  C   C1508     1.0  0.53567  0.06484  0.70801  1.0000
  H   H1232     1.0  0.54521  0.09769  0.26995  1.0000
  C   C1509     1.0  0.68755  0.23897  0.86371  1.0000
  C   C1510     1.0  0.49863  0.00419  0.86931  1.0000
  P   P51       1.0  0.49511  0.03473  0.90588  1.0000
  Fe  Fe109     1.0  0.50334  0.00151  0.21511  1.0000
  C   C1511     1.0  0.64099  0.16312  0.77066  1.0000
  C   C1512     1.0  0.65521  0.16352  0.79280  1.0000
  C   C1513     1.0  0.65311  0.16236  0.83072  1.0000
  C   C1514     1.0  0.63679  0.16132  0.84664  1.0000
  C   C1515     1.0  0.62242  0.16105  0.82468  1.0000
  C   C1516     1.0  0.62467  0.16156  0.78648  1.0000
  P   P52       1.0  0.60161  0.15792  0.84549  1.0000
  C   C1517     1.0  0.59959  0.13563  0.85743  1.0000
  C   C1518     1.0  0.59992  0.16974  0.88731  1.0000
  C   C1519     1.0  0.59409  0.18683  0.88717  1.0000
  C   C1520     1.0  0.59239  0.19563  0.91984  1.0000
  C   C1521     1.0  0.59643  0.18746  0.95292  1.0000
  C   C1522     1.0  0.60265  0.17060  0.95326  1.0000
  C   C1523     1.0  0.60460  0.16184  0.92062  1.0000
  C   C1524     1.0  0.61191  0.12342  0.84551  1.0000
  C   C1525     1.0  0.61112  0.10650  0.85785  1.0000
  C   C1526     1.0  0.59805  0.10163  0.88211  1.0000
  C   C1527     1.0  0.58565  0.11365  0.89379  1.0000
  C   C1528     1.0  0.58637  0.13057  0.88147  1.0000
  C   C1529     1.0  0.58538  0.16556  0.81410  1.0000
  C   C1530     1.0  0.58725  0.18114  0.79518  1.0000
  C   C1531     1.0  0.57533  0.18679  0.76942  1.0000
  C   C1532     1.0  0.56135  0.17698  0.76240  1.0000
  C   C1533     1.0  0.55928  0.16151  0.78120  1.0000
  C   C1534     1.0  0.57126  0.15578  0.80691  1.0000
  H   H1233     1.0  0.64257  0.16393  0.74122  1.0000
  H   H1234     1.0  0.66785  0.16463  0.78063  1.0000
  H   H1235     1.0  0.66407  0.16226  0.84805  1.0000
  H   H1236     1.0  0.63544  0.16055  0.87611  1.0000
  H   H1237     1.0  0.61389  0.16079  0.76876  1.0000
  H   H1238     1.0  0.59109  0.19360  0.86206  1.0000
  H   H1239     1.0  0.58830  0.20893  0.91933  1.0000
  H   H1240     1.0  0.69974  0.23057  0.01582  1.0000
  H   H1241     1.0  0.60642  0.16443  0.97873  1.0000
  H   H1242     1.0  0.60997  0.14896  0.92158  1.0000
  H   H1243     1.0  0.62239  0.12695  0.82748  1.0000
  H   H1244     1.0  0.62090  0.09725  0.84936  1.0000
  H   H1245     1.0  0.59767  0.08862  0.89245  1.0000
  H   H1246     1.0  0.57574  0.10990  0.91318  1.0000
  H   H1247     1.0  0.57695  0.13983  0.89163  1.0000
  H   H1248     1.0  0.59810  0.18885  0.79988  1.0000
  H   H1249     1.0  0.57708  0.19874  0.75463  1.0000
  H   H1250     1.0  0.55219  0.18137  0.74224  1.0000
  H   H1251     1.0  0.54845  0.15391  0.77564  1.0000
  H   H1252     1.0  0.56950  0.14368  0.82074  1.0000
  S   S213      1.0  0.49391  0.14835  0.52097  1.0000
  C   C1535     1.0  0.67284  0.23277  0.10367  1.0000
  C   C1536     1.0  0.50423  0.16355  0.54799  1.0000
  C   C1537     1.0  0.53153  0.08097  0.15327  1.0000
  C   C1538     1.0  0.51302  0.23170  0.68758  1.0000
  C   C1539     1.0  0.54424  0.99850  0.82554  1.0000
  C   C1540     1.0  0.51776  0.11423  0.57557  1.0000
  C   C1541     1.0  0.69618  0.21875  0.70069  1.0000
  H   H1253     1.0  0.63121  0.02413  0.86647  1.0000
  H   H1254     1.0  0.55644  0.07947  0.12691  1.0000
  H   H1255     1.0  0.73767  0.13415  0.92932  1.0000
  P   P53       1.0  0.51888  0.07216  0.26130  1.0000
  H   H1256     1.0  0.52170  0.06009  0.89667  1.0000
  C   C1542     1.0  0.51070  0.03086  0.94086  1.0000
  C   C1543     1.0  0.54861  0.07306  0.21790  1.0000
  H   H1257     1.0  0.73353  0.19224  0.78195  1.0000
  C   C1544     1.0  0.52719  0.05280  0.28289  1.0000
  C   C1545     1.0  0.52712  0.05078  0.32106  1.0000
  C   C1546     1.0  0.53283  0.03540  0.33727  1.0000
  C   C1547     1.0  0.67161  0.21242  0.66509  1.0000
  C   C1548     1.0  0.53919  0.02402  0.27751  1.0000
  C   C1549     1.0  0.53332  0.03930  0.26129  1.0000
  S   S214      1.0  0.49762  0.01196  0.76825  1.0000
  S   S215      1.0  0.64845  0.01152  0.93230  1.0000
  C   C1550     1.0  0.53074  0.07548  0.21888  1.0000
  C   C1551     1.0  0.55783  0.07460  0.18488  1.0000
  C   C1552     1.0  0.54930  0.07854  0.15257  1.0000
  H   H1258     1.0  0.54906  0.04123  0.81784  1.0000
  C   C1553     1.0  0.54019  0.02616  0.95862  1.0000
  C   C1554     1.0  0.60976  0.02691  0.83087  1.0000
  C   C1555     1.0  0.70157  0.23111  0.38909  1.0000
  H   H1259     1.0  0.50675  0.02324  0.54855  1.0000
  H   H1260     1.0  0.70755  0.14787  0.75964  1.0000
  C   C1556     1.0  0.52016  0.11032  0.53873  1.0000
  H   H1261     1.0  0.53587  0.99897  0.63355  1.0000
  C   C1557     1.0  0.50385  0.04581  0.86639  1.0000
  C   C1558     1.0  0.60088  0.23046  0.77991  1.0000
  C   C1559     1.0  0.72396  0.23421  0.76376  1.0000
  H   H1262     1.0  0.52043  0.21979  0.68755  1.0000
  H   H1263     1.0  0.59295  0.23885  0.47197  1.0000
  H   H1264     1.0  0.53055  0.07591  0.61290  1.0000
  C   C1560     1.0  0.52740  0.99802  0.61083  1.0000
  C   C1561     1.0  0.70349  0.17484  0.76641  1.0000
  H   H1265     1.0  0.69317  0.22607  0.64407  1.0000
  H   H1266     1.0  0.59535  0.19437  0.97815  1.0000
  C   C1562     1.0  0.52090  0.08950  0.29224  1.0000
  C   C1563     1.0  0.52973  0.08177  0.55579  1.0000
  C   C1564     1.0  0.54404  0.02859  0.12576  1.0000
  H   H1267     1.0  0.52539  0.12561  0.36181  1.0000
  C   C1565     1.0  0.54998  0.07077  0.72500  1.0000
  C   C1566     1.0  0.53574  0.01465  0.14212  1.0000
  C   C1567     1.0  0.51649  0.05779  0.87022  1.0000
  C   C1568     1.0  0.53678  0.11275  0.31533  1.0000
  C   C1569     1.0  0.65527  0.05367  0.02150  1.0000
  H   H1268     1.0  0.53436  0.01793  0.78864  1.0000
  C   C1570     1.0  0.65583  0.23096  0.09365  1.0000
  C   C1571     1.0  0.69632  0.22894  0.83785  1.0000
  C   C1572     1.0  0.67306  0.20294  0.72833  1.0000
  H   H1269     1.0  0.51279  0.12682  0.58244  1.0000
  H   H1270     1.0  0.66480  0.21335  0.63967  1.0000
  H   H1271     1.0  0.54349  0.01356  0.26040  1.0000
  H   H1272     1.0  0.50414  0.22845  0.63354  1.0000
  H   H1273     1.0  0.53243  0.02952  0.90326  1.0000
  H   H1274     1.0  0.56576  0.09218  0.73226  1.0000
  H   H1275     1.0  0.53331  0.04044  0.23181  1.0000
  C   C1573     1.0  0.70005  0.18796  0.79115  1.0000
  C   C1574     1.0  0.52812  0.02891  0.93149  1.0000
  H   H1276     1.0  0.62773  0.06325  0.85919  1.0000
  C   C1575     1.0  0.50369  0.23667  0.65690  1.0000
  H   H1277     1.0  0.68602  0.22234  0.34606  1.0000
  H   H1278     1.0  0.70554  0.17772  0.73761  1.0000
  H   H1279     1.0  0.55539  0.06961  0.24256  1.0000
  C   C1576     1.0  0.59711  0.00074  0.81383  1.0000
  S   S216      1.0  0.52147  0.01823  0.18041  1.0000
  H   H1280     1.0  0.57158  0.07245  0.18420  1.0000
  C   C1577     1.0  0.50284  0.05305  0.80157  1.0000
  C   C1578     1.0  0.69904  0.16697  0.84070  1.0000
  H   H1281     1.0  0.51018  0.00914  0.85696  1.0000
  C   C1579     1.0  0.51896  0.17131  0.53362  1.0000
  C   C1580     1.0  0.50817  0.09261  0.31923  1.0000
  C   C1581     1.0  0.55463  0.08761  0.71916  1.0000
  C   C1582     1.0  0.55579  0.02643  0.09609  1.0000
  C   C1583     1.0  0.49442  0.99635  0.08349  1.0000
  H   H1282     1.0  0.66380  0.22485  0.77883  1.0000
  C   C1584     1.0  0.66438  0.20406  0.69541  1.0000
  C   C1585     1.0  0.59755  0.01847  0.81183  1.0000
  C   C1586     1.0  0.68891  0.21052  0.73143  1.0000
  H   H1283     1.0  0.62966  0.23675  0.10992  1.0000
  C   C1587     1.0  0.72108  0.21692  0.77063  1.0000
  C   C1588     1.0  0.67075  0.22861  0.80214  1.0000
  C   C1589     1.0  0.49299  0.05748  0.61908  1.0000
  H   H1284     1.0  0.57083  0.00560  0.89569  1.0000
  C   C1590     1.0  0.66208  0.23874  0.82797  1.0000
  H   H1285     1.0  0.49747  0.05125  0.77498  1.0000
  C   C1591     1.0  0.49672  0.04387  0.83203  1.0000
  H   H1286     1.0  0.63978  0.23304  0.52369  1.0000
  C   C1592     1.0  0.50416  0.99592  0.55409  1.0000
  C   C1593     1.0  0.74064  0.23994  0.76067  1.0000
  C   C1594     1.0  0.55109  0.99632  0.09847  1.0000
  H   H1287     1.0  0.59018  0.23852  0.77122  1.0000
  H   H1288     1.0  0.49895  0.09316  0.71560  1.0000
  H   H1289     1.0  0.52073  0.23856  0.74112  1.0000
  H   H1290     1.0  0.49696  0.08498  0.32121  1.0000
  H   H1291     1.0  0.50849  0.08097  0.18590  1.0000
  H   H1292     1.0  0.74181  0.02260  0.89052  1.0000
  C   C1595     1.0  0.60894  0.99126  0.83503  1.0000
  C   C1596     1.0  0.55449  0.99515  0.85597  1.0000
  H   H1293     1.0  0.63063  0.99303  0.87043  1.0000
  C   C1597     1.0  0.65909  0.99104  0.92932  1.0000
  H   H1294     1.0  0.49678  0.04261  0.25649  1.0000
  H   H1295     1.0  0.55165  0.23944  0.43633  1.0000
  H   H1296     1.0  0.71836  0.23972  0.96390  1.0000
  H   H1297     1.0  0.66049  0.23993  0.36468  1.0000
  C   C1598     1.0  0.52708  0.48720  0.64719  1.0000
  S   S217      1.0  0.58628  0.25698  0.63746  1.0000
  Fe  Fe110     1.0  0.55739  0.25902  0.63882  1.0000
  S   S218      1.0  0.54184  0.28459  0.63870  1.0000
  C   C1599     1.0  0.73956  0.30476  0.36022  1.0000
  H   H1298     1.0  0.51354  0.43191  0.54601  1.0000
  Fe  Fe111     1.0  0.64646  0.27772  0.33132  1.0000
  S   S219      1.0  0.65645  0.30381  0.33977  1.0000
  S   S220      1.0  0.62875  0.26301  0.37203  1.0000
  Fe  Fe112     1.0  0.66237  0.27534  0.25182  1.0000
  S   S221      1.0  0.67350  0.30131  0.25673  1.0000
  H   H1299     1.0  0.55073  0.47145  0.04338  1.0000
  Fe  Fe113     1.0  0.68117  0.29336  0.31389  1.0000
  S   S222      1.0  0.70725  0.30233  0.33268  1.0000
  Fe  Fe114     1.0  0.64836  0.31026  0.28237  1.0000
  S   S223      1.0  0.63381  0.33467  0.26189  1.0000
  S   S224      1.0  0.67165  0.26691  0.30796  1.0000
  S   S225      1.0  0.63669  0.28467  0.27479  1.0000
  Fe  Fe115     1.0  0.58939  0.46907  0.28249  1.0000
  C   C1600     1.0  0.66734  0.25574  0.57158  1.0000
  H   H1300     1.0  0.69794  0.47591  0.47970  1.0000
  Fe  Fe116     1.0  0.61443  0.43881  0.26880  1.0000
  S   S226      1.0  0.62636  0.45245  0.22026  1.0000
  S   S227      1.0  0.62620  0.41453  0.29643  1.0000
  Fe  Fe117     1.0  0.62614  0.47572  0.25538  1.0000
  C   C1601     1.0  0.50946  0.43808  0.76835  1.0000
  Fe  Fe118     1.0  0.59930  0.46056  0.20461  1.0000
  S   S228      1.0  0.59026  0.46107  0.14520  1.0000
  S   S229      1.0  0.61533  0.46191  0.30452  1.0000
  S   S230      1.0  0.58743  0.44514  0.25065  1.0000
  H   H1301     1.0  0.51305  0.30672  0.62134  1.0000
  C   C1602     1.0  0.51860  0.46440  0.30802  1.0000
  C   C1603     1.0  0.51676  0.42200  0.07254  1.0000
  C   C1604     1.0  0.62151  0.24460  0.99355  1.0000
  C   C1605     1.0  0.60299  0.24755  0.46545  1.0000
  H   H1302     1.0  0.71486  0.29022  0.45564  1.0000
  C   C1606     1.0  0.55920  0.47923  0.35456  1.0000
  C   C1607     1.0  0.56709  0.46709  0.37755  1.0000
  C   C1608     1.0  0.56164  0.46555  0.41429  1.0000
  C   C1609     1.0  0.54824  0.47604  0.42816  1.0000
  H   H1303     1.0  0.64484  0.24189  0.58665  1.0000
  H   H1304     1.0  0.68468  0.46712  0.30579  1.0000
  H   H1305     1.0  0.57739  0.45894  0.36702  1.0000
  H   H1306     1.0  0.56777  0.45620  0.43208  1.0000
  H   H1307     1.0  0.71253  0.40153  0.26807  1.0000
  C   C1610     1.0  0.69431  0.44188  0.40584  1.0000
  C   C1611     1.0  0.57000  0.46753  0.12666  1.0000
  C   C1612     1.0  0.55597  0.47273  0.14863  1.0000
  C   C1613     1.0  0.51710  0.38744  0.14243  1.0000
  C   C1614     1.0  0.53808  0.47711  0.09465  1.0000
  C   C1615     1.0  0.55206  0.47185  0.07265  1.0000
  C   C1616     1.0  0.56788  0.46715  0.08856  1.0000
  H   H1308     1.0  0.63655  0.25179  0.16643  1.0000
  H   H1309     1.0  0.73710  0.29636  0.27474  1.0000
  C   C1617     1.0  0.51323  0.30550  0.65076  1.0000
  H   H1310     1.0  0.69321  0.43232  0.38532  1.0000
  C   C1618     1.0  0.63199  0.35684  0.27221  1.0000
  C   C1619     1.0  0.64025  0.36382  0.30153  1.0000
  C   C1620     1.0  0.63818  0.38140  0.30860  1.0000
  C   C1621     1.0  0.62797  0.39234  0.28641  1.0000
  C   C1622     1.0  0.61976  0.38538  0.25704  1.0000
  C   C1623     1.0  0.62175  0.36779  0.25012  1.0000
  H   H1311     1.0  0.64820  0.35567  0.31876  1.0000
  H   H1312     1.0  0.64468  0.38657  0.33128  1.0000
  H   H1313     1.0  0.61189  0.39352  0.23962  1.0000
  H   H1314     1.0  0.61529  0.36261  0.22737  1.0000
  C   C1624     1.0  0.50636  0.47514  0.32549  1.0000
  C   C1625     1.0  0.72682  0.27765  0.37146  1.0000
  C   C1626     1.0  0.72561  0.29418  0.35656  1.0000
  C   C1627     1.0  0.61001  0.45133  0.40314  1.0000
  C   C1628     1.0  0.61872  0.24503  0.95603  1.0000
  H   H1315     1.0  0.71634  0.26926  0.36866  1.0000
  H   H1316     1.0  0.55801  0.31945  0.64277  1.0000
  C   C1629     1.0  0.52560  0.29450  0.66705  1.0000
  C   C1630     1.0  0.52574  0.29317  0.70518  1.0000
  C   C1631     1.0  0.51391  0.30293  0.72657  1.0000
  H   H1317     1.0  0.53527  0.28499  0.71827  1.0000
  H   H1318     1.0  0.59841  0.47823  0.48817  1.0000
  C   C1632     1.0  0.62206  0.26080  0.41924  1.0000
  C   C1633     1.0  0.62932  0.26972  0.44731  1.0000
  C   C1634     1.0  0.62357  0.26740  0.48403  1.0000
  C   C1635     1.0  0.61030  0.25635  0.49354  1.0000
  C   C1636     1.0  0.70681  0.45403  0.40188  1.0000
  H   H1319     1.0  0.63931  0.27845  0.44068  1.0000
  H   H1320     1.0  0.70525  0.37282  0.24981  1.0000
  H   H1321     1.0  0.71826  0.27203  0.28214  1.0000
  C   C1637     1.0  0.50233  0.47210  0.36262  1.0000
  C   C1638     1.0  0.51309  0.28593  0.52887  1.0000
  H   H1322     1.0  0.66494  0.45680  0.24598  1.0000
  H   H1323     1.0  0.49657  0.38147  0.56628  1.0000
  H   H1324     1.0  0.68840  0.26936  0.54845  1.0000
  C   C1639     1.0  0.50848  0.44061  0.14032  1.0000
  C   C1640     1.0  0.68889  0.46517  0.16966  1.0000
  C   C1641     1.0  0.52733  0.45155  0.32785  1.0000
  H   H1325     1.0  0.55472  0.26308  0.39095  1.0000
  C   C1642     1.0  0.67607  0.44134  0.31027  1.0000
  C   C1643     1.0  0.68851  0.27232  0.96186  1.0000
  C   C1644     1.0  0.67829  0.26752  0.99214  1.0000
  H   H1326     1.0  0.52434  0.44798  0.06582  1.0000
  P   P54       1.0  0.65869  0.27915  0.00356  1.0000
  C   C1645     1.0  0.64214  0.26673  0.98550  1.0000
  C   C1646     1.0  0.65621  0.28194  0.05217  1.0000
  C   C1647     1.0  0.64006  0.28639  0.06734  1.0000
  C   C1648     1.0  0.63811  0.28928  0.10477  1.0000
  C   C1649     1.0  0.65231  0.28803  0.12715  1.0000
  C   C1650     1.0  0.66846  0.28394  0.11212  1.0000
  C   C1651     1.0  0.67045  0.28094  0.07477  1.0000
  C   C1652     1.0  0.63949  0.26690  0.94774  1.0000
  C   C1653     1.0  0.51094  0.45912  0.38224  1.0000
  C   C1654     1.0  0.51374  0.44712  0.17346  1.0000
  H   H1327     1.0  0.70923  0.41171  0.33093  1.0000
  H   H1328     1.0  0.73866  0.44740  0.43115  1.0000
  C   C1655     1.0  0.65840  0.30049  0.98459  1.0000
  C   C1656     1.0  0.64357  0.30771  0.96889  1.0000
  C   C1657     1.0  0.64331  0.32450  0.95552  1.0000
  C   C1658     1.0  0.65773  0.33427  0.95831  1.0000
  C   C1659     1.0  0.67239  0.32729  0.97473  1.0000
  C   C1660     1.0  0.67269  0.31050  0.98809  1.0000
  H   H1329     1.0  0.66942  0.25978  0.59912  1.0000
  C   C1661     1.0  0.73909  0.25337  0.28514  1.0000
  C   C1662     1.0  0.50519  0.46132  0.18848  1.0000
  H   H1330     1.0  0.68512  0.28345  0.94537  1.0000
  C   C1663     1.0  0.72173  0.44916  0.29214  1.0000
  H   H1331     1.0  0.62897  0.28754  0.05030  1.0000
  H   H1332     1.0  0.62560  0.29234  0.11661  1.0000
  H   H1333     1.0  0.65079  0.28987  0.15633  1.0000
  C   C1664     1.0  0.61223  0.46889  0.40176  1.0000
  H   H1334     1.0  0.68309  0.27778  0.06383  1.0000
  H   H1335     1.0  0.64683  0.27498  0.92949  1.0000
  C   C1665     1.0  0.69951  0.39925  0.26114  1.0000
  C   C1666     1.0  0.51317  0.24225  0.71768  1.0000
  H   H1336     1.0  0.73659  0.41425  0.36210  1.0000
  C   C1667     1.0  0.49460  0.44863  0.12247  1.0000
  H   H1337     1.0  0.63210  0.30052  0.96744  1.0000
  H   H1338     1.0  0.63183  0.33000  0.94338  1.0000
  H   H1339     1.0  0.65746  0.34732  0.94819  1.0000
  H   H1340     1.0  0.68347  0.33496  0.97750  1.0000
  H   H1341     1.0  0.68400  0.30536  0.00148  1.0000
  C   C1668     1.0  0.52686  0.41753  0.58790  1.0000
  C   C1669     1.0  0.51488  0.41977  0.56047  1.0000
  C   C1670     1.0  0.50416  0.40663  0.55270  1.0000
  C   C1671     1.0  0.50538  0.39121  0.57233  1.0000
  C   C1672     1.0  0.51740  0.38880  0.60004  1.0000
  C   C1673     1.0  0.52815  0.40212  0.60760  1.0000
  P   P55       1.0  0.51832  0.36935  0.62759  1.0000
  C   C1674     1.0  0.73717  0.28006  0.48158  1.0000
  C   C1675     1.0  0.65357  0.24560  0.56468  1.0000
  C   C1676     1.0  0.50170  0.31413  0.71033  1.0000
  H   H1342     1.0  0.70049  0.48341  0.36110  1.0000
  C   C1677     1.0  0.68236  0.25232  0.01120  1.0000
  H   H1343     1.0  0.50692  0.40101  0.66511  1.0000
  C   C1678     1.0  0.51416  0.37442  0.67517  1.0000
  C   C1679     1.0  0.51545  0.36168  0.70258  1.0000
  C   C1680     1.0  0.51269  0.36563  0.73931  1.0000
  C   C1681     1.0  0.50840  0.38231  0.74914  1.0000
  Fe  Fe119     1.0  0.58429  0.24335  0.58419  1.0000
  C   C1682     1.0  0.50919  0.39105  0.68533  1.0000
  C   C1683     1.0  0.66500  0.43040  0.32917  1.0000
  C   C1684     1.0  0.67514  0.46579  0.19465  1.0000
  C   C1685     1.0  0.50174  0.35574  0.61344  1.0000
  H   H1344     1.0  0.53717  0.40075  0.62949  1.0000
  C   C1686     1.0  0.67289  0.25118  0.40944  1.0000
  H   H1345     1.0  0.51851  0.33885  0.58169  1.0000
  C   C1687     1.0  0.50552  0.34203  0.59028  1.0000
  C   C1688     1.0  0.71261  0.48816  0.35151  1.0000
  H   H1346     1.0  0.50212  0.40768  0.72945  1.0000
  H   H1347     1.0  0.52876  0.48002  0.62242  1.0000
  H   H1348     1.0  0.57890  0.36230  0.58487  1.0000
  H   H1349     1.0  0.49705  0.46546  0.68318  1.0000
  H   H1350     1.0  0.59437  0.44734  0.49021  1.0000
  H   H1351     1.0  0.66112  0.33057  0.42813  1.0000
  C   C1689     1.0  0.50645  0.39497  0.72209  1.0000
  C   C1690     1.0  0.51887  0.47492  0.81996  1.0000
  H   H1352     1.0  0.66454  0.41712  0.32242  1.0000
  C   C1691     1.0  0.65414  0.43660  0.35705  1.0000
  S   S231      1.0  0.50883  0.48406  0.96166  1.0000
  H   H1353     1.0  0.58239  0.33290  0.61012  1.0000
  C   C1692     1.0  0.54016  0.48799  0.40501  1.0000
  H   H1354     1.0  0.52059  0.29245  0.50812  1.0000
  C   C1693     1.0  0.55665  0.33237  0.63196  1.0000
  C   C1694     1.0  0.67031  0.40906  0.25074  1.0000
  C   C1695     1.0  0.66649  0.39289  0.23914  1.0000
  C   C1696     1.0  0.68676  0.41229  0.26265  1.0000
  H   H1355     1.0  0.51440  0.30199  0.75603  1.0000
  H   H1356     1.0  0.67331  0.43276  0.43890  1.0000
  C   C1697     1.0  0.67929  0.28566  0.45665  1.0000
  C   C1698     1.0  0.66679  0.29402  0.47864  1.0000
  C   C1699     1.0  0.66018  0.31012  0.46826  1.0000
  H   H1357     1.0  0.52494  0.45056  0.68480  1.0000
  P   P56       1.0  0.69144  0.43342  0.27675  1.0000
  H   H1358     1.0  0.57859  0.46313  0.07121  1.0000
  C   C1700     1.0  0.70989  0.26625  0.48388  1.0000
  H   H1359     1.0  0.68994  0.24256  0.14307  1.0000
  H   H1360     1.0  0.51285  0.43018  0.79189  1.0000
  H   H1361     1.0  0.71533  0.43722  0.21502  1.0000
  H   H1362     1.0  0.49551  0.32136  0.56094  1.0000
  H   H1363     1.0  0.52232  0.47993  0.76278  1.0000
  H   H1364     1.0  0.61748  0.47467  0.37711  1.0000
  C   C1701     1.0  0.70309  0.26247  0.95211  1.0000
  H   H1365     1.0  0.66191  0.28811  0.50349  1.0000
  H   H1366     1.0  0.65036  0.31638  0.48497  1.0000
  H   H1367     1.0  0.67934  0.28264  0.12984  1.0000
  H   H1368     1.0  0.71328  0.24326  0.76086  1.0000
  H   H1369     1.0  0.51806  0.34856  0.69598  1.0000
  C   C1702     1.0  0.52130  0.27693  0.55708  1.0000
  C   C1703     1.0  0.69552  0.38298  0.25016  1.0000
  H   H1370     1.0  0.66381  0.47364  0.18878  1.0000
  C   C1704     1.0  0.56831  0.35648  0.59932  1.0000
  C   C1705     1.0  0.59954  0.45331  0.46561  1.0000
  C   C1706     1.0  0.71995  0.27988  0.47242  1.0000
  C   C1707     1.0  0.57030  0.33992  0.61349  1.0000
  C   C1708     1.0  0.69700  0.46660  0.45870  1.0000
  H   H1371     1.0  0.53069  0.43939  0.38062  1.0000
  H   H1372     1.0  0.53065  0.33509  0.65017  1.0000
  H   H1373     1.0  0.60164  0.43000  0.43582  1.0000
  C   C1709     1.0  0.67897  0.37977  0.23947  1.0000
  H   H1374     1.0  0.55781  0.24389  0.50132  1.0000
  H   H1375     1.0  0.51064  0.42410  0.96734  1.0000
  H   H1376     1.0  0.63561  0.25437  0.03720  1.0000
  H   H1377     1.0  0.52068  0.44916  0.99913  1.0000
  H   H1378     1.0  0.61755  0.29878  0.38472  1.0000
  C   C1710     1.0  0.51126  0.40776  0.05428  1.0000
  H   H1379     1.0  0.71095  0.26612  0.92872  1.0000
  C   C1711     1.0  0.51175  0.26826  0.58383  1.0000
  H   H1380     1.0  0.55151  0.37817  0.59182  1.0000
  H   H1381     1.0  0.51424  0.47334  0.87813  1.0000
  S   S232      1.0  0.54304  0.47503  0.47519  1.0000
  C   C1712     1.0  0.60777  0.47883  0.43202  1.0000
  C   C1713     1.0  0.56220  0.28098  0.43063  1.0000
  C   C1714     1.0  0.56585  0.28359  0.46741  1.0000
  C   C1715     1.0  0.56403  0.27012  0.49288  1.0000
  P   P57       1.0  0.57262  0.30414  0.48134  1.0000
  C   C1716     1.0  0.55428  0.31852  0.48749  1.0000
  C   C1717     1.0  0.58375  0.30174  0.52391  1.0000
  C   C1718     1.0  0.57445  0.29973  0.55694  1.0000
  C   C1719     1.0  0.58297  0.29698  0.58972  1.0000
  C   C1720     1.0  0.60081  0.29634  0.58991  1.0000
  C   C1721     1.0  0.61015  0.29856  0.55729  1.0000
  C   C1722     1.0  0.60168  0.30123  0.52438  1.0000
  C   C1723     1.0  0.55478  0.33184  0.51226  1.0000
  C   C1724     1.0  0.54067  0.34307  0.51687  1.0000
  C   C1725     1.0  0.52596  0.34112  0.49681  1.0000
  C   C1726     1.0  0.52543  0.32803  0.47181  1.0000
  C   C1727     1.0  0.53956  0.31682  0.46700  1.0000
  C   C1728     1.0  0.58685  0.31244  0.44616  1.0000
  C   C1729     1.0  0.59814  0.30134  0.42719  1.0000
  C   C1730     1.0  0.60900  0.30750  0.39949  1.0000
  C   C1731     1.0  0.60869  0.32483  0.39046  1.0000
  C   C1732     1.0  0.59759  0.33603  0.40939  1.0000
  C   C1733     1.0  0.58672  0.32989  0.43722  1.0000
  C   C1734     1.0  0.60884  0.24973  0.42878  1.0000
  C   C1735     1.0  0.52036  0.48566  0.78912  1.0000
  H   H1382     1.0  0.49449  0.40864  0.53223  1.0000
  H   H1383     1.0  0.56362  0.29109  0.41036  1.0000
  H   H1384     1.0  0.56714  0.27148  0.52120  1.0000
  H   H1385     1.0  0.56061  0.29973  0.55736  1.0000
  H   H1386     1.0  0.57575  0.29483  0.61490  1.0000
  H   H1387     1.0  0.60737  0.29363  0.61519  1.0000
  H   H1388     1.0  0.62397  0.29753  0.55732  1.0000
  H   H1389     1.0  0.60920  0.30235  0.49935  1.0000
  H   H1390     1.0  0.56611  0.33362  0.52789  1.0000
  H   H1391     1.0  0.54113  0.35333  0.53592  1.0000
  H   H1392     1.0  0.61307  0.44376  0.37931  1.0000
  H   H1393     1.0  0.51410  0.32664  0.45593  1.0000
  H   H1394     1.0  0.53891  0.30688  0.44728  1.0000
  H   H1395     1.0  0.59846  0.28785  0.43360  1.0000
  C   C1736     1.0  0.55270  0.36553  0.60371  1.0000
  H   H1396     1.0  0.61697  0.32953  0.36855  1.0000
  H   H1397     1.0  0.59733  0.34946  0.40214  1.0000
  H   H1398     1.0  0.57818  0.33876  0.45139  1.0000
  H   H1399     1.0  0.62578  0.25618  0.90395  1.0000
  C   C1737     1.0  0.67867  0.30991  0.41443  1.0000
  C   C1738     1.0  0.68487  0.29360  0.42405  1.0000
  C   C1739     1.0  0.55875  0.25434  0.48168  1.0000
  C   C1740     1.0  0.51629  0.44960  0.70823  1.0000
  H   H1400     1.0  0.64641  0.45831  0.38893  1.0000
  C   C1741     1.0  0.50832  0.40332  0.14103  1.0000
  H   H1401     1.0  0.68822  0.47257  0.14439  1.0000
  H   H1402     1.0  0.67575  0.45464  0.48597  1.0000
  P   P58       1.0  0.51875  0.42162  0.12168  1.0000
  H   H1403     1.0  0.60304  0.24275  0.40755  1.0000
  H   H1404     1.0  0.50574  0.38520  0.77754  1.0000
  C   C1742     1.0  0.67523  0.25620  0.50688  1.0000
  S   S233      1.0  0.49741  0.46195  0.49494  1.0000
  C   C1743     1.0  0.70416  0.44535  0.20980  1.0000
  C   C1744     1.0  0.73247  0.42397  0.34245  1.0000
  C   C1745     1.0  0.54093  0.42049  0.13456  1.0000
  C   C1746     1.0  0.54535  0.41464  0.16977  1.0000
  C   C1747     1.0  0.56241  0.41412  0.18030  1.0000
  C   C1748     1.0  0.57519  0.41926  0.15569  1.0000
  C   C1749     1.0  0.57094  0.42481  0.12049  1.0000
  C   C1750     1.0  0.55389  0.42555  0.10997  1.0000
  C   C1751     1.0  0.70338  0.45490  0.17716  1.0000
  C   C1752     1.0  0.67811  0.26107  0.54282  1.0000
  H   H1405     1.0  0.52001  0.46128  0.81737  1.0000
  S   S234      1.0  0.60369  0.25390  0.54078  1.0000
  H   H1406     1.0  0.53025  0.38612  0.13270  1.0000
  H   H1407     1.0  0.52185  0.46614  0.27937  1.0000
  Fe  Fe120     1.0  0.50293  0.48418  0.02269  1.0000
  C   C1753     1.0  0.51815  0.43756  0.01450  1.0000
  S   S235      1.0  0.55547  0.24641  0.58449  1.0000
  H   H1408     1.0  0.53560  0.41076  0.18934  1.0000
  H   H1409     1.0  0.56576  0.40997  0.20770  1.0000
  H   H1410     1.0  0.58837  0.41936  0.16407  1.0000
  H   H1411     1.0  0.58087  0.42923  0.10183  1.0000
  H   H1412     1.0  0.55099  0.43037  0.08290  1.0000
  H   H1413     1.0  0.64873  0.24236  0.82442  1.0000
  C   C1754     1.0  0.67589  0.45629  0.22732  1.0000
  C   C1755     1.0  0.66619  0.31811  0.43627  1.0000
  S   S236      1.0  0.66965  0.25956  0.19963  1.0000
  C   C1756     1.0  0.68306  0.44214  0.43602  1.0000
  C   C1757     1.0  0.72636  0.48917  0.37523  1.0000
  C   C1758     1.0  0.52020  0.43687  0.05229  1.0000
  C   C1759     1.0  0.60362  0.44356  0.43501  1.0000
  H   H1414     1.0  0.68338  0.31606  0.38956  1.0000
  H   H1415     1.0  0.62954  0.27417  0.50531  1.0000
  C   C1760     1.0  0.66149  0.24580  0.50033  1.0000
  H   H1416     1.0  0.66603  0.47768  0.35603  1.0000
  C   C1761     1.0  0.50383  0.25771  0.71720  1.0000
  C   C1762     1.0  0.54109  0.34141  0.63653  1.0000
  H   H1417     1.0  0.53480  0.42795  0.59445  1.0000
  C   C1763     1.0  0.53891  0.35812  0.62262  1.0000
  C   C1764     1.0  0.55535  0.25181  0.44502  1.0000
  C   C1765     1.0  0.68442  0.45449  0.46246  1.0000
  H   H1418     1.0  0.69419  0.28728  0.40617  1.0000
  H   H1419     1.0  0.73076  0.24279  0.28920  1.0000
  C   C1766     1.0  0.67630  0.45845  0.32012  1.0000
  C   C1767     1.0  0.71182  0.43481  0.29834  1.0000
  H   H1420     1.0  0.51325  0.35557  0.76004  1.0000
  C   C1768     1.0  0.65074  0.24055  0.52914  1.0000
  H   H1421     1.0  0.67407  0.24791  0.03321  1.0000
  H   H1422     1.0  0.53510  0.27673  0.55851  1.0000
  C   C1769     1.0  0.50133  0.31519  0.67217  1.0000
  H   H1423     1.0  0.66175  0.25910  0.41634  1.0000
  C   C1770     1.0  0.49526  0.28641  0.52750  1.0000
  H   H1424     1.0  0.67578  0.36714  0.23129  1.0000
  H   H1425     1.0  0.50413  0.26603  0.74031  1.0000
  H   H1426     1.0  0.66034  0.41901  0.25065  1.0000
  C   C1771     1.0  0.69052  0.44622  0.23537  1.0000
  H   H1427     1.0  0.71756  0.45930  0.27358  1.0000
  C   C1772     1.0  0.50912  0.40853  0.01645  1.0000
  C   C1773     1.0  0.71708  0.42246  0.32439  1.0000
  C   C1774     1.0  0.52088  0.43959  0.73866  1.0000
  C   C1775     1.0  0.51252  0.42343  0.99659  1.0000
  H   H1428     1.0  0.65374  0.39045  0.23024  1.0000
  P   P59       1.0  0.68803  0.26487  0.46956  1.0000
  H   H1429     1.0  0.53736  0.44390  0.31464  1.0000
  C   C1776     1.0  0.60166  0.47087  0.46421  1.0000
  H   H1430     1.0  0.71394  0.45425  0.15754  1.0000
  H   H1431     1.0  0.64524  0.42817  0.37061  1.0000
  H   H1432     1.0  0.55727  0.47302  0.17793  1.0000
  H   H1433     1.0  0.51576  0.36087  0.15728  1.0000
  H   H1434     1.0  0.52453  0.44145  0.18763  1.0000
  H   H1435     1.0  0.71535  0.45372  0.37825  1.0000
  C   C1777     1.0  0.66569  0.46450  0.34851  1.0000
  H   H1436     1.0  0.50015  0.42019  0.86360  1.0000
  C   C1778     1.0  0.65461  0.45359  0.36698  1.0000
  C   C1779     1.0  0.52359  0.44901  0.36501  1.0000
  C   C1780     1.0  0.73202  0.26982  0.28099  1.0000
  C   C1781     1.0  0.62765  0.25623  0.93316  1.0000
  C   C1782     1.0  0.70819  0.46658  0.42814  1.0000
  H   H1437     1.0  0.51839  0.26134  0.60544  1.0000
  H   H1438     1.0  0.53318  0.43283  0.73906  1.0000
  S   S237      1.0  0.51769  0.48338  0.07661  1.0000
  H   H1439     1.0  0.50808  0.45725  0.41112  1.0000
  Fe  Fe121     1.0  0.51618  0.48269  0.49406  1.0000
  C   C1783     1.0  0.68776  0.25164  0.42991  1.0000
  C   C1784     1.0  0.54569  0.48963  0.36838  1.0000
  P   P60       1.0  0.72418  0.48249  0.42266  1.0000
  S   S238      1.0  0.56591  0.48202  0.30860  1.0000
  H   H1440     1.0  0.50465  0.39763  0.00245  1.0000
  H   H1441     1.0  0.50954  0.46645  0.21364  1.0000
  H   H1442     1.0  0.51504  0.34984  0.50044  1.0000
  C   C1785     1.0  0.50889  0.37308  0.15614  1.0000
  S   S239      1.0  0.60020  0.48466  0.23573  1.0000
  C   C1786     1.0  0.73461  0.25313  0.51392  1.0000
  C   C1787     1.0  0.71736  0.25290  0.50488  1.0000
  C   C1788     1.0  0.63315  0.25542  0.00827  1.0000
  H   H1443     1.0  0.55132  0.47879  0.66882  1.0000
  C   C1789     1.0  0.55707  0.26513  0.41950  1.0000
  C   C1790     1.0  0.66377  0.24833  0.15932  1.0000
  C   C1791     1.0  0.67041  0.24377  0.85892  1.0000
  H   H1444     1.0  0.52948  0.48141  0.14994  1.0000
  H   H1445     1.0  0.66347  0.25110  0.87949  1.0000
  C   C1792     1.0  0.54020  0.47750  0.13267  1.0000
  S   S240      1.0  0.51138  0.48868  0.55305  1.0000
  H   H1446     1.0  0.50842  0.39612  0.06900  1.0000
  C   C1793     1.0  0.73702  0.45073  0.31052  1.0000
  H   H1447     1.0  0.73886  0.31754  0.34875  1.0000
  C   C1794     1.0  0.50032  0.45813  0.70743  1.0000
  C   C1795     1.0  0.51570  0.48171  0.85438  1.0000
  C   C1796     1.0  0.49431  0.26264  0.68671  1.0000
  C   C1797     1.0  0.70729  0.24757  0.97192  1.0000
  C   C1798     1.0  0.53973  0.48645  0.67342  1.0000
  C   C1799     1.0  0.49394  0.25202  0.65647  1.0000
  C   C1800     1.0  0.64676  0.24652  0.14929  1.0000
  C   C1801     1.0  0.49387  0.26877  0.58279  1.0000
  H   H1448     1.0  0.69395  0.24255  0.88809  1.0000
  C   C1802     1.0  0.69686  0.24245  0.00130  1.0000
  C   C1803     1.0  0.67673  0.24133  0.13602  1.0000
  H   H1449     1.0  0.49275  0.47983  0.37692  1.0000
  C   C1804     1.0  0.74169  0.27194  0.38996  1.0000
  C   C1805     1.0  0.70217  0.24157  0.41935  1.0000
  H   H1450     1.0  0.65861  0.24206  0.47306  1.0000
  H   H1451     1.0  0.70997  0.24209  0.51341  1.0000
  H   H1452     1.0  0.74042  0.24267  0.52949  1.0000
  C   C1806     1.0  0.67217  0.24034  0.37993  1.0000
  H   H1453     1.0  0.71399  0.24188  0.43390  1.0000
  C   C1807     1.0  0.49352  0.44666  0.76773  1.0000
  H   H1454     1.0  0.74237  0.25920  0.40166  1.0000
  C   C1808     1.0  0.74248  0.43806  0.33541  1.0000
  Fe  Fe122     1.0  0.67736  0.64770  0.69809  1.0000
  S   S241      1.0  0.70416  0.63602  0.69960  1.0000
  S   S242      1.0  0.65568  0.62942  0.71063  1.0000
  Fe  Fe123     1.0  0.69059  0.68275  0.67636  1.0000
  S   S243      1.0  0.71814  0.67326  0.67703  1.0000
  S   S244      1.0  0.67890  0.70950  0.66348  1.0000
  Fe  Fe124     1.0  0.70917  0.65042  0.64685  1.0000
  S   S245      1.0  0.72483  0.64096  0.59610  1.0000
  Fe  Fe125     1.0  0.71127  0.65933  0.73019  1.0000
  H   H1455     1.0  0.51473  0.54376  0.36419  1.0000
  S   S246      1.0  0.68201  0.66076  0.64359  1.0000
  S   S247      1.0  0.68410  0.67016  0.73118  1.0000
  H   H1456     1.0  0.67971  0.51193  0.23863  1.0000
  C   C1809     1.0  0.72929  0.50114  0.30257  1.0000
  S   S248      1.0  0.72443  0.58478  0.47010  1.0000
  Fe  Fe126     1.0  0.71911  0.55238  0.35605  1.0000
  H   H1457     1.0  0.70309  0.51297  0.40578  1.0000
  S   S249      1.0  0.69323  0.53901  0.35510  1.0000
  H   H1458     1.0  0.52989  0.49621  0.41549  1.0000
  C   C1810     1.0  0.67536  0.57178  0.41390  1.0000
  C   C1811     1.0  0.53718  0.50349  0.23348  1.0000
  S   S250      1.0  0.72015  0.58087  0.36217  1.0000
  Fe  Fe127     1.0  0.53366  0.59397  0.68827  1.0000
  S   S251      1.0  0.51150  0.59444  0.72834  1.0000
  S   S252      1.0  0.53910  0.57491  0.64327  1.0000
  Fe  Fe128     1.0  0.55192  0.62255  0.72573  1.0000
  S   S253      1.0  0.53083  0.62499  0.76886  1.0000
  S   S254      1.0  0.57414  0.64091  0.72150  1.0000
  Fe  Fe129     1.0  0.53131  0.59622  0.77138  1.0000
  S   S255      1.0  0.53445  0.57993  0.82392  1.0000
  Fe  Fe130     1.0  0.51244  0.62322  0.72257  1.0000
  C   C1812     1.0  0.52895  0.52900  0.02163  1.0000
  S   S256      1.0  0.55361  0.59416  0.73131  1.0000
  S   S257      1.0  0.53342  0.62240  0.67942  1.0000
  H   H1459     1.0  0.67006  0.57672  0.35729  1.0000
  H   H1460     1.0  0.64546  0.66170  0.45815  1.0000
  C   C1813     1.0  0.49362  0.51005  0.33307  1.0000
  H   H1461     1.0  0.50661  0.73297  0.36611  1.0000
  P   P61       1.0  0.52005  0.51763  0.75290  1.0000
  H   H1462     1.0  0.62381  0.50721  0.50513  1.0000
  C   C1814     1.0  0.52365  0.56209  0.62427  1.0000
  C   C1815     1.0  0.52915  0.54890  0.60109  1.0000
  C   C1816     1.0  0.51728  0.53908  0.58357  1.0000
  C   C1817     1.0  0.60370  0.65698  0.51621  1.0000
  H   H1463     1.0  0.63120  0.54031  0.33219  1.0000
  C   C1818     1.0  0.50613  0.56517  0.63041  1.0000
  H   H1464     1.0  0.54268  0.54640  0.59631  1.0000
  C   C1819     1.0  0.69427  0.65150  0.53028  1.0000
  H   H1465     1.0  0.56354  0.55400  0.69479  1.0000
  H   H1466     1.0  0.64567  0.49584  0.39887  1.0000
  C   C1820     1.0  0.52118  0.56517  0.84756  1.0000
  H   H1467     1.0  0.63784  0.67296  0.35347  1.0000
  C   C1821     1.0  0.52706  0.49937  0.26410  1.0000
  C   C1822     1.0  0.72390  0.63191  0.33339  1.0000
  C   C1823     1.0  0.51796  0.54376  0.89701  1.0000
  C   C1824     1.0  0.52807  0.55521  0.87649  1.0000
  H   H1468     1.0  0.63006  0.64411  0.37533  1.0000
  H   H1469     1.0  0.52348  0.53626  0.91914  1.0000
  H   H1470     1.0  0.54132  0.55646  0.88322  1.0000
  H   H1471     1.0  0.68324  0.57033  0.46985  1.0000
  H   H1472     1.0  0.67325  0.55831  0.41228  1.0000
  H   H1473     1.0  0.59566  0.66202  0.62045  1.0000
  C   C1825     1.0  0.68154  0.52606  0.32581  1.0000
  C   C1826     1.0  0.68597  0.52383  0.28895  1.0000
  H   H1474     1.0  0.67457  0.49692  0.42369  1.0000
  C   C1827     1.0  0.53834  0.53103  0.75347  1.0000
  C   C1828     1.0  0.51361  0.53823  0.02800  1.0000
  C   C1829     1.0  0.66707  0.51788  0.34026  1.0000
  H   H1475     1.0  0.69694  0.53011  0.27723  1.0000
  H   H1476     1.0  0.66337  0.51971  0.36852  1.0000
  C   C1830     1.0  0.63478  0.50531  0.48691  1.0000
  C   C1831     1.0  0.49382  0.55219  0.86014  1.0000
  H   H1477     1.0  0.55995  0.53845  0.51126  1.0000
  H   H1478     1.0  0.63838  0.72158  0.60519  1.0000
  C   C1832     1.0  0.50156  0.50462  0.22896  1.0000
  H   H1479     1.0  0.65172  0.62470  0.40321  1.0000
  C   C1833     1.0  0.67614  0.51350  0.26710  1.0000
  H   H1480     1.0  0.67611  0.60725  0.35950  1.0000
  H   H1481     1.0  0.69590  0.65675  0.55703  1.0000
  C   C1834     1.0  0.72564  0.66916  0.85014  1.0000
  H   H1482     1.0  0.53744  0.51102  0.17669  1.0000
  H   H1483     1.0  0.71440  0.67595  0.84013  1.0000
  C   C1835     1.0  0.63304  0.63296  0.71377  1.0000
  C   C1836     1.0  0.62524  0.64917  0.71007  1.0000
  C   C1837     1.0  0.60727  0.65133  0.71343  1.0000
  C   C1838     1.0  0.59680  0.63736  0.71972  1.0000
  C   C1839     1.0  0.60461  0.62114  0.72332  1.0000
  C   C1840     1.0  0.62259  0.61900  0.72046  1.0000
  H   H1484     1.0  0.63304  0.66005  0.70495  1.0000
  H   H1485     1.0  0.60141  0.66393  0.71097  1.0000
  H   H1486     1.0  0.59680  0.61024  0.72828  1.0000
  H   H1487     1.0  0.62845  0.60640  0.72345  1.0000
  C   C1841     1.0  0.72449  0.62503  0.56168  1.0000
  C   C1842     1.0  0.50070  0.54231  0.88918  1.0000
  H   H1488     1.0  0.53696  0.63180  0.59234  1.0000
  C   C1843     1.0  0.72496  0.60046  0.50506  1.0000
  C   C1844     1.0  0.71267  0.60019  0.53394  1.0000
  C   C1845     1.0  0.71240  0.61236  0.56190  1.0000
  H   H1489     1.0  0.70331  0.59045  0.53476  1.0000
  H   H1490     1.0  0.70293  0.61191  0.58379  1.0000
  C   C1846     1.0  0.70442  0.72850  0.62873  1.0000
  C   C1847     1.0  0.68752  0.72807  0.64196  1.0000
  H   H1491     1.0  0.68948  0.60055  0.47246  1.0000
  H   H1492     1.0  0.71274  0.71729  0.63143  1.0000
  H   H1493     1.0  0.53953  0.53491  0.69451  1.0000
  H   H1494     1.0  0.70447  0.54097  0.50442  1.0000
  C   C1848     1.0  0.73407  0.70801  0.96500  1.0000
  H   H1495     1.0  0.51143  0.54810  0.70814  1.0000
  H   H1496     1.0  0.59899  0.68714  0.65792  1.0000
  H   H1497     1.0  0.51755  0.52162  0.31802  1.0000
  C   C1849     1.0  0.70842  0.63252  0.35333  1.0000
  C   C1850     1.0  0.69098  0.63688  0.46173  1.0000
  H   H1498     1.0  0.59130  0.50734  0.30460  1.0000
  C   C1851     1.0  0.51620  0.53279  0.09302  1.0000
  H   H1499     1.0  0.53371  0.52723  0.99390  1.0000
  C   C1852     1.0  0.70374  0.64857  0.46730  1.0000
  H   H1500     1.0  0.56293  0.60222  0.61678  1.0000
  C   C1853     1.0  0.71775  0.71339  0.82656  1.0000
  C   C1854     1.0  0.53750  0.49572  0.70537  1.0000
  C   C1855     1.0  0.67650  0.65868  0.38462  1.0000
  C   C1856     1.0  0.67347  0.58223  0.38284  1.0000
  H   H1501     1.0  0.54951  0.51404  0.04585  1.0000
  C   C1857     1.0  0.70814  0.62860  0.39094  1.0000
  C   C1858     1.0  0.67693  0.59949  0.38423  1.0000
  H   H1502     1.0  0.50269  0.49825  0.63192  1.0000
  H   H1503     1.0  0.69673  0.63575  0.33922  1.0000
  C   C1859     1.0  0.64740  0.66444  0.36569  1.0000
  C   C1860     1.0  0.64303  0.64818  0.37791  1.0000
  C   C1861     1.0  0.72255  0.50204  0.48557  1.0000
  C   C1862     1.0  0.68216  0.60647  0.41689  1.0000
  C   C1863     1.0  0.60310  0.66453  0.48128  1.0000
  H   H1504     1.0  0.51140  0.53396  0.12081  1.0000
  H   H1505     1.0  0.57541  0.49552  0.44710  1.0000
  C   C1864     1.0  0.51887  0.50342  0.79261  1.0000
  C   C1865     1.0  0.65540  0.63714  0.39341  1.0000
  S   S258      1.0  0.73304  0.54689  0.40835  1.0000
  C   C1866     1.0  0.67230  0.64222  0.39625  1.0000
  C   C1867     1.0  0.60997  0.68167  0.64326  1.0000
  H   H1506     1.0  0.73549  0.66014  0.17117  1.0000
  H   H1507     1.0  0.59570  0.62314  0.53285  1.0000
  H   H1508     1.0  0.52785  0.60202  0.58930  1.0000
  H   H1509     1.0  0.61175  0.52942  0.28650  1.0000
  H   H1510     1.0  0.54077  0.53095  0.81243  1.0000
  H   H1511     1.0  0.49999  0.61889  0.11420  1.0000
  C   C1868     1.0  0.49975  0.54253  0.58868  1.0000
  C   C1869     1.0  0.71373  0.73012  0.94587  1.0000
  H   H1512     1.0  0.55101  0.50278  0.23529  1.0000
  H   H1513     1.0  0.70366  0.49286  0.29697  1.0000
  H   H1514     1.0  0.61766  0.67205  0.43327  1.0000
  C   C1870     1.0  0.63343  0.73406  0.59662  1.0000
  H   H1515     1.0  0.63089  0.52857  0.39517  1.0000
  C   C1871     1.0  0.50077  0.54572  0.72670  1.0000
  C   C1872     1.0  0.68081  0.57857  0.44633  1.0000
  P   P62       1.0  0.68830  0.62833  0.41695  1.0000
  H   H1516     1.0  0.72324  0.61915  0.43609  1.0000
  C   C1873     1.0  0.50697  0.54006  0.06378  1.0000
  C   C1874     1.0  0.70709  0.51366  0.43373  1.0000
  C   C1875     1.0  0.68426  0.59583  0.44780  1.0000
  C   C1876     1.0  0.51418  0.49929  0.85811  1.0000
  C   C1877     1.0  0.65727  0.50754  0.31841  1.0000
  H   H1517     1.0  0.66941  0.62433  0.48683  1.0000
  C   C1878     1.0  0.66172  0.50527  0.28160  1.0000
  C   C1879     1.0  0.73567  0.71370  0.82420  1.0000
  C   C1880     1.0  0.72336  0.62317  0.40769  1.0000
  C   C1881     1.0  0.54508  0.53769  0.72039  1.0000
  H   H1518     1.0  0.62747  0.69966  0.66311  1.0000
  C   C1882     1.0  0.67959  0.63296  0.49066  1.0000
  H   H1519     1.0  0.57633  0.56154  0.75327  1.0000
  C   C1883     1.0  0.60000  0.51185  0.32443  1.0000
  C   C1884     1.0  0.61140  0.52443  0.31433  1.0000
  C   C1885     1.0  0.62236  0.53054  0.34009  1.0000
  C   C1886     1.0  0.62230  0.52366  0.37565  1.0000
  C   C1887     1.0  0.61149  0.51037  0.38543  1.0000
  C   C1888     1.0  0.59988  0.50497  0.35997  1.0000
  C   C1889     1.0  0.50123  0.53174  0.75127  1.0000
  C   C1890     1.0  0.59535  0.51306  0.45685  1.0000
  C   C1891     1.0  0.56602  0.51623  0.47966  1.0000
  C   C1892     1.0  0.56980  0.53148  0.49587  1.0000
  C   C1893     1.0  0.60818  0.66728  0.62220  1.0000
  H   H1520     1.0  0.52168  0.52912  0.56539  1.0000
  C   C1894     1.0  0.74138  0.49671  0.36234  1.0000
  C   C1895     1.0  0.73515  0.65844  0.82656  1.0000
  C   C1896     1.0  0.59894  0.52868  0.47214  1.0000
  C   C1897     1.0  0.58623  0.53776  0.49189  1.0000
  H   H1521     1.0  0.50338  0.66277  0.66941  1.0000
  C   C1898     1.0  0.53159  0.52365  0.08651  1.0000
  H   H1522     1.0  0.54750  0.49521  0.72533  1.0000
  H   H1523     1.0  0.59205  0.65633  0.53269  1.0000
  H   H1524     1.0  0.51167  0.50456  0.88482  1.0000
  H   H1525     1.0  0.65282  0.50829  0.52959  1.0000
  C   C1899     1.0  0.63374  0.66016  0.47408  1.0000
  C   C1900     1.0  0.73077  0.67133  0.88663  1.0000
  H   H1526     1.0  0.70256  0.73823  0.95167  1.0000
  H   H1527     1.0  0.72352  0.68008  0.90379  1.0000
  C   C1901     1.0  0.49423  0.55549  0.61249  1.0000
  C   C1902     1.0  0.50478  0.53468  0.36199  1.0000
  C   C1903     1.0  0.50902  0.59271  0.11496  1.0000
  C   C1904     1.0  0.50630  0.52208  0.33569  1.0000
  H   H1528     1.0  0.73869  0.69887  0.98546  1.0000
  H   H1529     1.0  0.53838  0.51753  0.10890  1.0000
  H   H1530     1.0  0.55324  0.51139  0.48226  1.0000
  H   H1531     1.0  0.61151  0.53384  0.46874  1.0000
  H   H1532     1.0  0.58907  0.54971  0.50407  1.0000
  C   C1905     1.0  0.66410  0.66971  0.36921  1.0000
  H   H1533     1.0  0.50176  0.57533  0.64808  1.0000
  H   H1534     1.0  0.66749  0.68234  0.35992  1.0000
  C   C1906     1.0  0.51565  0.51007  0.82743  1.0000
  C   C1907     1.0  0.52246  0.50562  0.71156  1.0000
  C   C1908     1.0  0.50401  0.56340  0.83919  1.0000
  C   C1909     1.0  0.51172  0.50875  0.19828  1.0000
  H   H1535     1.0  0.71314  0.71746  0.99880  1.0000
  C   C1910     1.0  0.66152  0.61427  0.61548  1.0000
  C   C1911     1.0  0.66588  0.60324  0.58713  1.0000
  C   C1912     1.0  0.65629  0.60373  0.55542  1.0000
  C   C1913     1.0  0.64246  0.61540  0.55191  1.0000
  C   C1914     1.0  0.63837  0.62689  0.57984  1.0000
  C   C1915     1.0  0.64769  0.62590  0.61207  1.0000
  P   P63       1.0  0.62024  0.64158  0.57563  1.0000
  C   C1916     1.0  0.60175  0.62950  0.58819  1.0000
  C   C1917     1.0  0.62245  0.65977  0.60407  1.0000
  C   C1918     1.0  0.63838  0.66728  0.60622  1.0000
  C   C1919     1.0  0.64014  0.68163  0.62743  1.0000
  C   C1920     1.0  0.62597  0.68874  0.64617  1.0000
  H   H1536     1.0  0.71250  0.65216  0.44541  1.0000
  H   H1537     1.0  0.56451  0.55016  0.81178  1.0000
  C   C1921     1.0  0.59222  0.62184  0.56149  1.0000
  S   S259      1.0  0.72969  0.65555  0.77942  1.0000
  C   C1922     1.0  0.57375  0.60979  0.60867  1.0000
  C   C1923     1.0  0.58347  0.61696  0.63532  1.0000
  C   C1924     1.0  0.59753  0.62660  0.62517  1.0000
  C   C1925     1.0  0.61929  0.65059  0.52994  1.0000
  C   C1926     1.0  0.71772  0.51645  0.50551  1.0000
  S   S260      1.0  0.64990  0.49232  0.25255  1.0000
  H   H1538     1.0  0.66878  0.61377  0.64038  1.0000
  H   H1539     1.0  0.67661  0.59425  0.58994  1.0000
  H   H1540     1.0  0.65960  0.59504  0.53366  1.0000
  H   H1541     1.0  0.63498  0.61547  0.52745  1.0000
  H   H1542     1.0  0.64431  0.63403  0.63478  1.0000
  H   H1543     1.0  0.64951  0.66200  0.59181  1.0000
  H   H1544     1.0  0.65254  0.68718  0.62970  1.0000
  H   H1545     1.0  0.53959  0.49915  0.35093  1.0000
  C   C1927     1.0  0.63263  0.50229  0.44973  1.0000
  C   C1928     1.0  0.63435  0.65261  0.50896  1.0000
  C   C1929     1.0  0.73661  0.72072  0.90407  1.0000
  C   C1930     1.0  0.64709  0.49882  0.42731  1.0000
  H   H1546     1.0  0.69467  0.53820  0.44099  1.0000
  H   H1547     1.0  0.58014  0.61499  0.66398  1.0000
  H   H1548     1.0  0.60517  0.63175  0.64619  1.0000
  H   H1549     1.0  0.64659  0.64866  0.51982  1.0000
  H   H1550     1.0  0.68939  0.66296  0.38740  1.0000
  C   C1931     1.0  0.69895  0.60521  0.76540  1.0000
  H   H1551     1.0  0.50581  0.51213  0.17255  1.0000
  C   C1932     1.0  0.70212  0.52795  0.45385  1.0000
  C   C1933     1.0  0.71125  0.61902  0.82885  1.0000
  C   C1934     1.0  0.69362  0.61708  0.82548  1.0000
  C   C1935     1.0  0.68755  0.61019  0.79342  1.0000
  P   P64       1.0  0.67868  0.62273  0.86198  1.0000
  C   C1936     1.0  0.67300  0.60392  0.88805  1.0000
  C   C1937     1.0  0.68795  0.63713  0.89303  1.0000
  C   C1938     1.0  0.68247  0.65430  0.89419  1.0000
  C   C1939     1.0  0.68926  0.66503  0.91962  1.0000
  H   H1552     1.0  0.73027  0.50612  0.27480  1.0000
  C   C1940     1.0  0.57817  0.61214  0.57175  1.0000
  C   C1941     1.0  0.70037  0.63092  0.91749  1.0000
  C   C1942     1.0  0.67486  0.58772  0.87289  1.0000
  C   C1943     1.0  0.67033  0.57330  0.89341  1.0000
  C   C1944     1.0  0.66391  0.57494  0.92913  1.0000
  C   C1945     1.0  0.66197  0.59102  0.94436  1.0000
  C   C1946     1.0  0.66646  0.60546  0.92392  1.0000
  C   C1947     1.0  0.65996  0.63253  0.84124  1.0000
  C   C1948     1.0  0.66190  0.64423  0.81205  1.0000
  C   C1949     1.0  0.64756  0.65125  0.79450  1.0000
  C   C1950     1.0  0.63119  0.64663  0.80585  1.0000
  C   C1951     1.0  0.62913  0.63509  0.83502  1.0000
  C   C1952     1.0  0.64345  0.62807  0.85276  1.0000
  H   H1553     1.0  0.69412  0.60032  0.74041  1.0000
  C   C1953     1.0  0.57869  0.50714  0.45996  1.0000
  H   H1554     1.0  0.57079  0.60628  0.55120  1.0000
  H   H1555     1.0  0.72526  0.60390  0.74674  1.0000
  H   H1556     1.0  0.67398  0.60882  0.78979  1.0000
  H   H1557     1.0  0.67302  0.65949  0.87560  1.0000
  H   H1558     1.0  0.68517  0.67831  0.92016  1.0000
  H   H1559     1.0  0.71563  0.66430  0.50613  1.0000
  P   P65       1.0  0.61159  0.50130  0.43114  1.0000
  C   C1954     1.0  0.71647  0.60719  0.76898  1.0000
  H   H1560     1.0  0.67979  0.58611  0.84533  1.0000
  H   H1561     1.0  0.67181  0.56084  0.88157  1.0000
  H   H1562     1.0  0.66042  0.56376  0.94499  1.0000
  H   H1563     1.0  0.65698  0.59230  0.97206  1.0000
  H   H1564     1.0  0.66479  0.61785  0.93608  1.0000
  H   H1565     1.0  0.67453  0.64766  0.80231  1.0000
  H   H1566     1.0  0.64916  0.65986  0.77126  1.0000
  H   H1567     1.0  0.62010  0.65173  0.79156  1.0000
  H   H1568     1.0  0.61642  0.63137  0.84339  1.0000
  H   H1569     1.0  0.64154  0.61897  0.87489  1.0000
  H   H1570     1.0  0.67323  0.63652  0.54781  1.0000
  C   C1955     1.0  0.54568  0.53543  0.78639  1.0000
  C   C1956     1.0  0.55941  0.54627  0.78619  1.0000
  C   C1957     1.0  0.56600  0.55277  0.75322  1.0000
  C   C1958     1.0  0.55882  0.54851  0.72034  1.0000
  C   C1959     1.0  0.61810  0.66604  0.46015  1.0000
  H   H1571     1.0  0.71000  0.69695  0.74374  1.0000
  C   C1960     1.0  0.49745  0.60606  0.10636  1.0000
  C   C1961     1.0  0.51836  0.61239  0.59074  1.0000
  C   C1962     1.0  0.70854  0.70743  0.79754  1.0000
  C   C1963     1.0  0.73910  0.62717  0.35074  1.0000
  H   H1572     1.0  0.73611  0.61625  0.80282  1.0000
  Fe  Fe131     1.0  0.73492  0.57528  0.41368  1.0000
  C   C1964     1.0  0.52952  0.50815  0.20054  1.0000
  C   C1965     1.0  0.63516  0.73942  0.56014  1.0000
  C   C1966     1.0  0.52348  0.62915  0.59243  1.0000
  C   C1967     1.0  0.73678  0.62527  0.53287  1.0000
  S   S261      1.0  0.49774  0.50331  0.47404  1.0000
  C   C1968     1.0  0.70542  0.65574  0.50151  1.0000
  H   H1573     1.0  0.70727  0.66711  0.96283  1.0000
  H   H1574     1.0  0.50683  0.54338  0.00468  1.0000
  H   H1575     1.0  0.71079  0.71766  0.85059  1.0000
  C   C1969     1.0  0.70765  0.52949  0.48953  1.0000
  H   H1576     1.0  0.52052  0.59519  0.12949  1.0000
  C   C1970     1.0  0.50584  0.57615  0.10468  1.0000
  H   H1577     1.0  0.59102  0.66942  0.47082  1.0000
  H   H1578     1.0  0.72416  0.63464  0.30425  1.0000
  C   C1971     1.0  0.70726  0.64173  0.94254  1.0000
  C   C1972     1.0  0.50919  0.49957  0.26201  1.0000
  C   C1973     1.0  0.53790  0.52165  0.05084  1.0000
  C   C1974     1.0  0.68146  0.64004  0.52496  1.0000
  C   C1975     1.0  0.71713  0.70162  0.76614  1.0000
  C   C1976     1.0  0.72260  0.61408  0.80067  1.0000
  H   H1579     1.0  0.71637  0.62477  0.85252  1.0000
  C   C1977     1.0  0.66555  0.50286  0.47816  1.0000
  H   H1580     1.0  0.51500  0.56606  0.11166  1.0000
  H   H1581     1.0  0.51392  0.52364  0.83077  1.0000
  C   C1978     1.0  0.50990  0.50647  0.68490  1.0000
  H   H1582     1.0  0.64138  0.73104  0.54047  1.0000
  H   H1583     1.0  0.70487  0.61775  0.91695  1.0000
  C   C1979     1.0  0.70160  0.65873  0.94384  1.0000
  C   C1980     1.0  0.50100  0.60891  0.59195  1.0000
  C   C1981     1.0  0.71965  0.71844  0.97242  1.0000
  H   H1584     1.0  0.69473  0.70715  0.79939  1.0000
  H   H1585     1.0  0.67826  0.50333  0.48904  1.0000
  H   H1586     1.0  0.71725  0.63705  0.96057  1.0000
  H   H1587     1.0  0.73618  0.59189  0.22312  1.0000
  H   H1588     1.0  0.72214  0.51773  0.53308  1.0000
  C   C1982     1.0  0.66348  0.49927  0.44139  1.0000
  C   C1983     1.0  0.65121  0.50575  0.50096  1.0000
  C   C1984     1.0  0.73879  0.62261  0.38779  1.0000
  C   C1985     1.0  0.73493  0.70171  0.76368  1.0000
  H   H1589     1.0  0.51517  0.65535  0.59835  1.0000
  H   H1590     1.0  0.49852  0.57090  0.81701  1.0000
  C   C1986     1.0  0.73703  0.61316  0.50486  1.0000
  C   C1987     1.0  0.71757  0.50073  0.44919  1.0000
  H   H1591     1.0  0.64618  0.50139  0.32985  1.0000
  H   H1592     1.0  0.59084  0.49533  0.36733  1.0000
  C   C1988     1.0  0.72224  0.73136  0.91192  1.0000
  C   C1989     1.0  0.51122  0.64240  0.59584  1.0000
  H   H1593     1.0  0.49840  0.51430  0.68847  1.0000
  H   H1594     1.0  0.73645  0.60458  0.16025  1.0000
  H   H1595     1.0  0.49735  0.59580  0.59100  1.0000
  P   P66       1.0  0.49624  0.49293  0.30107  1.0000
  H   H1596     1.0  0.53324  0.49571  0.28926  1.0000
  C   C1990     1.0  0.71426  0.49374  0.31515  1.0000
  C   C1991     1.0  0.51228  0.49736  0.65275  1.0000
  H   H1597     1.0  0.73042  0.49210  0.49838  1.0000
  C   C1992     1.0  0.74253  0.70914  0.93105  1.0000
  C   C1993     1.0  0.49382  0.63896  0.59696  1.0000
  H   H1598     1.0  0.74154  0.69685  0.73954  1.0000
  C   C1994     1.0  0.49361  0.73736  0.37228  1.0000
  Fe  Fe132     1.0  0.70176  0.80465  0.56972  1.0000
  S   S262      1.0  0.72409  0.82152  0.55754  1.0000
  S   S263      1.0  0.70888  0.77690  0.58696  1.0000
  Fe  Fe133     1.0  0.67591  0.83361  0.55111  1.0000
  S   S264      1.0  0.69668  0.85203  0.53801  1.0000
  S   S265      1.0  0.64762  0.84228  0.55930  1.0000
  Fe  Fe134     1.0  0.71025  0.83064  0.50689  1.0000
  S   S266      1.0  0.72591  0.83734  0.45342  1.0000
  Fe  Fe135     1.0  0.70936  0.84183  0.58924  1.0000
  S   S267      1.0  0.72244  0.86084  0.62635  1.0000
  S   S268      1.0  0.68858  0.81264  0.51735  1.0000
  S   S269      1.0  0.68798  0.82449  0.60404  1.0000
  H   H1599     1.0  0.70040  0.86595  0.42342  1.0000
  H   H1600     1.0  0.63989  0.97700  0.95862  1.0000
  Fe  Fe136     1.0  0.71390  0.92854  0.89644  1.0000
  S   S270      1.0  0.68822  0.93865  0.92143  1.0000
  H   H1601     1.0  0.62406  0.94042  0.88363  1.0000
  S   S271      1.0  0.71826  0.90002  0.89327  1.0000
  Fe  Fe137     1.0  0.55095  0.86220  0.49590  1.0000
  S   S272      1.0  0.52643  0.85438  0.47047  1.0000
  S   S273      1.0  0.57748  0.85364  0.47369  1.0000
  Fe  Fe138     1.0  0.53160  0.88309  0.55356  1.0000
  C   C1995     1.0  0.73309  0.86746  0.19739  1.0000
  H   H1602     1.0  0.62050  0.94588  0.78058  1.0000
  Fe  Fe139     1.0  0.51663  0.84972  0.52830  1.0000
  S   S274      1.0  0.50668  0.82412  0.55075  1.0000
  Fe  Fe140     1.0  0.51715  0.88183  0.47708  1.0000
  H   H1603     1.0  0.49779  0.98253  0.94724  1.0000
  S   S275      1.0  0.54179  0.85605  0.55273  1.0000
  S   S276      1.0  0.54228  0.88975  0.49790  1.0000
  H   H1604     1.0  0.55389  0.98371  0.08834  1.0000
  H   H1605     1.0  0.55603  0.78069  0.59598  1.0000
  S   S277      1.0  0.49981  0.97346  0.21156  1.0000
  C   C1996     1.0  0.50430  0.91386  0.40265  1.0000
  C   C1997     1.0  0.50985  0.98172  0.96096  1.0000
  C   C1998     1.0  0.52367  0.91503  0.61715  1.0000
  C   C1999     1.0  0.50772  0.91773  0.60130  1.0000
  H   H1606     1.0  0.52038  0.92040  0.06673  1.0000
  C   C2000     1.0  0.50191  0.92953  0.10684  1.0000
  H   H1607     1.0  0.66390  0.74279  0.64828  1.0000
  H   H1608     1.0  0.71761  0.74058  0.89173  1.0000
  C   C2001     1.0  0.72899  0.80580  0.12535  1.0000
  C   C2002     1.0  0.73150  0.88098  0.68352  1.0000
  C   C2003     1.0  0.56515  0.78857  0.58158  1.0000
  H   H1609     1.0  0.72050  0.80732  0.14894  1.0000
  C   C2004     1.0  0.64344  0.81851  0.65173  1.0000
  C   C2005     1.0  0.51764  0.93986  0.52233  1.0000
  C   C2006     1.0  0.61219  0.90336  0.53092  1.0000
  H   H1610     1.0  0.62581  0.90116  0.52633  1.0000
  H   H1611     1.0  0.65375  0.92871  0.88550  1.0000
  H   H1612     1.0  0.53564  0.92968  0.34656  1.0000
  S   S278      1.0  0.51354  0.95357  0.30887  1.0000
  H   H1613     1.0  0.73570  0.85039  0.96915  1.0000
  H   H1614     1.0  0.52000  0.94537  0.68253  1.0000
  C   C2007     1.0  0.50935  0.93845  0.34507  1.0000
  C   C2008     1.0  0.67743  0.95910  0.92400  1.0000
  C   C2009     1.0  0.68426  0.97386  0.90844  1.0000
  C   C2010     1.0  0.65217  0.97626  0.94449  1.0000
  C   C2011     1.0  0.66130  0.96046  0.94190  1.0000
  H   H1615     1.0  0.61640  0.96313  0.41492  1.0000
  H   H1616     1.0  0.65583  0.94918  0.95398  1.0000
  H   H1617     1.0  0.51458  0.94401  0.02277  1.0000
  C   C2012     1.0  0.51758  0.86488  0.64600  1.0000
  C   C2013     1.0  0.60705  0.94878  0.77695  1.0000
  C   C2014     1.0  0.56856  0.91561  0.37205  1.0000
  S   S279      1.0  0.73969  0.93186  0.92097  1.0000
  C   C2015     1.0  0.58650  0.97866  0.47553  1.0000
  C   C2016     1.0  0.72689  0.81833  0.38876  1.0000
  H   H1618     1.0  0.73246  0.90465  0.24244  1.0000
  H   H1619     1.0  0.71690  0.81091  0.40133  1.0000
  C   C2017     1.0  0.62843  0.84577  0.53446  1.0000
  C   C2018     1.0  0.61327  0.85058  0.55367  1.0000
  C   C2019     1.0  0.59765  0.85329  0.53555  1.0000
  C   C2020     1.0  0.59696  0.85115  0.49781  1.0000
  C   C2021     1.0  0.61213  0.84647  0.47854  1.0000
  C   C2022     1.0  0.62778  0.84392  0.49665  1.0000
  H   H1620     1.0  0.61359  0.85216  0.58286  1.0000
  H   H1621     1.0  0.58613  0.85686  0.55081  1.0000
  H   H1622     1.0  0.61178  0.84479  0.44937  1.0000
  H   H1623     1.0  0.63932  0.84055  0.48132  1.0000
  C   C2023     1.0  0.72179  0.86720  0.67331  1.0000
  C   C2024     1.0  0.71186  0.85917  0.70051  1.0000
  C   C2025     1.0  0.71160  0.86492  0.73692  1.0000
  C   C2026     1.0  0.72127  0.87875  0.74709  1.0000
  C   C2027     1.0  0.62948  0.75579  0.54930  1.0000
  H   H1624     1.0  0.55864  0.95803  0.76237  1.0000
  H   H1625     1.0  0.70434  0.84854  0.69349  1.0000
  H   H1626     1.0  0.65066  0.78515  0.59571  1.0000
  C   C2028     1.0  0.58016  0.96239  0.79590  1.0000
  C   C2029     1.0  0.73947  0.81898  0.11414  1.0000
  C   C2030     1.0  0.70011  0.75835  0.60825  1.0000
  H   H1627     1.0  0.71801  0.91338  0.31628  1.0000
  C   C2031     1.0  0.68319  0.75790  0.62142  1.0000
  C   C2032     1.0  0.52811  0.92515  0.64626  1.0000
  H   H1628     1.0  0.67496  0.76915  0.61900  1.0000
  H   H1629     1.0  0.60185  0.93660  0.43017  1.0000
  S   S280      1.0  0.53836  0.89918  0.60136  1.0000
  H   H1630     1.0  0.55604  0.98230  0.86674  1.0000
  Fe  Fe141     1.0  0.49762  0.97270  0.27344  1.0000
  C   C2033     1.0  0.61930  0.81533  0.61263  1.0000
  S   S281      1.0  0.50581  0.87656  0.53376  1.0000
  C   C2034     1.0  0.70917  0.86239  0.36787  1.0000
  H   H1631     1.0  0.63151  0.75981  0.52116  1.0000
  C   C2035     1.0  0.49628  0.93044  0.61463  1.0000
  C   C2036     1.0  0.51051  0.97816  0.99864  1.0000
  C   C2037     1.0  0.73432  0.89117  0.23814  1.0000
  H   H1632     1.0  0.52449  0.97107  0.61839  1.0000
  C   C2038     1.0  0.65927  0.95969  0.82069  1.0000
  S   S282      1.0  0.53465  0.98150  0.80423  1.0000
  C   C2039     1.0  0.59750  0.94823  0.44326  1.0000
  S   S283      1.0  0.71997  0.88567  0.79371  1.0000
  C   C2040     1.0  0.64394  0.79590  0.60807  1.0000
  H   H1633     1.0  0.51136  0.79463  0.49878  1.0000
  H   H1634     1.0  0.56318  0.90878  0.54521  1.0000
  H   H1635     1.0  0.51975  0.97655  0.49829  1.0000
  C   C2041     1.0  0.72970  0.79056  0.10650  1.0000
  C   C2042     1.0  0.67697  0.74289  0.63809  1.0000
  C   C2043     1.0  0.62009  0.76135  0.61153  1.0000
  H   H1636     1.0  0.57253  0.97014  0.81458  1.0000
  C   C2044     1.0  0.57493  0.88972  0.40667  1.0000
  H   H1637     1.0  0.57300  0.95438  0.97515  1.0000
  H   H1638     1.0  0.70382  0.85856  0.75742  1.0000
  H   H1639     1.0  0.63973  0.97729  0.80158  1.0000
  H   H1640     1.0  0.56404  0.94073  0.91866  1.0000
  Fe  Fe142     1.0  0.51316  0.98762  0.76493  1.0000
  C   C2045     1.0  0.52047  0.93454  0.48656  1.0000
  H   H1641     1.0  0.74018  0.89513  0.02165  1.0000
  H   H1642     1.0  0.50430  0.96905  0.56845  1.0000
  H   H1643     1.0  0.66931  0.96522  0.80396  1.0000
  C   C2046     1.0  0.56887  0.92493  0.40403  1.0000
  H   H1644     1.0  0.71879  0.89025  0.43299  1.0000
  C   C2047     1.0  0.52305  0.92824  0.35861  1.0000
  H   H1645     1.0  0.58679  0.77260  0.59639  1.0000
  H   H1646     1.0  0.66436  0.80023  0.64459  1.0000
  S   S284      1.0  0.72301  0.93283  0.83831  1.0000
  H   H1647     1.0  0.67619  0.94070  0.84530  1.0000
  H   H1648     1.0  0.74105  0.77663  0.06229  1.0000
  H   H1649     1.0  0.53071  0.96639  0.43862  1.0000
  P   P67       1.0  0.57277  0.92881  0.47888  1.0000
  C   C2048     1.0  0.50932  0.85301  0.62570  1.0000
  C   C2049     1.0  0.50953  0.98124  0.57384  1.0000
  C   C2050     1.0  0.52631  0.97847  0.01593  1.0000
  H   H1650     1.0  0.59746  0.97343  0.97289  1.0000
  H   H1651     1.0  0.73928  0.88734  0.66301  1.0000
  C   C2051     1.0  0.58363  0.94827  0.46837  1.0000
  C   C2052     1.0  0.57252  0.91672  0.43756  1.0000
  H   H1652     1.0  0.61271  0.97927  0.91470  1.0000
  H   H1653     1.0  0.49870  0.74269  0.42815  1.0000
  C   C2053     1.0  0.58627  0.89725  0.56510  1.0000
  C   C2054     1.0  0.67399  0.86947  0.65064  1.0000
  C   C2055     1.0  0.65741  0.86406  0.64647  1.0000
  C   C2056     1.0  0.64367  0.87251  0.66411  1.0000
  C   C2057     1.0  0.64650  0.88656  0.68558  1.0000
  C   C2058     1.0  0.66309  0.89246  0.68882  1.0000
  C   C2059     1.0  0.67687  0.88349  0.67204  1.0000
  P   P68       1.0  0.66656  0.91066  0.71646  1.0000
  C   C2060     1.0  0.66282  0.90378  0.76320  1.0000
  C   C2061     1.0  0.68795  0.91817  0.70933  1.0000
  C   C2062     1.0  0.69420  0.92118  0.67358  1.0000
  C   C2063     1.0  0.71074  0.92689  0.66748  1.0000
  C   C2064     1.0  0.72103  0.92999  0.69701  1.0000
  C   C2065     1.0  0.71474  0.92751  0.73266  1.0000
  C   C2066     1.0  0.69824  0.92172  0.73889  1.0000
  C   C2067     1.0  0.64803  0.90910  0.78287  1.0000
  C   C2068     1.0  0.64558  0.90377  0.81928  1.0000
  C   C2069     1.0  0.65786  0.89313  0.83621  1.0000
  C   C2070     1.0  0.67235  0.88743  0.81642  1.0000
  C   C2071     1.0  0.67464  0.89249  0.77989  1.0000
  C   C2072     1.0  0.65272  0.92862  0.70415  1.0000
  C   C2073     1.0  0.64324  0.92883  0.67207  1.0000
  C   C2074     1.0  0.63278  0.94301  0.66290  1.0000
  C   C2075     1.0  0.63198  0.95718  0.68522  1.0000
  C   C2076     1.0  0.64175  0.95725  0.71661  1.0000
  C   C2077     1.0  0.65212  0.94304  0.72600  1.0000
  H   H1654     1.0  0.68468  0.86276  0.63733  1.0000
  H   H1655     1.0  0.65529  0.85323  0.62969  1.0000
  H   H1656     1.0  0.63085  0.86815  0.66103  1.0000
  H   H1657     1.0  0.63577  0.89288  0.69944  1.0000
  H   H1658     1.0  0.68990  0.88714  0.67547  1.0000
  H   H1659     1.0  0.68641  0.91876  0.65038  1.0000
  H   H1660     1.0  0.71569  0.92866  0.63984  1.0000
  H   H1661     1.0  0.62474  0.74090  0.65065  1.0000
  H   H1662     1.0  0.72282  0.92967  0.75554  1.0000
  H   H1663     1.0  0.69379  0.91988  0.76683  1.0000
  H   H1664     1.0  0.63835  0.91726  0.77028  1.0000
  H   H1665     1.0  0.63425  0.90800  0.83453  1.0000
  H   H1666     1.0  0.65619  0.88928  0.86462  1.0000
  H   H1667     1.0  0.68198  0.87921  0.82933  1.0000
  H   H1668     1.0  0.68585  0.88787  0.76480  1.0000
  H   H1669     1.0  0.64406  0.91824  0.65377  1.0000
  H   H1670     1.0  0.62544  0.94308  0.63820  1.0000
  H   H1671     1.0  0.62393  0.96819  0.67799  1.0000
  H   H1672     1.0  0.64135  0.96834  0.73357  1.0000
  H   H1673     1.0  0.65979  0.94328  0.75019  1.0000
  H   H1674     1.0  0.57933  0.94599  0.86046  1.0000
  C   C2078     1.0  0.52490  0.98450  0.94061  1.0000
  C   C2079     1.0  0.57147  0.89800  0.37340  1.0000
  H   H1675     1.0  0.73837  0.90006  0.38364  1.0000
  H   H1676     1.0  0.52707  0.97655  0.04525  1.0000
  H   H1677     1.0  0.71783  0.78811  0.46259  1.0000
  C   C2080     1.0  0.60392  0.89500  0.55996  1.0000
  C   C2081     1.0  0.52058  0.91602  0.38699  1.0000
  H   H1678     1.0  0.62090  0.83504  0.65201  1.0000
  H   H1679     1.0  0.73396  0.93412  0.69234  1.0000
  H   H1680     1.0  0.57702  0.87602  0.40791  1.0000
  C   C2082     1.0  0.54820  0.93926  0.53129  1.0000
  H   H1681     1.0  0.60679  0.81982  0.60399  1.0000
  C   C2083     1.0  0.60282  0.91405  0.50710  1.0000
  H   H1682     1.0  0.51646  0.84212  0.61488  1.0000
  H   H1683     1.0  0.57088  0.89073  0.34876  1.0000
  C   C2084     1.0  0.55117  0.93361  0.49551  1.0000
  H   H1684     1.0  0.74240  0.78010  0.98263  1.0000
  S   S285      1.0  0.50026  0.89852  0.43850  1.0000
  H   H1685     1.0  0.57968  0.89045  0.58699  1.0000
  P   P69       1.0  0.61714  0.78899  0.56299  1.0000
  C   C2085     1.0  0.62535  0.79370  0.51750  1.0000
  C   C2086     1.0  0.64102  0.80153  0.51179  1.0000
  C   C2087     1.0  0.64699  0.80518  0.47625  1.0000
  C   C2088     1.0  0.63737  0.80115  0.44629  1.0000
  C   C2089     1.0  0.62180  0.79330  0.45175  1.0000
  C   C2090     1.0  0.61584  0.78951  0.48718  1.0000
  C   C2091     1.0  0.59446  0.79428  0.56323  1.0000
  C   C2092     1.0  0.62201  0.76695  0.57501  1.0000
  C   C2093     1.0  0.57111  0.81348  0.54418  1.0000
  C   C2094     1.0  0.58854  0.80902  0.54445  1.0000
  H   H1686     1.0  0.50470  0.94176  0.53296  1.0000
  H   H1687     1.0  0.64852  0.80518  0.53454  1.0000
  H   H1688     1.0  0.65889  0.81157  0.47195  1.0000
  H   H1689     1.0  0.64191  0.80430  0.41889  1.0000
  H   H1690     1.0  0.61424  0.79034  0.42854  1.0000
  H   H1691     1.0  0.60369  0.78349  0.49095  1.0000
  C   C2095     1.0  0.65175  0.80443  0.63580  1.0000
  H   H1692     1.0  0.69656  0.97309  0.89442  1.0000
  H   H1693     1.0  0.56671  0.82488  0.52945  1.0000
  H   H1694     1.0  0.59744  0.81712  0.52994  1.0000
  C   C2096     1.0  0.58263  0.78404  0.58180  1.0000
  H   H1695     1.0  0.54585  0.80683  0.56260  1.0000
  H   H1696     1.0  0.60943  0.91995  0.48421  1.0000
  C   C2097     1.0  0.51659  0.93778  0.65977  1.0000
  C   C2098     1.0  0.53152  0.94235  0.54457  1.0000
  H   H1697     1.0  0.49760  0.76705  0.49732  1.0000
  H   H1698     1.0  0.54043  0.92311  0.65862  1.0000
  S   S286      1.0  0.51579  0.98885  0.70365  1.0000
  C   C2099     1.0  0.59904  0.94179  0.74738  1.0000
  H   H1699     1.0  0.57536  0.93971  0.71919  1.0000
  C   C2100     1.0  0.58506  0.91647  0.51213  1.0000
  C   C2101     1.0  0.51875  0.97371  0.44033  1.0000
  C   C2102     1.0  0.57688  0.90783  0.54123  1.0000
  C   C2103     1.0  0.54060  0.98429  0.95789  1.0000
  C   C2104     1.0  0.57820  0.96365  0.48442  1.0000
  H   H1700     1.0  0.50972  0.93239  0.46937  1.0000
  H   H1701     1.0  0.53892  0.92708  0.44561  1.0000
  H   H1702     1.0  0.56576  0.92199  0.34624  1.0000
  H   H1703     1.0  0.53123  0.90808  0.39638  1.0000
  H   H1704     1.0  0.56614  0.93851  0.40262  1.0000
  C   C2105     1.0  0.62760  0.80120  0.59643  1.0000
  H   H1705     1.0  0.60632  0.93372  0.72864  1.0000
  H   H1706     1.0  0.71735  0.76527  0.51051  1.0000
  H   H1707     1.0  0.74099  0.84299  0.22008  1.0000
  H   H1708     1.0  0.74160  0.74952  0.96964  1.0000
  H   H1709     1.0  0.55875  0.94084  0.54929  1.0000
  H   H1710     1.0  0.53304  0.98763  0.14011  1.0000
  H   H1711     1.0  0.61479  0.76988  0.63202  1.0000
  H   H1712     1.0  0.57810  0.89222  0.46405  1.0000
  C   C2106     1.0  0.72910  0.78513  0.47841  1.0000
  C   C2107     1.0  0.64256  0.96655  0.81969  1.0000
  C   C2108     1.0  0.55939  0.80328  0.56280  1.0000
  H   H1713     1.0  0.70138  0.85151  0.36411  1.0000
  H   H1714     1.0  0.72784  0.80416  0.33874  1.0000
  H   H1715     1.0  0.50427  0.91006  0.57872  1.0000
  H   H1716     1.0  0.52933  0.94611  0.57259  1.0000
  C   C2109     1.0  0.72915  0.93785  0.31108  1.0000
  C   C2110     1.0  0.57550  0.89901  0.43862  1.0000
  H   H1717     1.0  0.50146  0.98057  0.84097  1.0000
  C   C2111     1.0  0.57220  0.95543  0.76630  1.0000
  P   P70       1.0  0.60799  0.96836  0.83990  1.0000
  C   C2112     1.0  0.62965  0.95971  0.84228  1.0000
  H   H1718     1.0  0.52442  0.98710  0.91147  1.0000
  C   C2113     1.0  0.62577  0.74497  0.62224  1.0000
  C   C2114     1.0  0.49377  0.98795  0.86029  1.0000
  C   C2115     1.0  0.58162  0.94514  0.74201  1.0000
  C   C2116     1.0  0.62724  0.82398  0.64009  1.0000
  H   H1719     1.0  0.64967  0.82529  0.67274  1.0000
  C   C2117     1.0  0.63370  0.94587  0.86571  1.0000
  C   C2118     1.0  0.65044  0.93904  0.86657  1.0000
  C   C2119     1.0  0.66317  0.94586  0.84393  1.0000
  C   C2120     1.0  0.72885  0.77227  0.50527  1.0000
  C   C2121     1.0  0.60578  0.96327  0.43445  1.0000
  C   C2122     1.0  0.59687  0.96358  0.88265  1.0000
  C   C2123     1.0  0.58331  0.95237  0.88442  1.0000
  C   C2124     1.0  0.57466  0.94917  0.91761  1.0000
  C   C2125     1.0  0.57970  0.95682  0.94942  1.0000
  C   C2126     1.0  0.59347  0.96758  0.94813  1.0000
  C   C2127     1.0  0.60204  0.97094  0.91494  1.0000
  C   C2128     1.0  0.70859  0.87055  0.40132  1.0000
  H   H1720     1.0  0.56751  0.96420  0.50360  1.0000
  H   H1721     1.0  0.53117  0.86333  0.65060  1.0000
  C   C2129     1.0  0.53714  0.93152  0.47312  1.0000
  C   C2130     1.0  0.50058  0.94033  0.64414  1.0000
  H   H1722     1.0  0.73895  0.89720  0.72705  1.0000
  H   H1723     1.0  0.73909  0.83077  0.12891  1.0000
  H   H1724     1.0  0.72077  0.86082  0.31475  1.0000
  H   H1725     1.0  0.61114  0.88643  0.57786  1.0000
  C   C2131     1.0  0.49997  0.79336  0.48301  1.0000
  C   C2132     1.0  0.73314  0.81453  0.35304  1.0000
  C   C2133     1.0  0.72037  0.86768  0.33992  1.0000
  C   C2134     1.0  0.59769  0.95922  0.80150  1.0000
  C   C2135     1.0  0.71908  0.88417  0.40676  1.0000
  H   H1726     1.0  0.50323  0.98696  0.09539  1.0000
  C   C2136     1.0  0.73345  0.83172  0.40801  1.0000
  H   H1727     1.0  0.55338  0.98197  0.00926  1.0000
  H   H1728     1.0  0.49907  0.81964  0.46549  1.0000
  C   C2137     1.0  0.71063  0.74351  0.61204  1.0000
  C   C2138     1.0  0.51085  0.93023  0.07338  1.0000
  H   H1729     1.0  0.51415  0.97230  0.38262  1.0000
  H   H1730     1.0  0.72179  0.78022  0.11554  1.0000
  H   H1731     1.0  0.49839  0.79244  0.58614  1.0000
  C   C2139     1.0  0.51248  0.97952  0.47411  1.0000
  Fe  Fe143     1.0  0.72928  0.90453  0.83629  1.0000
  C   C2140     1.0  0.49682  0.98878  0.47648  1.0000
  C   C2141     1.0  0.49551  0.95668  0.05746  1.0000
  C   C2142     1.0  0.50942  0.97702  0.40874  1.0000
  H   H1732     1.0  0.60665  0.99014  0.44359  1.0000
  C   C2143     1.0  0.73131  0.88667  0.71998  1.0000
  H   H1733     1.0  0.55220  0.98682  0.94225  1.0000
  C   C2144     1.0  0.54128  0.98147  0.99561  1.0000
  H   H1734     1.0  0.71700  0.94477  0.31423  1.0000
  C   C2145     1.0  0.52103  0.98232  0.60218  1.0000
  C   C2146     1.0  0.60028  0.97848  0.45057  1.0000
  H   H1735     1.0  0.72374  0.74364  0.60212  1.0000
  C   C2147     1.0  0.50760  0.94371  0.04864  1.0000
  C   C2148     1.0  0.73112  0.88126  0.34525  1.0000
  C   C2149     1.0  0.72978  0.92008  0.31234  1.0000
  C   C2150     1.0  0.73022  0.88958  0.37881  1.0000
  C   C2151     1.0  0.74072  0.78860  0.07613  1.0000
  C   C2152     1.0  0.73069  0.88480  0.20394  1.0000
  C   C2153     1.0  0.50849  0.87919  0.65894  1.0000
  C   C2154     1.0  0.49384  0.98621  0.41084  1.0000
  C   C2155     1.0  0.73906  0.85645  0.22504  1.0000
  H   H1736     1.0  0.51508  0.88873  0.67343  1.0000
  H   H1737     1.0  0.72618  0.89331  0.18230  1.0000
  H   H1738     1.0  0.73057  0.86257  0.17070  1.0000
  H   H1739     1.0  0.50456  0.91924  0.12627  1.0000
  C   C2156     1.0  0.74058  0.88019  0.26591  1.0000
  C   C2157     1.0  0.67515  0.98967  0.91116  1.0000
  C   C2158     1.0  0.49306  0.93636  0.36081  1.0000
  H   H1740     1.0  0.74251  0.75960  0.54883  1.0000
  C   C2159     1.0  0.49303  0.80751  0.46416  1.0000
  Fe  Fe144     1.0  0.85014  0.00650  0.77337  1.0000
  S   S287      1.0  0.84528  0.02939  0.80818  1.0000
  H   H1741     1.0  0.95387  0.12302  0.02116  1.0000
  Fe  Fe145     1.0  0.88455  0.01983  0.74144  1.0000
  S   S288      1.0  0.88159  0.04369  0.77458  1.0000
  S   S289      1.0  0.91118  0.01588  0.71336  1.0000
  Fe  Fe146     1.0  0.87324  0.02659  0.82078  1.0000
  S   S290      1.0  0.88217  0.02976  0.87848  1.0000
  Fe  Fe147     1.0  0.85410  0.04504  0.75944  1.0000
  S   S291      1.0  0.83949  0.06989  0.74349  1.0000
  H   H1742     1.0  0.96726  0.15501  0.34736  1.0000
  S   S292      1.0  0.85719  0.02218  0.72274  1.0000
  H   H1743     1.0  0.95540  0.07950  0.82545  1.0000
  H   H1744     1.0  0.79293  0.09973  0.75292  1.0000
  H   H1745     1.0  0.89596  0.99982  0.65050  1.0000
  Fe  Fe148     1.0  0.83877  0.20447  0.83108  1.0000
  S   S293      1.0  0.82784  0.17884  0.84264  1.0000
  S   S294      1.0  0.85611  0.21925  0.86896  1.0000
  Fe  Fe149     1.0  0.82459  0.20639  0.75129  1.0000
  S   S295      1.0  0.81314  0.18045  0.75873  1.0000
  C   C2160     1.0  0.89202  0.21924  0.32729  1.0000
  Fe  Fe150     1.0  0.80405  0.18904  0.81469  1.0000
  S   S296      1.0  0.77790  0.17949  0.83463  1.0000
  Fe  Fe151     1.0  0.83749  0.17179  0.78635  1.0000
  S   S297      1.0  0.85397  0.14693  0.78339  1.0000
  S   S298      1.0  0.81422  0.21533  0.80647  1.0000
  S   S299      1.0  0.84971  0.19714  0.77560  1.0000
  Fe  Fe152     1.0  0.93290  0.22368  0.12574  1.0000
  S   S300      1.0  0.95770  0.20785  0.13583  1.0000
  C   C2161     1.0  0.95852  0.16491  0.33707  1.0000
  S   S301      1.0  0.88648  0.21604  0.03171  1.0000
  C   C2162     1.0  0.95707  0.00699  0.18274  1.0000
  S   S302      1.0  0.90519  0.21704  0.12896  1.0000
  H   H1746     1.0  0.91568  0.13063  0.06337  1.0000
  H   H1747     1.0  0.85719  0.00827  0.92958  1.0000
  H   H1748     1.0  0.90854  0.15088  0.11289  1.0000
  H   H1749     1.0  0.84410  0.03021  0.88906  1.0000
  S   S303      1.0  0.98773  0.02704  0.41405  1.0000
  H   H1750     1.0  0.87142  0.17974  0.87727  1.0000
  H   H1751     1.0  0.76708  0.12831  0.95108  1.0000
  S   S304      1.0  0.87771  0.00272  0.78942  1.0000
  C   C2163     1.0  0.86398  0.21827  0.91479  1.0000
  C   C2164     1.0  0.85883  0.20617  0.94107  1.0000
  C   C2165     1.0  0.86582  0.20575  0.97643  1.0000
  C   C2166     1.0  0.87781  0.21759  0.98660  1.0000
  C   C2167     1.0  0.74304  0.21259  0.88322  1.0000
  H   H1752     1.0  0.87077  0.16085  0.93233  1.0000
  H   H1753     1.0  0.84963  0.19697  0.93398  1.0000
  H   H1754     1.0  0.86188  0.19612  0.99607  1.0000
  C   C2168     1.0  0.75963  0.18863  0.85792  1.0000
  C   C2169     1.0  0.75791  0.20599  0.86515  1.0000
  H   H1755     1.0  0.92134  0.19531  0.90407  1.0000
  H   H1756     1.0  0.76799  0.21434  0.85666  1.0000
  H   H1757     1.0  0.99053  0.19112  0.14494  1.0000
  H   H1758     1.0  0.96207  0.02566  0.84240  1.0000
  H   H1759     1.0  0.90973  0.18190  0.10052  1.0000
  H   H1760     1.0  0.92392  0.14134  0.00183  1.0000
  C   C2170     1.0  0.95477  0.19831  0.98051  1.0000
  C   C2171     1.0  0.97494  0.03594  0.79428  1.0000
  C   C2172     1.0  0.97527  0.15810  0.19639  1.0000
  C   C2173     1.0  0.95785  0.16335  0.19679  1.0000
  C   C2174     1.0  0.95220  0.17862  0.17904  1.0000
  C   C2175     1.0  0.96393  0.18876  0.16010  1.0000
  C   C2176     1.0  0.98131  0.18345  0.15951  1.0000
  C   C2177     1.0  0.96277  0.04893  0.26614  1.0000
  H   H1761     1.0  0.94866  0.15553  0.21104  1.0000
  H   H1762     1.0  0.93879  0.18244  0.17971  1.0000
  C   C2178     1.0  0.74629  0.17802  0.86909  1.0000
  C   C2179     1.0  0.91920  0.01002  0.66910  1.0000
  C   C2180     1.0  0.80853  0.00825  0.91168  1.0000
  H   H1763     1.0  0.81319  0.02984  0.87589  1.0000
  H   H1764     1.0  0.78439  0.03726  0.80242  1.0000
  C   C2181     1.0  0.94351  0.00821  0.62526  1.0000
  C   C2182     1.0  0.93642  0.01295  0.65960  1.0000
  H   H1765     1.0  0.98726  0.05052  0.75093  1.0000
  H   H1766     1.0  0.89646  0.19712  0.86378  1.0000
  H   H1767     1.0  0.95663  0.01082  0.61818  1.0000
  H   H1768     1.0  0.94430  0.01902  0.67886  1.0000
  C   C2183     1.0  0.90312  0.02191  0.88693  1.0000
  C   C2184     1.0  0.98727  0.02124  0.67139  1.0000
  C   C2185     1.0  0.90506  0.13967  0.70053  1.0000
  C   C2186     1.0  0.93682  0.01008  0.90069  1.0000
  C   C2187     1.0  0.93002  0.00886  0.86588  1.0000
  C   C2188     1.0  0.91323  0.01468  0.85899  1.0000
  H   H1769     1.0  0.89513  0.15916  0.97371  1.0000
  C   C2189     1.0  0.95829  0.22919  0.22405  1.0000
  H   H1770     1.0  0.90816  0.01368  0.83198  1.0000
  C   C2190     1.0  0.84354  0.09113  0.75603  1.0000
  C   C2191     1.0  0.83268  0.10452  0.74328  1.0000
  C   C2192     1.0  0.83520  0.12155  0.75255  1.0000
  C   C2193     1.0  0.84898  0.12551  0.77398  1.0000
  C   C2194     1.0  0.85989  0.11212  0.78667  1.0000
  C   C2195     1.0  0.85712  0.09504  0.77810  1.0000
  H   H1771     1.0  0.82236  0.10169  0.72566  1.0000
  H   H1772     1.0  0.82678  0.13166  0.74223  1.0000
  H   H1773     1.0  0.87062  0.11499  0.80319  1.0000
  H   H1774     1.0  0.86562  0.08492  0.78814  1.0000
  C   C2196     1.0  0.95944  0.09844  0.04676  1.0000
  H   H1775     1.0  0.81107  0.21910  0.39907  1.0000
  H   H1776     1.0  0.91280  0.20994  0.97044  1.0000
  C   C2197     1.0  0.89373  0.12960  0.72055  1.0000
  C   C2198     1.0  0.98344  0.13845  0.06078  1.0000
  S   S305      1.0  0.93069  0.23496  0.06862  1.0000
  C   C2199     1.0  0.92137  0.11436  0.68232  1.0000
  C   C2200     1.0  0.91003  0.10409  0.70242  1.0000
  C   C2201     1.0  0.89620  0.11194  0.72151  1.0000
  P   P71       1.0  0.91303  0.08111  0.70296  1.0000
  C   C2202     1.0  0.89513  0.07084  0.68342  1.0000
  C   C2203     1.0  0.93200  0.07516  0.67620  1.0000
  C   C2204     1.0  0.93091  0.07238  0.63861  1.0000
  C   C2205     1.0  0.94538  0.06692  0.61836  1.0000
  C   C2206     1.0  0.96110  0.06448  0.63529  1.0000
  C   C2207     1.0  0.96240  0.06766  0.67248  1.0000
  C   C2208     1.0  0.94793  0.07308  0.69284  1.0000
  C   C2209     1.0  0.87909  0.07921  0.67924  1.0000
  C   C2210     1.0  0.86545  0.07065  0.66527  1.0000
  C   C2211     1.0  0.86768  0.05376  0.65493  1.0000
  C   C2212     1.0  0.88362  0.04543  0.65827  1.0000
  C   C2213     1.0  0.89724  0.05391  0.67244  1.0000
  C   C2214     1.0  0.91574  0.07213  0.74861  1.0000
  C   C2215     1.0  0.92195  0.05523  0.75285  1.0000
  C   C2216     1.0  0.92294  0.04752  0.78752  1.0000
  C   C2217     1.0  0.91768  0.05659  0.81836  1.0000
  C   C2218     1.0  0.91207  0.07355  0.81467  1.0000
  C   C2219     1.0  0.91124  0.08137  0.78003  1.0000
  C   C2220     1.0  0.78425  0.14058  0.72601  1.0000
  H   H1777     1.0  0.96063  0.15642  0.28162  1.0000
  C   C2221     1.0  0.78960  0.11308  0.75552  1.0000
  H   H1778     1.0  0.93208  0.10881  0.66704  1.0000
  H   H1779     1.0  0.88715  0.10440  0.73691  1.0000
  H   H1780     1.0  0.91883  0.07415  0.62497  1.0000
  H   H1781     1.0  0.94437  0.06441  0.58953  1.0000
  H   H1782     1.0  0.94433  0.08764  0.22316  1.0000
  H   H1783     1.0  0.97462  0.06583  0.68549  1.0000
  H   H1784     1.0  0.94913  0.07544  0.72161  1.0000
  H   H1785     1.0  0.87674  0.09221  0.68683  1.0000
  H   H1786     1.0  0.85297  0.07701  0.66344  1.0000
  C   C2222     1.0  0.81574  0.99610  0.93601  1.0000
  H   H1787     1.0  0.88538  0.03227  0.65057  1.0000
  H   H1788     1.0  0.90945  0.04717  0.67476  1.0000
  H   H1789     1.0  0.92555  0.04777  0.72928  1.0000
  H   H1790     1.0  0.92706  0.03427  0.79030  1.0000
  H   H1791     1.0  0.91774  0.05038  0.84507  1.0000
  H   H1792     1.0  0.90789  0.08050  0.83863  1.0000
  H   H1793     1.0  0.90677  0.09444  0.77832  1.0000
  C   C2223     1.0  0.97141  0.06653  0.78539  1.0000
  S   S306      1.0  0.97400  0.03732  0.07479  1.0000
  C   C2224     1.0  0.98211  0.02238  0.70811  1.0000
  C   C2225     1.0  0.80692  0.22651  0.37539  1.0000
  H   H1794     1.0  0.90214  0.02880  0.94356  1.0000
  C   C2226     1.0  0.96082  0.00182  0.14714  1.0000
  H   H1795     1.0  0.88008  0.23960  0.90518  1.0000
  C   C2227     1.0  0.95044  0.22894  0.98144  1.0000
  C   C2228     1.0  0.77663  0.11860  0.89967  1.0000
  C   C2229     1.0  0.76395  0.12532  0.92337  1.0000
  H   H1796     1.0  0.95459  0.99951  0.23892  1.0000
  C   C2230     1.0  0.95476  0.16569  0.30003  1.0000
  C   C2231     1.0  0.97141  0.10452  0.15925  1.0000
  S   S307      1.0  0.94182  0.99319  0.55671  1.0000
  S   S308      1.0  0.98751  0.01231  0.52564  1.0000
  H   H1797     1.0  0.82834  0.99241  0.07478  1.0000
  H   H1798     1.0  0.95008  0.01438  0.75877  1.0000
  H   H1799     1.0  0.94987  0.05322  0.86209  1.0000
  C   C2232     1.0  0.95727  0.99508  0.21170  1.0000
  H   H1800     1.0  0.97081  0.10377  0.21803  1.0000
  C   C2233     1.0  0.88269  0.22991  0.96055  1.0000
  H   H1801     1.0  0.93360  0.08054  0.96772  1.0000
  C   C2234     1.0  0.96457  0.03695  0.82595  1.0000
  S   S309      1.0  0.95809  0.00097  0.01874  1.0000
  C   C2235     1.0  0.97860  0.05087  0.77439  1.0000
  C   C2236     1.0  0.98278  0.15624  0.05971  1.0000
  C   C2237     1.0  0.90991  0.02320  0.92185  1.0000
  C   C2238     1.0  0.83684  0.22486  0.63254  1.0000
  H   H1802     1.0  0.81281  0.22998  0.14356  1.0000
  C   C2239     1.0  0.81583  0.22504  0.34203  1.0000
  H   H1803     1.0  0.84446  0.21420  0.64306  1.0000
  H   H1804     1.0  0.78355  0.14848  0.70144  1.0000
  C   C2240     1.0  0.96131  0.21449  0.98373  1.0000
  H   H1805     1.0  0.78230  0.22886  0.16337  1.0000
  H   H1806     1.0  0.85699  0.04705  0.64487  1.0000
  C   C2241     1.0  0.95354  0.00235  0.77199  1.0000
  H   H1807     1.0  0.96220  0.07217  0.06512  1.0000
  Fe  Fe153     1.0  0.98037  0.01589  0.03580  1.0000
  H   H1808     1.0  0.93764  0.11162  0.97104  1.0000
  H   H1809     1.0  0.96993  0.02865  0.71486  1.0000
  Fe  Fe154     1.0  0.90253  0.23004  0.07342  1.0000
  C   C2242     1.0  0.95772  0.05263  0.83733  1.0000
  H   H1810     1.0  0.96343  0.18735  0.98260  1.0000
  P   P72       1.0  0.98525  0.01587  0.78292  1.0000
  H   H1811     1.0  0.88499  0.21213  0.30817  1.0000
  C   C2243     1.0  0.88279  0.22947  0.35213  1.0000
  H   H1812     1.0  0.90301  0.15337  0.69969  1.0000
  C   C2244     1.0  0.91850  0.22883  0.35113  1.0000
  C   C2245     1.0  0.90999  0.21884  0.32655  1.0000
  Fe  Fe155     1.0  0.99016  0.00905  0.46439  1.0000
  P   P73       1.0  0.92211  0.20745  0.29148  1.0000
  C   C2246     1.0  0.93446  0.22270  0.26526  1.0000
  C   C2247     1.0  0.93619  0.19075  0.30994  1.0000
  C   C2248     1.0  0.94354  0.17843  0.28661  1.0000
  H   H1813     1.0  0.95738  0.15687  0.00393  1.0000
  H   H1814     1.0  0.75292  0.11616  0.82329  1.0000
  C   C2249     1.0  0.95095  0.17681  0.36075  1.0000
  C   C2250     1.0  0.93981  0.18967  0.34732  1.0000
  S   S310      1.0  0.81922  0.22472  0.70107  1.0000
  H   H1815     1.0  0.75994  0.05290  0.83245  1.0000
  C   C2251     1.0  0.77432  0.99597  0.99016  1.0000
  H   H1816     1.0  0.81798  0.23381  0.28648  1.0000
  C   C2252     1.0  0.94838  0.21731  0.24291  1.0000
  C   C2253     1.0  0.90741  0.19788  0.26167  1.0000
  C   C2254     1.0  0.90012  0.20742  0.23287  1.0000
  C   C2255     1.0  0.88769  0.20045  0.21159  1.0000
  C   C2256     1.0  0.88268  0.18382  0.21846  1.0000
  C   C2257     1.0  0.88989  0.17422  0.24709  1.0000
  C   C2258     1.0  0.90207  0.18127  0.26890  1.0000
  H   H1817     1.0  0.80858  0.00034  0.82012  1.0000
  C   C2259     1.0  0.91887  0.13206  0.68144  1.0000
  H   H1818     1.0  0.74624  0.05185  0.91123  1.0000
  H   H1819     1.0  0.93231  0.22915  0.35029  1.0000
  H   H1820     1.0  0.85476  0.21929  0.07968  1.0000
  H   H1821     1.0  0.94057  0.17861  0.25793  1.0000
  H   H1822     1.0  0.85606  0.23223  0.14056  1.0000
  H   H1823     1.0  0.93087  0.99515  0.33796  1.0000
  H   H1824     1.0  0.95376  0.17606  0.38956  1.0000
  H   H1825     1.0  0.93403  0.19858  0.36632  1.0000
  C   C2260     1.0  0.92673  0.01726  0.92878  1.0000
  S   S311      1.0  0.98161  0.13894  0.22033  1.0000
  H   H1826     1.0  0.97920  0.02665  0.65016  1.0000
  H   H1827     1.0  0.95167  0.20401  0.23957  1.0000
  H   H1828     1.0  0.90372  0.22040  0.22736  1.0000
  H   H1829     1.0  0.88176  0.20808  0.19006  1.0000
  H   H1830     1.0  0.87306  0.17848  0.20185  1.0000
  H   H1831     1.0  0.88588  0.16138  0.25272  1.0000
  H   H1832     1.0  0.90713  0.17381  0.29165  1.0000
  C   C2261     1.0  0.95689  0.08093  0.04476  1.0000
  C   C2262     1.0  0.94071  0.08558  0.98979  1.0000
  C   C2263     1.0  0.94299  0.10306  0.99171  1.0000
  C   C2264     1.0  0.78829  0.12320  0.72371  1.0000
  Fe  Fe156     1.0  0.96792  0.99218  0.52603  1.0000
  C   C2265     1.0  0.95229  0.10948  0.02011  1.0000
  C   C2266     1.0  0.81871  0.02057  0.89495  1.0000
  H   H1833     1.0  0.79072  0.11759  0.69728  1.0000
  C   C2267     1.0  0.96328  0.10006  0.12730  1.0000
  C   C2268     1.0  0.94788  0.09144  0.13055  1.0000
  C   C2269     1.0  0.94120  0.08678  0.16495  1.0000
  C   C2270     1.0  0.94955  0.09107  0.19646  1.0000
  H   H1834     1.0  0.92448  0.23836  0.97515  1.0000
  C   C2271     1.0  0.98595  0.05808  0.12682  1.0000
  C   C2272     1.0  0.95777  0.13860  0.09907  1.0000
  C   C2273     1.0  0.95702  0.15636  0.09741  1.0000
  C   C2274     1.0  0.96957  0.16520  0.07804  1.0000
  C   C2275     1.0  0.83342  0.99600  0.94196  1.0000
  H   H1835     1.0  0.75209  0.00780  0.01637  1.0000
  C   C2276     1.0  0.97741  0.05591  0.25031  1.0000
  Fe  Fe157     1.0  0.97017  0.00140  0.96280  1.0000
  H   H1836     1.0  0.95212  0.02684  0.29252  1.0000
  H   H1837     1.0  0.95415  0.02030  0.18786  1.0000
  C   C2277     1.0  0.87595  0.23014  0.92502  1.0000
  C   C2278     1.0  0.97107  0.12949  0.08099  1.0000
  H   H1838     1.0  0.92759  0.13989  0.66571  1.0000
  C   C2279     1.0  0.75606  0.11845  0.85135  1.0000
  H   H1839     1.0  0.96917  0.17899  0.07788  1.0000
  P   P74       1.0  0.97199  0.10650  0.08301  1.0000
  H   H1840     1.0  0.91811  0.19283  0.03960  1.0000
  H   H1841     1.0  0.94085  0.08830  0.10683  1.0000
  H   H1842     1.0  0.92947  0.07993  0.16716  1.0000
  C   C2280     1.0  0.74615  0.99806  0.96393  1.0000
  H   H1843     1.0  0.94604  0.06093  0.01495  1.0000
  H   H1844     1.0  0.97225  0.06015  0.61950  1.0000
  H   H1845     1.0  0.94809  0.13203  0.11489  1.0000
  H   H1846     1.0  0.94692  0.16337  0.11192  1.0000
  H   H1847     1.0  0.74750  0.16457  0.86383  1.0000
  H   H1848     1.0  0.97421  0.07802  0.76996  1.0000
  H   H1849     1.0  0.89611  0.22095  0.61934  1.0000
  C   C2281     1.0  0.93299  0.22721  0.97626  1.0000
  H   H1850     1.0  0.97951  0.13692  0.97871  1.0000
  H   H1851     1.0  0.97892  0.00956  0.28877  1.0000
  C   C2282     1.0  0.98696  0.16826  0.17749  1.0000
  C   C2283     1.0  0.94765  0.07453  0.01636  1.0000
  C   C2284     1.0  0.83386  0.12885  0.86110  1.0000
  C   C2285     1.0  0.84224  0.11551  0.87994  1.0000
  C   C2286     1.0  0.83448  0.09991  0.88466  1.0000
  C   C2287     1.0  0.81838  0.09762  0.87025  1.0000
  C   C2288     1.0  0.81013  0.11079  0.85003  1.0000
  C   C2289     1.0  0.81791  0.12653  0.84608  1.0000
  P   P75       1.0  0.78927  0.10776  0.83160  1.0000
  C   C2290     1.0  0.78704  0.12035  0.78994  1.0000
  C   C2291     1.0  0.78739  0.08544  0.82221  1.0000
  C   C2292     1.0  0.80112  0.07643  0.80533  1.0000
  C   C2293     1.0  0.80002  0.05914  0.79830  1.0000
  H   H1852     1.0  0.95098  0.05652  0.26800  1.0000
  C   C2294     1.0  0.77145  0.05949  0.82503  1.0000
  C   C2295     1.0  0.77252  0.07682  0.83210  1.0000
  C   C2296     1.0  0.83615  0.02072  0.90206  1.0000
  C   C2297     1.0  0.99248  0.01528  0.73571  1.0000
  H   H1853     1.0  0.88291  0.13548  0.73515  1.0000
  C   C2298     1.0  0.78135  0.14783  0.76012  1.0000
  C   C2299     1.0  0.78274  0.13779  0.79191  1.0000
  C   C2300     1.0  0.77278  0.11518  0.86341  1.0000
  S   S312      1.0  0.96890  0.99047  0.46440  1.0000
  H   H1854     1.0  0.93515  0.16224  0.89745  1.0000
  C   C2301     1.0  0.96455  0.10004  0.19357  1.0000
  H   H1855     1.0  0.78946  0.11647  0.90954  1.0000
  C   C2302     1.0  0.84353  0.00835  0.92524  1.0000
  H   H1856     1.0  0.83994  0.14091  0.85717  1.0000
  H   H1857     1.0  0.85482  0.11725  0.89056  1.0000
  H   H1858     1.0  0.84101  0.08954  0.89916  1.0000
  H   H1859     1.0  0.81253  0.08549  0.87455  1.0000
  H   H1860     1.0  0.81191  0.13702  0.83104  1.0000
  H   H1861     1.0  0.81274  0.08278  0.79744  1.0000
  H   H1862     1.0  0.81069  0.05239  0.78492  1.0000
  H   H1863     1.0  0.96063  0.01104  0.12467  1.0000
  C   C2303     1.0  0.78520  0.05066  0.80814  1.0000
  H   H1864     1.0  0.76177  0.08338  0.84525  1.0000
  C   C2304     1.0  0.96341  0.03222  0.27991  1.0000
  H   H1865     1.0  0.76752  0.23289  0.76255  1.0000
  H   H1866     1.0  0.79515  0.00811  0.90512  1.0000
  H   H1867     1.0  0.77835  0.16135  0.76211  1.0000
  H   H1868     1.0  0.78076  0.14375  0.81811  1.0000
  H   H1869     1.0  0.97272  0.06202  0.13134  1.0000
  H   H1870     1.0  0.97700  0.06886  0.23961  1.0000
  C   C2305     1.0  0.74340  0.12510  0.87517  1.0000
  C   C2306     1.0  0.91632  0.99734  0.60955  1.0000
  S   S313      1.0  0.95811  0.00283  0.90727  1.0000
  C   C2307     1.0  0.96093  0.06739  0.81680  1.0000
  C   C2308     1.0  0.99025  0.04565  0.10092  1.0000
  C   C2309     1.0  0.96973  0.14243  0.96117  1.0000
  C   C2310     1.0  0.96968  0.13823  0.92435  1.0000
  C   C2311     1.0  0.95717  0.14542  0.90161  1.0000
  C   C2312     1.0  0.94465  0.15679  0.91566  1.0000
  C   C2313     1.0  0.94448  0.16093  0.95275  1.0000
  C   C2314     1.0  0.95719  0.15373  0.97533  1.0000
  P   P76       1.0  0.92848  0.17568  0.97140  1.0000
  C   C2315     1.0  0.91022  0.17700  0.94193  1.0000
  C   C2316     1.0  0.92197  0.16788  0.01621  1.0000
  C   C2317     1.0  0.91778  0.17922  0.04431  1.0000
  C   C2318     1.0  0.91295  0.17306  0.07900  1.0000
  C   C2319     1.0  0.91224  0.15557  0.08591  1.0000
  C   C2320     1.0  0.91628  0.14419  0.05804  1.0000
  C   C2321     1.0  0.92105  0.15031  0.02326  1.0000
  C   C2322     1.0  0.89583  0.16728  0.94958  1.0000
  C   C2323     1.0  0.88197  0.16813  0.92611  1.0000
  C   C2324     1.0  0.88234  0.17873  0.89500  1.0000
  C   C2325     1.0  0.89651  0.18855  0.88737  1.0000
  C   C2326     1.0  0.91045  0.18763  0.91055  1.0000
  C   C2327     1.0  0.93725  0.19648  0.97506  1.0000
  C   C2328     1.0  0.92641  0.21106  0.97346  1.0000
  H   H1871     1.0  0.93190  0.01827  0.95571  1.0000
  H   H1872     1.0  0.97480  0.21585  0.98830  1.0000
  H   H1873     1.0  0.95719  0.14226  0.87298  1.0000
  H   H1874     1.0  0.90842  0.99121  0.59035  1.0000
  C   C2329     1.0  0.75457  0.22849  0.76480  1.0000
  C   C2330     1.0  0.97871  0.02250  0.27807  1.0000
  C   C2331     1.0  0.82381  0.23216  0.65475  1.0000
  H   H1875     1.0  0.93776  0.00330  0.84420  1.0000
  H   H1876     1.0  0.85200  0.23735  0.02455  1.0000
  H   H1877     1.0  0.86894  0.23016  0.35194  1.0000
  C   C2332     1.0  0.85320  0.23295  0.08226  1.0000
  C   C2333     1.0  0.75706  0.00131  0.99239  1.0000
  H   H1878     1.0  0.98993  0.07878  0.04088  1.0000
  C   C2334     1.0  0.96974  0.99950  0.78714  1.0000
  H   H1879     1.0  0.82689  0.21642  0.33979  1.0000
  C   C2335     1.0  0.89135  0.23939  0.37632  1.0000
  H   H1880     1.0  0.97940  0.12946  0.91340  1.0000
  H   H1881     1.0  0.98637  0.00280  0.85867  1.0000
  H   H1882     1.0  0.92899  0.99203  0.76252  1.0000
  H   H1883     1.0  0.76264  0.20252  0.77618  1.0000
  H   H1884     1.0  0.85010  0.22538  0.58000  1.0000
  C   C2336     1.0  0.74737  0.12861  0.91111  1.0000
  H   H1885     1.0  0.88983  0.21757  0.55388  1.0000
  H   H1886     1.0  0.81992  0.99930  0.01171  1.0000
  H   H1887     1.0  0.78251  0.99851  0.01257  1.0000
  C   C2337     1.0  0.75182  0.21133  0.77222  1.0000
  C   C2338     1.0  0.90917  0.00227  0.64368  1.0000
  H   H1888     1.0  0.98376  0.04557  0.34615  1.0000
  S   S314      1.0  0.99105  0.01844  0.97837  1.0000
  C   C2339     1.0  0.89063  0.23154  0.60366  1.0000
  H   H1889     1.0  0.99113  0.01686  0.19659  1.0000
  C   C2340     1.0  0.84007  0.23132  0.59656  1.0000
  C   C2341     1.0  0.90920  0.23901  0.37597  1.0000
  C   C2342     1.0  0.81071  0.23497  0.31178  1.0000
  H   H1890     1.0  0.98292  0.11170  0.15800  1.0000
  C   C2343     1.0  0.93355  0.00015  0.60008  1.0000
  H   H1891     1.0  0.96883  0.22486  0.20641  1.0000
  C   C2344     1.0  0.79284  0.23783  0.37846  1.0000
  C   C2345     1.0  0.88716  0.22964  0.56678  1.0000
  H   H1892     1.0  0.89195  0.23905  0.96739  1.0000
  H   H1893     1.0  0.76214  0.23781  0.28780  1.0000
  H   H1894     1.0  0.80917  0.23685  0.95818  1.0000
  H   H1895     1.0  0.78123  0.99100  0.84845  1.0000
  C   C2346     1.0  0.79128  0.23518  0.17998  1.0000
  C   C2347     1.0  0.80844  0.23583  0.16878  1.0000
  H   H1896     1.0  0.78611  0.23929  0.40450  1.0000
  H   H1897     1.0  0.82211  0.23914  0.89588  1.0000
  Fe  Fe158     1.0  0.85362  0.47019  0.48524  1.0000
  S   S315      1.0  0.86426  0.45863  0.43357  1.0000
  C   C2348     1.0  0.81997  0.24404  0.19015  1.0000
  Fe  Fe159     1.0  0.88294  0.45351  0.53183  1.0000
  S   S316      1.0  0.89493  0.44076  0.48272  1.0000
  S   S317      1.0  0.89561  0.44887  0.58765  1.0000
  Fe  Fe160     1.0  0.89004  0.46565  0.45291  1.0000
  H   H1898     1.0  0.81484  0.27350  0.32977  1.0000
  Fe  Fe161     1.0  0.86815  0.43422  0.46738  1.0000
  S   S318      1.0  0.86403  0.40842  0.44002  1.0000
  S   S319      1.0  0.87930  0.47871  0.50290  1.0000
  S   S320      1.0  0.85621  0.44554  0.51855  1.0000
  H   H1899     1.0  0.77234  0.24196  0.22070  1.0000
  H   H1900     1.0  0.74282  0.25328  0.75527  1.0000
  H   H1901     1.0  0.84169  0.25402  0.30948  1.0000
  C   C2349     1.0  0.85025  0.26105  0.05362  1.0000
  H   H1902     1.0  0.75803  0.26666  0.50800  1.0000
  H   H1903     1.0  0.82276  0.48245  0.41397  1.0000
  S   S321      1.0  0.95241  0.47059  0.27514  1.0000
  H   H1904     1.0  0.97640  0.40895  0.99547  1.0000
  Fe  Fe162     1.0  0.82651  0.30926  0.45635  1.0000
  S   S322      1.0  0.84772  0.28908  0.46018  1.0000
  S   S323      1.0  0.82864  0.33683  0.47688  1.0000
  Fe  Fe163     1.0  0.80101  0.28314  0.43074  1.0000
  S   S324      1.0  0.82120  0.26173  0.43252  1.0000
  S   S325      1.0  0.77374  0.27477  0.41876  1.0000
  Fe  Fe164     1.0  0.82834  0.27181  0.48739  1.0000
  S   S326      1.0  0.83531  0.25283  0.53557  1.0000
  Fe  Fe165     1.0  0.83900  0.28031  0.40516  1.0000
  S   S327      1.0  0.86011  0.27534  0.35990  1.0000
  S   S328      1.0  0.80754  0.29238  0.48644  1.0000
  S   S329      1.0  0.81842  0.30130  0.40056  1.0000
  H   H1905     1.0  0.87768  0.47156  0.64829  1.0000
  S   S330      1.0  0.89606  0.25544  0.09862  1.0000
  Fe  Fe166     1.0  0.92454  0.25968  0.09642  1.0000
  S   S331      1.0  0.93309  0.28589  0.07491  1.0000
  H   H1906     1.0  0.98493  0.41782  0.16372  1.0000
  C   C2350     1.0  0.84116  0.25641  0.91137  1.0000
  C   C2351     1.0  0.87436  0.25372  0.24478  1.0000
  C   C2352     1.0  0.88567  0.26362  0.26341  1.0000
  C   C2353     1.0  0.88111  0.27000  0.29840  1.0000
  C   C2354     1.0  0.86511  0.26685  0.31537  1.0000
  C   C2355     1.0  0.85389  0.25682  0.29684  1.0000
  C   C2356     1.0  0.82713  0.24626  0.91796  1.0000
  H   H1907     1.0  0.83310  0.29818  0.32668  1.0000
  C   C2357     1.0  0.80219  0.27979  0.27877  1.0000
  C   C2358     1.0  0.79723  0.25085  0.23434  1.0000
  C   C2359     1.0  0.98452  0.47719  0.38339  1.0000
  H   H1908     1.0  0.97413  0.41317  0.45578  1.0000
  H   H1909     1.0  0.76499  0.30737  0.38111  1.0000
  H   H1910     1.0  0.89381  0.48135  0.75756  1.0000
  P   P77       1.0  0.97999  0.44484  0.41397  1.0000
  C   C2360     1.0  0.81736  0.25249  0.60382  1.0000
  H   H1911     1.0  0.81053  0.31493  0.22593  1.0000
  C   C2361     1.0  0.94046  0.25206  0.24887  1.0000
  C   C2362     1.0  0.85083  0.26827  0.08827  1.0000
  C   C2363     1.0  0.96816  0.28569  0.05645  1.0000
  C   C2364     1.0  0.95294  0.29529  0.06190  1.0000
  C   C2365     1.0  0.95329  0.31305  0.05619  1.0000
  C   C2366     1.0  0.96859  0.32113  0.04596  1.0000
  H   H1912     1.0  0.96816  0.27203  0.05994  1.0000
  H   H1913     1.0  0.94163  0.32067  0.05971  1.0000
  H   H1914     1.0  0.96857  0.33478  0.04193  1.0000
  C   C2367     1.0  0.92079  0.47872  0.38122  1.0000
  C   C2368     1.0  0.91730  0.46539  0.35829  1.0000
  C   C2369     1.0  0.92697  0.46309  0.32565  1.0000
  C   C2370     1.0  0.94025  0.47400  0.31591  1.0000
  C   C2371     1.0  0.94335  0.48757  0.33833  1.0000
  C   C2372     1.0  0.81359  0.28240  0.30695  1.0000
  H   H1915     1.0  0.90743  0.45668  0.36605  1.0000
  H   H1916     1.0  0.92435  0.45266  0.30820  1.0000
  H   H1917     1.0  0.93518  0.31240  0.30355  1.0000
  C   C2373     1.0  0.93067  0.48372  0.61460  1.0000
  C   C2374     1.0  0.91247  0.45950  0.60881  1.0000
  C   C2375     1.0  0.91765  0.47548  0.59665  1.0000
  C   C2376     1.0  0.97419  0.28389  0.16313  1.0000
  C   C2377     1.0  0.93853  0.47632  0.64557  1.0000
  C   C2378     1.0  0.93332  0.46034  0.65799  1.0000
  C   C2379     1.0  0.92046  0.45199  0.63961  1.0000
  C   C2380     1.0  0.75685  0.25064  0.28438  1.0000
  H   H1918     1.0  0.82838  0.47675  0.34655  1.0000
  H   H1919     1.0  0.93913  0.45444  0.68180  1.0000
  H   H1920     1.0  0.91656  0.43965  0.64953  1.0000
  C   C2381     1.0  0.85436  0.38851  0.45143  1.0000
  C   C2382     1.0  0.85618  0.37503  0.42672  1.0000
  C   C2383     1.0  0.84864  0.35916  0.43404  1.0000
  C   C2384     1.0  0.83896  0.35647  0.46620  1.0000
  C   C2385     1.0  0.83714  0.36996  0.49091  1.0000
  C   C2386     1.0  0.84479  0.38577  0.48373  1.0000
  H   H1921     1.0  0.86349  0.37686  0.40161  1.0000
  H   H1922     1.0  0.85021  0.34906  0.41462  1.0000
  H   H1923     1.0  0.82971  0.36816  0.51587  1.0000
  H   H1924     1.0  0.84317  0.39589  0.50310  1.0000
  H   H1925     1.0  0.91577  0.24693  0.39443  1.0000
  H   H1926     1.0  0.96226  0.25565  0.21289  1.0000
  H   H1927     1.0  0.97668  0.41835  0.88981  1.0000
  C   C2387     1.0  0.81996  0.24488  0.95313  1.0000
  Fe  Fe167     1.0  0.97308  0.48832  0.71564  1.0000
  H   H1928     1.0  0.93732  0.26550  0.25110  1.0000
  H   H1929     1.0  0.91134  0.48159  0.57372  1.0000
  S   S332      1.0  0.87897  0.24560  0.19981  1.0000
  S   S333      1.0  0.96999  0.48283  0.77637  1.0000
  C   C2388     1.0  0.90771  0.30858  0.14241  1.0000
  H   H1930     1.0  0.91955  0.41004  0.45279  1.0000
  H   H1931     1.0  0.88938  0.24824  0.64917  1.0000
  C   C2389     1.0  0.85664  0.26909  0.74157  1.0000
  C   C2390     1.0  0.96382  0.48654  0.88224  1.0000
  H   H1932     1.0  0.89001  0.27761  0.31234  1.0000
  C   C2391     1.0  0.78567  0.24263  0.21269  1.0000
  C   C2392     1.0  0.97667  0.43629  0.99112  1.0000
  C   C2393     1.0  0.93281  0.47406  0.14962  1.0000
  C   C2394     1.0  0.96494  0.47563  0.43539  1.0000
  H   H1933     1.0  0.80968  0.26309  0.59317  1.0000
  H   H1934     1.0  0.77708  0.25687  0.35155  1.0000
  C   C2395     1.0  0.82690  0.25356  0.98179  1.0000
  C   C2396     1.0  0.99250  0.45751  0.62017  1.0000
  C   C2397     1.0  0.88564  0.47893  0.70188  1.0000
  C   C2398     1.0  0.98297  0.32188  0.13683  1.0000
  Fe  Fe168     1.0  0.90002  0.24288  0.15397  1.0000
  C   C2399     1.0  0.95910  0.46869  0.11433  1.0000
  P   P78       1.0  0.96292  0.30201  0.18313  1.0000
  H   H1935     1.0  0.93648  0.48212  0.09383  1.0000
  C   C2400     1.0  0.82277  0.30826  0.27648  1.0000
  C   C2401     1.0  0.86815  0.45835  0.33454  1.0000
  H   H1936     1.0  0.98442  0.35945  0.20304  1.0000
  C   C2402     1.0  0.98061  0.43376  0.30557  1.0000
  P   P79       1.0  0.97189  0.47098  0.07285  1.0000
  H   H1937     1.0  0.97160  0.47412  0.60410  1.0000
  C   C2403     1.0  0.93013  0.43177  0.42500  1.0000
  H   H1938     1.0  0.95815  0.46834  0.45604  1.0000
  C   C2404     1.0  0.88669  0.24700  0.62053  1.0000
  C   C2405     1.0  0.81417  0.24609  0.63989  1.0000
  C   C2406     1.0  0.87589  0.25869  0.56350  1.0000
  C   C2407     1.0  0.87905  0.26062  0.60068  1.0000
  H   H1939     1.0  0.93614  0.29038  0.61305  1.0000
  P   P80       1.0  0.87405  0.28059  0.62252  1.0000
  C   C2408     1.0  0.89267  0.29347  0.62177  1.0000
  C   C2409     1.0  0.85717  0.29183  0.59810  1.0000
  C   C2410     1.0  0.86122  0.30233  0.56783  1.0000
  C   C2411     1.0  0.84831  0.31127  0.54905  1.0000
  C   C2412     1.0  0.83123  0.30959  0.55987  1.0000
  C   C2413     1.0  0.82704  0.29886  0.58939  1.0000
  C   C2414     1.0  0.83995  0.29001  0.60851  1.0000
  C   C2415     1.0  0.89075  0.31115  0.62581  1.0000
  C   C2416     1.0  0.90507  0.32124  0.62504  1.0000
  C   C2417     1.0  0.92142  0.31376  0.62045  1.0000
  C   C2418     1.0  0.92346  0.29617  0.61665  1.0000
  C   C2419     1.0  0.90915  0.28604  0.61730  1.0000
  C   C2420     1.0  0.86704  0.27639  0.66914  1.0000
  H   H1940     1.0  0.95266  0.48560  0.86563  1.0000
  C   C2421     1.0  0.90018  0.48462  0.25034  1.0000
  H   H1941     1.0  0.89787  0.26650  0.25078  1.0000
  H   H1942     1.0  0.78892  0.45566  0.46947  1.0000
  C   C2422     1.0  0.85679  0.26251  0.67735  1.0000
  C   C2423     1.0  0.88141  0.46734  0.67530  1.0000
  C   C2424     1.0  0.91995  0.32013  0.13085  1.0000
  C   C2425     1.0  0.78774  0.24783  0.34835  1.0000
  H   H1943     1.0  0.86984  0.26885  0.54752  1.0000
  H   H1944     1.0  0.95547  0.24147  0.98432  1.0000
  H   H1945     1.0  0.87433  0.30356  0.55843  1.0000
  H   H1946     1.0  0.85151  0.31938  0.52575  1.0000
  H   H1947     1.0  0.82126  0.31645  0.54496  1.0000
  H   H1948     1.0  0.81376  0.29724  0.59713  1.0000
  H   H1949     1.0  0.83636  0.28162  0.63094  1.0000
  H   H1950     1.0  0.87815  0.31714  0.62943  1.0000
  H   H1951     1.0  0.90346  0.33488  0.62784  1.0000
  H   H1952     1.0  0.93250  0.32160  0.61976  1.0000
  H   H1953     1.0  0.98152  0.28025  0.23745  1.0000
  H   H1954     1.0  0.91101  0.27247  0.61419  1.0000
  H   H1955     1.0  0.83079  0.31918  0.27571  1.0000
  C   C2426     1.0  0.99196  0.43479  0.85536  1.0000
  H   H1956     1.0  0.97368  0.43810  0.28164  1.0000
  H   H1957     1.0  0.96951  0.43494  0.09616  1.0000
  H   H1958     1.0  0.85272  0.25449  0.65584  1.0000
  H   H1959     1.0  0.74502  0.29033  0.47167  1.0000
  C   C2427     1.0  0.74453  0.26666  0.50204  1.0000
  C   C2428     1.0  0.97142  0.28746  0.25130  1.0000
  H   H1960     1.0  0.87958  0.44105  0.66182  1.0000
  C   C2429     1.0  0.91221  0.29510  0.16614  1.0000
  C   C2430     1.0  0.97220  0.45137  0.04801  1.0000
  C   C2431     1.0  0.94144  0.30455  0.16630  1.0000
  H   H1961     1.0  0.96678  0.45094  0.34104  1.0000
  H   H1962     1.0  0.85375  0.26352  0.14605  1.0000
  C   C2432     1.0  0.97544  0.45153  0.01007  1.0000
  H   H1963     1.0  0.87494  0.47524  0.25828  1.0000
  H   H1964     1.0  0.84985  0.24226  0.24864  1.0000
  C   C2433     1.0  0.96617  0.46029  0.14495  1.0000
  C   C2434     1.0  0.85167  0.25886  0.71341  1.0000
  H   H1965     1.0  0.98128  0.43942  0.83935  1.0000
  H   H1966     1.0  0.75435  0.43929  0.34956  1.0000
  C   C2435     1.0  0.89187  0.45520  0.74381  1.0000
  C   C2436     1.0  0.97521  0.42078  0.01001  1.0000
  H   H1967     1.0  0.85264  0.26616  0.76948  1.0000
  H   H1968     1.0  0.74457  0.46186  0.30570  1.0000
  C   C2437     1.0  0.75740  0.48478  0.44772  1.0000
  P   P81       1.0  0.85044  0.27441  0.01276  1.0000
  C   C2438     1.0  0.87235  0.27928  0.00148  1.0000
  C   C2439     1.0  0.84123  0.26355  0.97550  1.0000
  C   C2440     1.0  0.84824  0.26500  0.93998  1.0000
  S   S334      1.0  0.95444  0.48790  0.66765  1.0000
  C   C2441     1.0  0.96259  0.48830  0.04547  1.0000
  C   C2442     1.0  0.97522  0.33431  0.19507  1.0000
  C   C2443     1.0  0.99191  0.28156  0.16731  1.0000
  C   C2444     1.0  0.87623  0.29457  0.98313  1.0000
  C   C2445     1.0  0.89327  0.29888  0.97714  1.0000
  C   C2446     1.0  0.90651  0.28790  0.98912  1.0000
  C   C2447     1.0  0.90273  0.27238  0.00607  1.0000
  C   C2448     1.0  0.88573  0.26799  0.01186  1.0000
  C   C2449     1.0  0.83816  0.29388  0.02150  1.0000
  C   C2450     1.0  0.84555  0.30710  0.03997  1.0000
  C   C2451     1.0  0.83616  0.32218  0.04689  1.0000
  C   C2452     1.0  0.81930  0.32419  0.03548  1.0000
  C   C2453     1.0  0.81182  0.31111  0.01717  1.0000
  C   C2454     1.0  0.82119  0.29600  0.01019  1.0000
  C   C2455     1.0  0.74813  0.45618  0.43890  1.0000
  C   C2456     1.0  0.94777  0.30819  0.25139  1.0000
  H   H1969     1.0  0.93612  0.46516  0.51567  1.0000
  C   C2457     1.0  0.85856  0.25022  0.26214  1.0000
  H   H1970     1.0  0.85048  0.28187  0.09131  1.0000
  H   H1971     1.0  0.85937  0.27243  0.93431  1.0000
  C   C2458     1.0  0.81137  0.30584  0.24851  1.0000
  C   C2459     1.0  0.94701  0.41006  0.45692  1.0000
  H   H1972     1.0  0.91784  0.43683  0.41599  1.0000
  H   H1973     1.0  0.97714  0.27565  0.30346  1.0000
  H   H1974     1.0  0.86613  0.30328  0.97389  1.0000
  H   H1975     1.0  0.89625  0.31085  0.96372  1.0000
  H   H1976     1.0  0.91972  0.29143  0.98563  1.0000
  H   H1977     1.0  0.91302  0.26394  0.01553  1.0000
  H   H1978     1.0  0.88310  0.25586  0.02485  1.0000
  H   H1979     1.0  0.85860  0.30575  0.04911  1.0000
  H   H1980     1.0  0.84196  0.33232  0.06111  1.0000
  H   H1981     1.0  0.81202  0.33588  0.04084  1.0000
  H   H1982     1.0  0.79874  0.31266  0.00833  1.0000
  H   H1983     1.0  0.81510  0.28609  0.99595  1.0000
  C   C2460     1.0  0.86471  0.44190  0.34722  1.0000
  C   C2461     1.0  0.77656  0.46065  0.46060  1.0000
  H   H1984     1.0  0.96227  0.45247  0.20123  1.0000
  C   C2462     1.0  0.97112  0.43566  0.06680  1.0000
  C   C2463     1.0  0.92899  0.29313  0.17814  1.0000
  C   C2464     1.0  0.94228  0.47551  0.11684  1.0000
  H   H1985     1.0  0.82122  0.25231  0.00892  1.0000
  H   H1986     1.0  0.90277  0.28601  0.17476  1.0000
  C   C2465     1.0  0.99177  0.33641  0.12664  1.0000
  H   H1987     1.0  0.91655  0.33037  0.11186  1.0000
  H   H1988     1.0  0.84694  0.25705  0.88420  1.0000
  H   H1989     1.0  0.88887  0.43021  0.72255  1.0000
  H   H1990     1.0  0.88409  0.24767  0.39476  1.0000
  C   C2466     1.0  0.97467  0.32069  0.17113  1.0000
  C   C2467     1.0  0.96089  0.43408  0.42767  1.0000
  C   C2468     1.0  0.93677  0.31815  0.14271  1.0000
  C   C2469     1.0  0.94534  0.30546  0.28898  1.0000
  H   H1991     1.0  0.94608  0.32707  0.13279  1.0000
  H   H1992     1.0  0.97837  0.44152  0.49371  1.0000
  H   H1993     1.0  0.87495  0.43230  0.34921  1.0000
  H   H1994     1.0  0.76670  0.43605  0.45137  1.0000
  H   H1995     1.0  0.94398  0.45197  0.39950  1.0000
  C   C2470     1.0  0.94971  0.48512  0.02073  1.0000
  C   C2471     1.0  0.96077  0.29913  0.23215  1.0000
  H   H1996     1.0  0.97916  0.45508  0.14380  1.0000
  C   C2472     1.0  0.88778  0.44378  0.71705  1.0000
  H   H1997     1.0  0.93231  0.28255  0.19621  1.0000
  Fe  Fe169     1.0  0.97822  0.48246  0.26421  1.0000
  C   C2473     1.0  0.83513  0.45057  0.35856  1.0000
  C   C2474     1.0  0.82396  0.29649  0.30546  1.0000
  C   C2475     1.0  0.95746  0.47948  0.53250  1.0000
  C   C2476     1.0  0.95451  0.24655  0.22747  1.0000
  C   C2477     1.0  0.95590  0.29373  0.30773  1.0000
  H   H1998     1.0  0.89482  0.30989  0.13245  1.0000
  H   H1999     1.0  0.87053  0.29099  0.75554  1.0000
  H   H2000     1.0  0.78293  0.48669  0.46734  1.0000
  C   C2478     1.0  0.98383  0.31152  0.04057  1.0000
  C   C2479     1.0  0.88418  0.48386  0.26800  1.0000
  C   C2480     1.0  0.98940  0.42274  0.88398  1.0000
  S   S335      1.0  0.98818  0.48445  0.20602  1.0000
  C   C2481     1.0  0.85155  0.24329  0.05093  1.0000
  C   C2482     1.0  0.88246  0.44987  0.68294  1.0000
  C   C2483     1.0  0.87984  0.24323  0.54673  1.0000
  H   H2001     1.0  0.80407  0.25197  0.65641  1.0000
  H   H2002     1.0  0.83331  0.24449  0.18195  1.0000
  C   C2484     1.0  0.97572  0.46742  0.40968  1.0000
  H   H2003     1.0  0.97719  0.46339  0.99513  1.0000
  C   C2485     1.0  0.97682  0.44113  0.33929  1.0000
  H   H2004     1.0  0.96710  0.24778  0.11698  1.0000
  H   H2005     1.0  0.97989  0.47055  0.84779  1.0000
  H   H2006     1.0  0.95204  0.27374  0.13877  1.0000
  H   H2007     1.0  0.84579  0.42542  0.37050  1.0000
  C   C2486     1.0  0.98496  0.47068  0.59923  1.0000
  H   H2008     1.0  0.88119  0.46125  0.32709  1.0000
  C   C2487     1.0  0.76404  0.44965  0.45034  1.0000
  H   H2009     1.0  0.87973  0.29753  0.69220  1.0000
  C   C2488     1.0  0.74464  0.47383  0.43763  1.0000
  H   H2010     1.0  0.79285  0.28957  0.22700  1.0000
  H   H2011     1.0  0.93287  0.46476  0.20558  1.0000
  H   H2012     1.0  0.96555  0.46820  0.53665  1.0000
  H   H2013     1.0  0.94774  0.39824  0.47263  1.0000
  C   C2489     1.0  0.93112  0.41665  0.44567  1.0000
  H   H2014     1.0  0.93938  0.31728  0.23729  1.0000
  H   H2015     1.0  0.82250  0.44768  0.36912  1.0000
  C   C2490     1.0  0.94089  0.47769  0.52010  1.0000
  C   C2491     1.0  0.84822  0.43801  0.35928  1.0000
  C   C2492     1.0  0.96896  0.28477  0.28891  1.0000
  C   C2493     1.0  0.97403  0.25718  0.13124  1.0000
  C   C2494     1.0  0.80127  0.29156  0.24940  1.0000
  H   H2016     1.0  0.94539  0.47235  0.01748  1.0000
  C   C2495     1.0  0.86672  0.28304  0.73367  1.0000
  H   H2017     1.0  0.89606  0.45048  0.77024  1.0000
  H   H2018     1.0  0.97909  0.43637  0.96184  1.0000
  C   C2496     1.0  0.83041  0.24521  0.58164  1.0000
  C   C2497     1.0  0.96543  0.27180  0.14416  1.0000
  H   H2019     1.0  0.96877  0.33383  0.22148  1.0000
  C   C2498     1.0  0.94495  0.44041  0.41593  1.0000
  C   C2499     1.0  0.85263  0.25788  0.11954  1.0000
  C   C2500     1.0  0.98406  0.34886  0.18477  1.0000
  C   C2501     1.0  0.87191  0.28670  0.69760  1.0000
  C   C2502     1.0  0.99235  0.34988  0.15061  1.0000
  C   C2503     1.0  0.75561  0.28256  0.39373  1.0000
  C   C2504     1.0  0.79664  0.24650  0.31480  1.0000
  C   C2505     1.0  0.75447  0.29901  0.37848  1.0000
  C   C2506     1.0  0.85499  0.47097  0.33312  1.0000
  C   C2507     1.0  0.97257  0.42047  0.04781  1.0000
  H   H2020     1.0  0.95395  0.29159  0.33684  1.0000
  C   C2508     1.0  0.83851  0.46701  0.34573  1.0000
  C   C2509     1.0  0.96189  0.41864  0.44764  1.0000
  C   C2510     1.0  0.98342  0.29373  0.04584  1.0000
  H   H2021     1.0  0.98252  0.31164  0.11771  1.0000
  C   C2511     1.0  0.95663  0.45874  0.17751  1.0000
  S   S336      1.0  0.92798  0.24880  0.15361  1.0000
  C   C2512     1.0  0.94001  0.46571  0.17995  1.0000
  H   H2022     1.0  0.84382  0.24807  0.71952  1.0000
  H   H2023     1.0  0.87660  0.24167  0.51844  1.0000
  C   C2513     1.0  0.89069  0.47270  0.73639  1.0000
  H   H2024     1.0  0.91996  0.47956  0.15161  1.0000
  C   C2514     1.0  0.76769  0.26437  0.27931  1.0000
  C   C2515     1.0  0.98587  0.43586  0.37038  1.0000
  H   H2025     1.0  0.76834  0.29185  0.27378  1.0000
  H   H2026     1.0  0.97200  0.40838  0.06254  1.0000
  P   P82       1.0  0.79061  0.26041  0.27700  1.0000
  H   H2027     1.0  0.82348  0.25813  0.23850  1.0000
  C   C2516     1.0  0.76045  0.28091  0.27604  1.0000
  S   S337      1.0  0.91050  0.48142  0.42440  1.0000
  C   C2517     1.0  0.77320  0.47818  0.45937  1.0000
  C   C2518     1.0  0.81437  0.25168  0.22249  1.0000
  H   H2028     1.0  0.98487  0.45091  0.64071  1.0000
  C   C2519     1.0  0.97917  0.47821  0.87192  1.0000
  H   H2029     1.0  0.91924  0.24482  0.28275  1.0000
  C   C2520     1.0  0.99158  0.25478  0.13614  1.0000
  H   H2030     1.0  0.83390  0.47793  0.27375  1.0000
  H   H2031     1.0  0.90331  0.47653  0.22748  1.0000
  C   C2521     1.0  0.74269  0.28357  0.27660  1.0000
  C   C2522     1.0  0.99169  0.44139  0.48501  1.0000
  C   C2523     1.0  0.93347  0.49005  0.37047  1.0000
  S   S338      1.0  0.83109  0.48990  0.48987  1.0000
  H   H2032     1.0  0.85830  0.48862  0.74688  1.0000
  C   C2524     1.0  0.85393  0.24023  0.11650  1.0000
  C   C2525     1.0  0.93031  0.24021  0.26719  1.0000
  Fe  Fe170     1.0  0.76741  0.66368  0.00092  1.0000
  S   S339      1.0  0.78754  0.68287  0.01153  1.0000
  H   H2033     1.0  0.94233  0.50569  0.73722  1.0000
  Fe  Fe171     1.0  0.76854  0.64991  0.08272  1.0000
  S   S340      1.0  0.78822  0.66852  0.09692  1.0000
  C   C2526     1.0  0.90185  0.51756  0.59250  1.0000
  Fe  Fe172     1.0  0.77337  0.68841  0.06444  1.0000
  S   S341      1.0  0.76402  0.71527  0.08187  1.0000
  Fe  Fe173     1.0  0.80147  0.66170  0.04327  1.0000
  S   S342      1.0  0.83078  0.65971  0.05021  1.0000
  S   S343      1.0  0.78223  0.64202  0.02994  1.0000
  S   S344      1.0  0.76055  0.57506  0.38322  1.0000
  Fe  Fe174     1.0  0.75756  0.54692  0.37539  1.0000
  S   S345      1.0  0.77794  0.52474  0.37653  1.0000
  Fe  Fe175     1.0  0.96108  0.62906  0.03642  1.0000
  S   S346      1.0  0.93640  0.62186  0.06529  1.0000
  C   C2527     1.0  0.94709  0.51511  0.00462  1.0000
  Fe  Fe176     1.0  0.96087  0.59728  0.98702  1.0000
  S   S347      1.0  0.93632  0.58843  0.01263  1.0000
  S   S348      1.0  0.97796  0.58240  0.94536  1.0000
  Fe  Fe177     1.0  0.92661  0.61583  0.01020  1.0000
  S   S349      1.0  0.89905  0.62045  0.99045  1.0000
  Fe  Fe178     1.0  0.94761  0.59512  0.06582  1.0000
  S   S350      1.0  0.94249  0.57778  0.11483  1.0000
  S   S351      1.0  0.95061  0.62448  0.98042  1.0000
  S   S352      1.0  0.97290  0.60254  0.04115  1.0000
  Fe  Fe179     1.0  0.97945  0.50923  0.78528  1.0000
  S   S353      1.0  0.96400  0.52505  0.82800  1.0000
  S   S354      1.0  0.98064  0.51525  0.72486  1.0000
  H   H2034     1.0  0.75894  0.68712  0.84938  1.0000
  C   C2528     1.0  0.99091  0.66350  0.06918  1.0000
  C   C2529     1.0  0.74971  0.64973  0.84076  1.0000
  C   C2530     1.0  0.97384  0.56609  0.91364  1.0000
  C   C2531     1.0  0.74518  0.66240  0.90102  1.0000
  C   C2532     1.0  0.81667  0.49955  0.45754  1.0000
  C   C2533     1.0  0.96845  0.54056  0.86126  1.0000
  C   C2534     1.0  0.95505  0.54666  0.88443  1.0000
  C   C2535     1.0  0.95769  0.55929  0.91038  1.0000
  H   H2035     1.0  0.81369  0.49100  0.22990  1.0000
  H   H2036     1.0  0.98570  0.49543  0.12267  1.0000
  H   H2037     1.0  0.94244  0.54175  0.88196  1.0000
  H   H2038     1.0  0.94717  0.56394  0.92752  1.0000
  C   C2536     1.0  0.95890  0.56384  0.13102  1.0000
  C   C2537     1.0  0.95540  0.55274  0.16061  1.0000
  C   C2538     1.0  0.96840  0.54201  0.17524  1.0000
  H   H2039     1.0  0.90671  0.54492  0.77312  1.0000
  S   S355      1.0  0.75639  0.59870  0.28842  1.0000
  C   C2539     1.0  0.97544  0.56401  0.11582  1.0000
  H   H2040     1.0  0.94262  0.55258  0.17247  1.0000
  H   H2041     1.0  0.96565  0.53365  0.19832  1.0000
  H   H2042     1.0  0.93450  0.49606  0.60467  1.0000
  C   C2540     1.0  0.91228  0.49562  0.26259  1.0000
  S   S356      1.0  0.75114  0.66558  0.94781  1.0000
  C   C2541     1.0  0.81600  0.67255  0.30265  1.0000
  H   H2043     1.0  0.74624  0.63494  0.53226  1.0000
  C   C2542     1.0  0.80674  0.67829  0.33332  1.0000
  C   C2543     1.0  0.90837  0.50591  0.29241  1.0000
  C   C2544     1.0  0.79273  0.51542  0.40855  1.0000
  C   C2545     1.0  0.79442  0.52160  0.44375  1.0000
  C   C2546     1.0  0.80626  0.51371  0.46798  1.0000
  H   H2044     1.0  0.80193  0.49625  0.37110  1.0000
  H   H2045     1.0  0.78660  0.53246  0.45237  1.0000
  H   H2046     1.0  0.80736  0.51863  0.49511  1.0000
  C   C2547     1.0  0.95282  0.51008  0.53183  1.0000
  C   C2548     1.0  0.84946  0.64833  0.03335  1.0000
  C   C2549     1.0  0.84909  0.63695  0.00462  1.0000
  C   C2550     1.0  0.86433  0.62848  0.99218  1.0000
  C   C2551     1.0  0.88013  0.63103  0.00849  1.0000
  C   C2552     1.0  0.88043  0.64218  0.03763  1.0000
  C   C2553     1.0  0.86524  0.65083  0.04974  1.0000
  H   H2047     1.0  0.83713  0.63482  0.99167  1.0000
  H   H2048     1.0  0.86388  0.61994  0.96958  1.0000
  H   H2049     1.0  0.89243  0.64437  0.05037  1.0000
  H   H2050     1.0  0.86574  0.65959  0.07191  1.0000
  C   C2554     1.0  0.75645  0.62192  0.16955  1.0000
  C   C2555     1.0  0.74516  0.60903  0.18007  1.0000
  C   C2556     1.0  0.74281  0.50269  0.32623  1.0000
  C   C2557     1.0  0.76759  0.62741  0.19589  1.0000
  H   H2051     1.0  0.78183  0.73342  0.88081  1.0000
  C   C2558     1.0  0.76735  0.62020  0.23178  1.0000
  C   C2559     1.0  0.79158  0.73158  0.11106  1.0000
  C   C2560     1.0  0.77422  0.73238  0.10283  1.0000
  H   H2052     1.0  0.74871  0.68166  0.13004  1.0000
  C   C2561     1.0  0.83050  0.52210  0.73248  1.0000
  H   H2053     1.0  0.88394  0.53237  0.73835  1.0000
  C   C2562     1.0  0.75459  0.65156  0.87752  1.0000
  H   H2054     1.0  0.95325  0.49627  0.33072  1.0000
  H   H2055     1.0  0.81893  0.67379  0.24447  1.0000
  C   C2563     1.0  0.85821  0.50396  0.36295  1.0000
  H   H2056     1.0  0.75360  0.70082  0.92608  1.0000
  H   H2057     1.0  0.75046  0.61823  0.40090  1.0000
  C   C2564     1.0  0.93629  0.50824  0.51919  1.0000
  C   C2565     1.0  0.96518  0.60072  0.17522  1.0000
  H   H2058     1.0  0.86067  0.49769  0.63242  1.0000
  C   C2566     1.0  0.77088  0.72741  0.20867  1.0000
  H   H2059     1.0  0.86308  0.53213  0.67388  1.0000
  C   C2567     1.0  0.86279  0.50950  0.70864  1.0000
  P   P83       1.0  0.79133  0.69761  0.21846  1.0000
  C   C2568     1.0  0.79776  0.69017  0.26326  1.0000
  C   C2569     1.0  0.80817  0.69325  0.18496  1.0000
  C   C2570     1.0  0.81114  0.67658  0.17276  1.0000
  C   C2571     1.0  0.82370  0.67310  0.14590  1.0000
  C   C2572     1.0  0.83321  0.68623  0.13061  1.0000
  C   C2573     1.0  0.83038  0.70283  0.14262  1.0000
  C   C2574     1.0  0.81794  0.70635  0.16974  1.0000
  C   C2575     1.0  0.81156  0.67846  0.26772  1.0000
  H   H2060     1.0  0.75431  0.50894  0.31701  1.0000
  H   H2061     1.0  0.97680  0.50639  0.95732  1.0000
  H   H2062     1.0  0.96922  0.51662  0.40634  1.0000
  H   H2063     1.0  0.88099  0.49136  0.38407  1.0000
  C   C2576     1.0  0.78634  0.72017  0.22153  1.0000
  C   C2577     1.0  0.94206  0.49845  0.00033  1.0000
  H   H2064     1.0  0.75729  0.64142  0.82314  1.0000
  C   C2578     1.0  0.76697  0.68875  0.16928  1.0000
  H   H2065     1.0  0.93219  0.49589  0.98123  1.0000
  C   C2579     1.0  0.98744  0.71436  0.00455  1.0000
  H   H2066     1.0  0.95951  0.72390  0.14893  1.0000
  S   S357      1.0  0.98661  0.50844  0.27915  1.0000
  H   H2067     1.0  0.77298  0.69768  0.15050  1.0000
  H   H2068     1.0  0.98619  0.58447  0.19156  1.0000
  C   C2580     1.0  0.78854  0.69591  0.29424  1.0000
  H   H2069     1.0  0.80349  0.66632  0.18341  1.0000
  H   H2070     1.0  0.82563  0.66032  0.13575  1.0000
  H   H2071     1.0  0.84248  0.68355  0.10881  1.0000
  H   H2072     1.0  0.83755  0.71306  0.13027  1.0000
  H   H2073     1.0  0.81574  0.71936  0.17788  1.0000
  H   H2074     1.0  0.98850  0.60123  0.61943  1.0000
  P   P84       1.0  0.88362  0.50163  0.69318  1.0000
  H   H2075     1.0  0.92813  0.51934  0.51348  1.0000
  H   H2076     1.0  0.93592  0.53156  0.77301  1.0000
  C   C2581     1.0  0.82196  0.51645  0.23709  1.0000
  H   H2077     1.0  0.81016  0.67364  0.36034  1.0000
  H   H2078     1.0  0.95738  0.52271  0.53554  1.0000
  H   H2079     1.0  0.78582  0.69443  0.35288  1.0000
  H   H2080     1.0  0.80998  0.72537  0.24782  1.0000
  S   S358      1.0  0.75267  0.67019  0.05293  1.0000
  H   H2081     1.0  0.82998  0.49976  0.76749  1.0000
  C   C2582     1.0  0.96726  0.50515  0.05010  1.0000
  H   H2082     1.0  0.97659  0.50823  0.06975  1.0000
  H   H2083     1.0  0.83281  0.54026  0.24982  1.0000
  C   C2583     1.0  0.84470  0.50179  0.28791  1.0000
  P   P85       1.0  0.85949  0.49270  0.32062  1.0000
  C   C2584     1.0  0.75607  0.60727  0.24224  1.0000
  C   C2585     1.0  0.98499  0.54243  0.16045  1.0000
  S   S359      1.0  0.74361  0.55072  0.32204  1.0000
  C   C2586     1.0  0.75324  0.67965  0.15755  1.0000
  H   H2084     1.0  0.77627  0.63739  0.18880  1.0000
  H   H2085     1.0  0.80906  0.71750  0.89052  1.0000
  C   C2587     1.0  0.88027  0.49392  0.29843  1.0000
  S   S360      1.0  0.75588  0.63063  0.12347  1.0000
  S   S361      1.0  0.97202  0.65496  0.05126  1.0000
  H   H2086     1.0  0.81802  0.52694  0.74160  1.0000
  C   C2588     1.0  0.92594  0.52609  0.75745  1.0000
  C   C2589     1.0  0.96306  0.49660  0.91317  1.0000
  H   H2087     1.0  0.75796  0.70802  0.78965  1.0000
  C   C2590     1.0  0.87225  0.50324  0.62163  1.0000
  C   C2591     1.0  0.84430  0.51512  0.37120  1.0000
  C   C2592     1.0  0.84313  0.52303  0.40499  1.0000
  C   C2593     1.0  0.85562  0.51960  0.43100  1.0000
  C   C2594     1.0  0.83315  0.52665  0.25504  1.0000
  C   C2595     1.0  0.75158  0.66511  0.21632  1.0000
  H   H2088     1.0  0.76162  0.71981  0.19595  1.0000
  P   P86       1.0  0.74772  0.72251  0.86035  1.0000
  H   H2089     1.0  0.85317  0.52739  0.29393  1.0000
  C   C2596     1.0  0.88574  0.50645  0.64479  1.0000
  H   H2090     1.0  0.96332  0.53143  0.03338  1.0000
  C   C2597     1.0  0.94082  0.72257  0.06648  1.0000
  C   C2598     1.0  0.74496  0.60177  0.21591  1.0000
  H   H2091     1.0  0.94122  0.52548  0.98878  1.0000
  C   C2599     1.0  0.74418  0.70784  0.79240  1.0000
  Fe  Fe180     1.0  0.74557  0.57896  0.33088  1.0000
  H   H2092     1.0  0.91340  0.52294  0.58122  1.0000
  H   H2093     1.0  0.88968  0.51333  0.33310  1.0000
  H   H2094     1.0  0.75525  0.49847  0.44639  1.0000
  C   C2600     1.0  0.90052  0.51377  0.62995  1.0000
  H   H2095     1.0  0.79922  0.72025  0.10475  1.0000
  C   C2601     1.0  0.77305  0.68622  0.20474  1.0000
  C   C2602     1.0  0.84458  0.51934  0.28012  1.0000
  H   H2096     1.0  0.83212  0.53123  0.41166  1.0000
  H   H2097     1.0  0.85431  0.52519  0.45771  1.0000
  C   C2603     1.0  0.96268  0.49332  0.43429  1.0000
  H   H2098     1.0  0.76983  0.67175  0.25551  1.0000
  H   H2099     1.0  0.81296  0.52217  0.21798  1.0000
  C   C2604     1.0  0.97611  0.53084  0.63507  1.0000
  H   H2100     1.0  0.94472  0.70422  0.11024  1.0000
  C   C2605     1.0  0.97397  0.51901  0.60785  1.0000
  H   H2101     1.0  0.77600  0.62469  0.25165  1.0000
  C   C2606     1.0  0.98731  0.55977  0.89090  1.0000
  H   H2102     1.0  0.86337  0.50396  0.56635  1.0000
  H   H2103     1.0  0.95572  0.59238  0.18701  1.0000
  H   H2104     1.0  0.93422  0.71386  0.04972  1.0000
  H   H2105     1.0  0.77778  0.70487  0.29137  1.0000
  H   H2106     1.0  0.93580  0.50072  0.38741  1.0000
  C   C2607     1.0  0.90015  0.51161  0.71774  1.0000
  C   C2608     1.0  0.99182  0.72580  0.03101  1.0000
  C   C2609     1.0  0.95963  0.51846  0.02961  1.0000
  H   H2107     1.0  0.74591  0.65555  0.23407  1.0000
  C   C2610     1.0  0.85596  0.52492  0.69425  1.0000
  C   C2611     1.0  0.83986  0.53116  0.70611  1.0000
  H   H2108     1.0  0.96200  0.51261  0.60699  1.0000
  P   P87       1.0  0.98545  0.49835  0.55079  1.0000
  C   C2612     1.0  0.87056  0.50045  0.38937  1.0000
  H   H2109     1.0  0.96580  0.53351  0.65462  1.0000
  H   H2110     1.0  0.97960  0.68884  0.07211  1.0000
  H   H2111     1.0  0.94642  0.61845  0.15281  1.0000
  C   C2613     1.0  0.87516  0.58444  0.00714  1.0000
  C   C2614     1.0  0.86044  0.57973  0.98983  1.0000
  C   C2615     1.0  0.84502  0.57877  0.00965  1.0000
  C   C2616     1.0  0.84432  0.58261  0.04674  1.0000
  C   C2617     1.0  0.85901  0.58769  0.06420  1.0000
  C   C2618     1.0  0.87448  0.58845  0.04413  1.0000
  P   P88       1.0  0.85786  0.59268  0.11216  1.0000
  C   C2619     1.0  0.87505  0.60635  0.12244  1.0000
  C   C2620     1.0  0.83744  0.60343  0.12121  1.0000
  C   C2621     1.0  0.83111  0.61563  0.09598  1.0000
  C   C2622     1.0  0.81508  0.62360  0.10172  1.0000
  C   C2623     1.0  0.80517  0.61945  0.13256  1.0000
  C   C2624     1.0  0.81136  0.60739  0.15801  1.0000
  C   C2625     1.0  0.82747  0.59939  0.15244  1.0000
  C   C2626     1.0  0.89155  0.59928  0.12791  1.0000
  C   C2627     1.0  0.90506  0.60973  0.13488  1.0000
  C   C2628     1.0  0.90225  0.62732  0.13639  1.0000
  C   C2629     1.0  0.88587  0.63446  0.13123  1.0000
  C   C2630     1.0  0.87230  0.62404  0.12424  1.0000
  C   C2631     1.0  0.85994  0.57349  0.13996  1.0000
  C   C2632     1.0  0.85662  0.55759  0.12566  1.0000
  C   C2633     1.0  0.85825  0.54284  0.14755  1.0000
  C   C2634     1.0  0.86319  0.54385  0.18381  1.0000
  C   C2635     1.0  0.86646  0.55964  0.19827  1.0000
  C   C2636     1.0  0.86482  0.57441  0.17647  1.0000
  H   H2112     1.0  0.88706  0.58553  0.99164  1.0000
  H   H2113     1.0  0.86098  0.57707  0.96095  1.0000
  H   H2114     1.0  0.83357  0.57526  0.99615  1.0000
  H   H2115     1.0  0.83225  0.58185  0.06165  1.0000
  H   H2116     1.0  0.88602  0.59254  0.05637  1.0000
  H   H2117     1.0  0.83853  0.61895  0.07170  1.0000
  H   H2118     1.0  0.81029  0.63295  0.08203  1.0000
  H   H2119     1.0  0.79264  0.62550  0.13643  1.0000
  H   H2120     1.0  0.80353  0.60416  0.18181  1.0000
  H   H2121     1.0  0.83192  0.58999  0.17231  1.0000
  H   H2122     1.0  0.89413  0.58571  0.12591  1.0000
  H   H2123     1.0  0.91781  0.60416  0.13821  1.0000
  H   H2124     1.0  0.91283  0.63542  0.14087  1.0000
  H   H2125     1.0  0.88373  0.64812  0.13167  1.0000
  H   H2126     1.0  0.85984  0.62995  0.11948  1.0000
  H   H2127     1.0  0.85285  0.55650  0.09764  1.0000
  H   H2128     1.0  0.85577  0.53060  0.13629  1.0000
  H   H2129     1.0  0.86457  0.53240  0.20065  1.0000
  H   H2130     1.0  0.87035  0.56044  0.22633  1.0000
  H   H2131     1.0  0.86738  0.58656  0.18806  1.0000
  H   H2132     1.0  0.97412  0.71257  0.99890  1.0000
  C   C2637     1.0  0.98200  0.49487  0.38203  1.0000
  C   C2638     1.0  0.97204  0.62577  0.13920  1.0000
  C   C2639     1.0  0.95991  0.61538  0.15579  1.0000
  C   C2640     1.0  0.79303  0.68999  0.32911  1.0000
  C   C2641     1.0  0.98844  0.55336  0.13057  1.0000
  H   H2133     1.0  0.76576  0.64464  0.88759  1.0000
  H   H2134     1.0  0.83398  0.51732  0.35240  1.0000
  C   C2642     1.0  0.90947  0.53358  0.75751  1.0000
  C   C2643     1.0  0.79798  0.73066  0.23777  1.0000
  H   H2135     1.0  0.91118  0.51632  0.64694  1.0000
  C   C2644     1.0  0.78532  0.68505  0.86338  1.0000
  C   C2645     1.0  0.79946  0.69352  0.87511  1.0000
  H   H2136     1.0  0.82660  0.66344  0.30591  1.0000
  C   C2646     1.0  0.78264  0.72000  0.87530  1.0000
  C   C2647     1.0  0.76838  0.71158  0.86334  1.0000
  C   C2648     1.0  0.76985  0.69401  0.85763  1.0000
  C   C2649     1.0  0.92956  0.51147  0.73743  1.0000
  C   C2650     1.0  0.94672  0.71714  0.10063  1.0000
  H   H2137     1.0  0.88966  0.51658  0.54047  1.0000
  C   C2651     1.0  0.98257  0.59627  0.17769  1.0000
  H   H2138     1.0  0.74667  0.61358  0.48325  1.0000
  H   H2139     1.0  0.87895  0.50549  0.44335  1.0000
  C   C2652     1.0  0.81495  0.49334  0.42237  1.0000
  C   C2653     1.0  0.85334  0.50050  0.73524  1.0000
  H   H2140     1.0  0.96796  0.63698  0.12349  1.0000
  C   C2654     1.0  0.79813  0.71100  0.88098  1.0000
  H   H2141     1.0  0.91788  0.51422  0.30220  1.0000
  C   C2655     1.0  0.98749  0.51486  0.58345  1.0000
  C   C2656     1.0  0.86938  0.50838  0.42309  1.0000
  C   C2657     1.0  0.89660  0.52640  0.73771  1.0000
  C   C2658     1.0  0.89239  0.50517  0.31018  1.0000
  C   C2659     1.0  0.93037  0.49206  0.51317  1.0000
  H   H2142     1.0  0.75105  0.62652  0.33523  1.0000
  H   H2143     1.0  0.95399  0.49953  0.45352  1.0000
  H   H2144     1.0  0.97827  0.57255  0.09316  1.0000
  H   H2145     1.0  0.78620  0.67144  0.85944  1.0000
  H   H2146     1.0  0.81136  0.68649  0.88011  1.0000
  C   C2660     1.0  0.80309  0.50121  0.39815  1.0000
  H   H2147     1.0  0.91762  0.49059  0.50306  1.0000
  C   C2661     1.0  0.88850  0.51400  0.56958  1.0000
  C   C2662     1.0  0.82233  0.49890  0.24394  1.0000
  C   C2663     1.0  0.76524  0.67430  0.22829  1.0000
  C   C2664     1.0  0.91675  0.50425  0.71771  1.0000
  H   H2148     1.0  0.98194  0.73295  0.04581  1.0000
  C   C2665     1.0  0.97765  0.49834  0.93381  1.0000
  H   H2149     1.0  0.76441  0.72946  0.99198  1.0000
  C   C2666     1.0  0.97115  0.50294  0.40753  1.0000
  H   H2150     1.0  0.83463  0.54303  0.69479  1.0000
  H   H2151     1.0  0.98860  0.50235  0.36136  1.0000
  C   C2667     1.0  0.87369  0.50687  0.58417  1.0000
  C   C2668     1.0  0.74566  0.66770  0.18089  1.0000
  C   C2669     1.0  0.99101  0.68099  0.07671  1.0000
  C   C2670     1.0  0.83725  0.50679  0.74705  1.0000
  C   C2671     1.0  0.98944  0.62144  0.14189  1.0000
  H   H2152     1.0  0.92484  0.49594  0.24945  1.0000
  H   H2153     1.0  0.99255  0.72921  0.12142  1.0000
  H   H2154     1.0  0.75193  0.49845  0.38017  1.0000
  C   C2672     1.0  0.98467  0.54716  0.86490  1.0000
  H   H2155     1.0  0.95131  0.50353  0.92032  1.0000
  H   H2156     1.0  0.99224  0.53086  0.51412  1.0000
  C   C2673     1.0  0.95522  0.72832  0.12236  1.0000
  C   C2674     1.0  0.83372  0.49155  0.26910  1.0000
  C   C2675     1.0  0.96347  0.49569  0.53902  1.0000
  H   H2157     1.0  0.99219  0.57299  0.59108  1.0000
  C   C2676     1.0  0.94334  0.73923  0.05410  1.0000
  H   H2158     1.0  0.91979  0.49285  0.70251  1.0000
  C   C2677     1.0  0.99185  0.53838  0.63852  1.0000
  H   H2159     1.0  0.78826  0.74013  0.02666  1.0000
  S   S362      1.0  0.75607  0.90689  0.85727  1.0000
  H   H2160     1.0  0.74356  0.80481  0.45270  1.0000
  Fe  Fe181     1.0  0.74923  0.93493  0.86237  1.0000
  S   S363      1.0  0.76404  0.95929  0.85069  1.0000
  C   C2678     1.0  0.78625  0.80665  0.03694  1.0000
  H   H2161     1.0  0.78335  0.92527  0.91002  1.0000
  Fe  Fe182     1.0  0.77261  0.82366  0.24122  1.0000
  S   S364      1.0  0.79847  0.81009  0.23658  1.0000
  H   H2162     1.0  0.96479  0.95891  0.81909  1.0000
  Fe  Fe183     1.0  0.77722  0.83989  0.16225  1.0000
  S   S365      1.0  0.80348  0.82752  0.15429  1.0000
  S   S366      1.0  0.76323  0.85914  0.12289  1.0000
  Fe  Fe184     1.0  0.79172  0.80381  0.17887  1.0000
  S   S367      1.0  0.79981  0.77739  0.15693  1.0000
  Fe  Fe185     1.0  0.80849  0.83453  0.21226  1.0000
  S   S368      1.0  0.83188  0.84681  0.23669  1.0000
  S   S369      1.0  0.76530  0.81583  0.18452  1.0000
  S   S370      1.0  0.78282  0.84843  0.21930  1.0000
  Fe  Fe186     1.0  0.93582  0.86572  0.21909  1.0000
  S   S371      1.0  0.94528  0.85690  0.27426  1.0000
  S   S372      1.0  0.91090  0.85820  0.19176  1.0000
  Fe  Fe187     1.0  0.97000  0.88295  0.20099  1.0000
  S   S373      1.0  0.98140  0.87486  0.25470  1.0000
  C   C2679     1.0  0.95826  0.74494  0.10966  1.0000
  Fe  Fe188     1.0  0.97013  0.84948  0.24456  1.0000
  H   H2163     1.0  0.96026  0.92188  0.78356  1.0000
  Fe  Fe189     1.0  0.95594  0.88322  0.27909  1.0000
  S   S374      1.0  0.95107  0.90084  0.32824  1.0000
  S   S375      1.0  0.96034  0.85712  0.18941  1.0000
  S   S376      1.0  0.94498  0.89241  0.22538  1.0000
  C   C2680     1.0  0.75085  0.81687  0.08450  1.0000
  H   H2164     1.0  0.95293  0.88716  0.42220  1.0000
  H   H2165     1.0  0.80768  0.92155  0.86627  1.0000
  C   C2681     1.0  0.82245  0.79417  0.53608  1.0000
  C   C2682     1.0  0.78075  0.98732  0.95936  1.0000
  C   C2683     1.0  0.76758  0.88046  0.31987  1.0000
  Fe  Fe190     1.0  0.97514  0.97798  0.03003  1.0000
  S   S377      1.0  0.96061  0.95655  0.05720  1.0000
  C   C2684     1.0  0.75349  0.77978  0.83542  1.0000
  C   C2685     1.0  0.98027  0.91523  0.13748  1.0000
  C   C2686     1.0  0.97419  0.97706  0.68287  1.0000
  C   C2687     1.0  0.98928  0.89214  0.59644  1.0000
  C   C2688     1.0  0.96858  0.94131  0.08916  1.0000
  C   C2689     1.0  0.95703  0.93050  0.10695  1.0000
  C   C2690     1.0  0.96282  0.91757  0.13120  1.0000
  H   H2166     1.0  0.94353  0.93198  0.10156  1.0000
  H   H2167     1.0  0.95383  0.90912  0.14424  1.0000
  C   C2691     1.0  0.98172  0.93667  0.39884  1.0000
  C   C2692     1.0  0.76482  0.83603  0.57287  1.0000
  C   C2693     1.0  0.98110  0.91592  0.34959  1.0000
  C   C2694     1.0  0.96327  0.91540  0.35286  1.0000
  C   C2695     1.0  0.95474  0.92615  0.37819  1.0000
  C   C2696     1.0  0.96384  0.93685  0.40065  1.0000
  H   H2168     1.0  0.75310  0.86121  0.57132  1.0000
  H   H2169     1.0  0.94009  0.95168  0.18049  1.0000
  H   H2170     1.0  0.94096  0.92601  0.38088  1.0000
  H   H2171     1.0  0.95699  0.94490  0.41998  1.0000
  C   C2697     1.0  0.98115  0.94968  0.23757  1.0000
  H   H2172     1.0  0.95235  0.95754  0.91805  1.0000
  C   C2698     1.0  0.75128  0.80186  0.06460  1.0000
  C   C2699     1.0  0.81495  0.97622  0.79613  1.0000
  C   C2700     1.0  0.85393  0.84937  0.22378  1.0000
  C   C2701     1.0  0.86491  0.85640  0.24887  1.0000
  C   C2702     1.0  0.88235  0.85896  0.23992  1.0000
  C   C2703     1.0  0.88910  0.85471  0.20543  1.0000
  C   C2704     1.0  0.87809  0.84771  0.18030  1.0000
  C   C2705     1.0  0.86072  0.84495  0.18942  1.0000
  H   H2173     1.0  0.85991  0.85989  0.27553  1.0000
  H   H2174     1.0  0.89051  0.86437  0.25962  1.0000
  H   H2175     1.0  0.88309  0.84434  0.15356  1.0000
  H   H2176     1.0  0.85256  0.83948  0.16984  1.0000
  C   C2706     1.0  0.78946  0.76041  0.13576  1.0000
  P   P89       1.0  0.76539  0.79979  0.02495  1.0000
  C   C2707     1.0  0.77212  0.76130  0.12718  1.0000
  H   H2177     1.0  0.76450  0.77265  0.13339  1.0000
  C   C2708     1.0  0.78385  0.96526  0.82955  1.0000
  C   C2709     1.0  0.79418  0.95401  0.80894  1.0000
  C   C2710     1.0  0.97615  0.87426  0.55300  1.0000
  H   H2178     1.0  0.75552  0.75043  0.20103  1.0000
  C   C2711     1.0  0.96451  0.93289  0.50322  1.0000
  C   C2712     1.0  0.77902  0.75521  0.22744  1.0000
  C   C2713     1.0  0.75912  0.87715  0.00093  1.0000
  C   C2714     1.0  0.76190  0.86556  0.07549  1.0000
  C   C2715     1.0  0.77179  0.85777  0.04776  1.0000
  C   C2716     1.0  0.77039  0.86350  0.01095  1.0000
  H   H2179     1.0  0.78067  0.84743  0.05472  1.0000
  H   H2180     1.0  0.77815  0.85728  0.99001  1.0000
  H   H2181     1.0  0.79024  0.94115  0.80547  1.0000
  C   C2717     1.0  0.81019  0.80498  0.07793  1.0000
  H   H2182     1.0  0.82974  0.94331  0.86091  1.0000
  C   C2718     1.0  0.96541  0.97286  0.16938  1.0000
  H   H2183     1.0  0.76287  0.84448  0.34243  1.0000
  H   H2184     1.0  0.74801  0.85417  0.27982  1.0000
  C   C2719     1.0  0.99182  0.92630  0.12036  1.0000
  C   C2720     1.0  0.79617  0.82671  0.39500  1.0000
  C   C2721     1.0  0.79003  0.81688  0.36728  1.0000
  C   C2722     1.0  0.77969  0.80324  0.37611  1.0000
  C   C2723     1.0  0.77538  0.79947  0.41260  1.0000
  C   C2724     1.0  0.78099  0.80967  0.44056  1.0000
  C   C2725     1.0  0.79172  0.82311  0.43152  1.0000
  P   P90       1.0  0.77643  0.80444  0.48802  1.0000
  H   H2185     1.0  0.82785  0.96835  0.89938  1.0000
  C   C2726     1.0  0.75393  0.75589  0.87827  1.0000
  H   H2186     1.0  0.81824  0.83208  0.00655  1.0000
  C   C2727     1.0  0.95189  0.94572  0.50796  1.0000
  H   H2187     1.0  0.97521  0.78974  0.17737  1.0000
  H   H2188     1.0  0.94484  0.94142  0.59944  1.0000
  H   H2189     1.0  0.93378  0.75665  0.15898  1.0000
  H   H2190     1.0  0.76835  0.77630  0.53937  1.0000
  C   C2728     1.0  0.80956  0.95949  0.79228  1.0000
  H   H2191     1.0  0.95583  0.80819  0.21447  1.0000
  H   H2192     1.0  0.79315  0.81986  0.33888  1.0000
  H   H2193     1.0  0.74851  0.77391  0.77962  1.0000
  C   C2729     1.0  0.82574  0.77706  0.52815  1.0000
  H   H2194     1.0  0.80362  0.75629  0.25177  1.0000
  C   C2730     1.0  0.75883  0.82030  0.92234  1.0000
  C   C2731     1.0  0.79614  0.87163  0.29857  1.0000
  C   C2732     1.0  0.91665  0.92561  0.23499  1.0000
  C   C2733     1.0  0.75762  0.81295  0.98724  1.0000
  C   C2734     1.0  0.99009  0.92919  0.95574  1.0000
  C   C2735     1.0  0.77056  0.82303  0.51403  1.0000
  H   H2195     1.0  0.80440  0.83710  0.38809  1.0000
  H   H2196     1.0  0.75227  0.86276  0.50361  1.0000
  H   H2197     1.0  0.83737  0.77061  0.53736  1.0000
  H   H2198     1.0  0.77278  0.91336  0.29924  1.0000
  H   H2199     1.0  0.96101  0.79217  0.10261  1.0000
  H   H2200     1.0  0.80528  0.81587  0.52992  1.0000
  C   C2736     1.0  0.75546  0.77328  0.87095  1.0000
  C   C2737     1.0  0.74369  0.79460  0.47286  1.0000
  C   C2738     1.0  0.75797  0.85166  0.51720  1.0000
  C   C2739     1.0  0.74549  0.91102  0.30836  1.0000
  H   H2201     1.0  0.79028  0.76980  0.48005  1.0000
  C   C2740     1.0  0.96200  0.78646  0.18124  1.0000
  C   C2741     1.0  0.75838  0.85076  0.55530  1.0000
  C   C2742     1.0  0.96266  0.94927  0.92815  1.0000
  C   C2743     1.0  0.75035  0.74485  0.85013  1.0000
  C   C2744     1.0  0.74902  0.88474  0.02858  1.0000
  C   C2745     1.0  0.98765  0.75059  0.20108  1.0000
  H   H2202     1.0  0.76448  0.83516  0.60244  1.0000
  C   C2746     1.0  0.79554  0.79372  0.50460  1.0000
  C   C2747     1.0  0.77954  0.87767  0.29122  1.0000
  C   C2748     1.0  0.77075  0.82214  0.55236  1.0000
  H   H2203     1.0  0.78691  0.79192  0.08753  1.0000
  C   C2749     1.0  0.81954  0.94452  0.88136  1.0000
  C   C2750     1.0  0.96557  0.88862  0.43289  1.0000
  H   H2204     1.0  0.75812  0.78171  0.89284  1.0000
  C   C2751     1.0  0.92780  0.77837  0.19184  1.0000
  H   H2205     1.0  0.77646  0.76882  0.22862  1.0000
  H   H2206     1.0  0.81731  0.95072  0.77602  1.0000
  C   C2752     1.0  0.74851  0.75147  0.81444  1.0000
  Fe  Fe191     1.0  0.74459  0.90362  0.91455  1.0000
  H   H2207     1.0  0.97170  0.87191  0.52592  1.0000
  C   C2753     1.0  0.76052  0.92000  0.30273  1.0000
  H   H2208     1.0  0.77606  0.88008  0.26311  1.0000
  C   C2754     1.0  0.76404  0.83786  0.49662  1.0000
  C   C2755     1.0  0.97726  0.94606  0.90635  1.0000
  H   H2209     1.0  0.78939  0.77039  0.04020  1.0000
  H   H2210     1.0  0.75118  0.74823  0.10448  1.0000
  H   H2211     1.0  0.96820  0.98081  0.11295  1.0000
  H   H2212     1.0  0.93419  0.98274  0.27665  1.0000
  C   C2756     1.0  0.77267  0.87755  0.35604  1.0000
  H   H2213     1.0  0.81601  0.79975  0.10250  1.0000
  H   H2214     1.0  0.97006  0.93095  0.47628  1.0000
  C   C2757     1.0  0.80103  0.86854  0.33456  1.0000
  C   C2758     1.0  0.96512  0.98479  0.14053  1.0000
  C   C2759     1.0  0.98418  0.96843  0.70906  1.0000
  C   C2760     1.0  0.77813  0.91577  0.07680  1.0000
  C   C2761     1.0  0.76618  0.92179  0.05145  1.0000
  C   C2762     1.0  0.77041  0.92183  0.01420  1.0000
  C   C2763     1.0  0.78652  0.91571  0.00225  1.0000
  C   C2764     1.0  0.79847  0.90927  0.02741  1.0000
  C   C2765     1.0  0.79429  0.90973  0.06490  1.0000
  P   P91       1.0  0.81945  0.90163  0.01215  1.0000
  C   C2766     1.0  0.82656  0.88406  0.04124  1.0000
  C   C2767     1.0  0.81912  0.89319  0.96675  1.0000
  C   C2768     1.0  0.80469  0.88503  0.95520  1.0000
  C   C2769     1.0  0.80401  0.87908  0.91968  1.0000
  C   C2770     1.0  0.81800  0.88077  0.89567  1.0000
  C   C2771     1.0  0.83277  0.88823  0.90743  1.0000
  C   C2772     1.0  0.83341  0.89428  0.94296  1.0000
  C   C2773     1.0  0.84400  0.88094  0.04786  1.0000
  C   C2774     1.0  0.84919  0.86768  0.07172  1.0000
  C   C2775     1.0  0.83706  0.85728  0.08843  1.0000
  C   C2776     1.0  0.81977  0.85990  0.08074  1.0000
  C   C2777     1.0  0.81457  0.87313  0.05701  1.0000
  C   C2778     1.0  0.83299  0.91964  0.01350  1.0000
  C   C2779     1.0  0.83414  0.93088  0.98327  1.0000
  C   C2780     1.0  0.84458  0.94487  0.98419  1.0000
  C   C2781     1.0  0.85363  0.94797  0.01559  1.0000
  C   C2782     1.0  0.85213  0.93715  0.04620  1.0000
  C   C2783     1.0  0.84173  0.92311  0.04532  1.0000
  H   H2215     1.0  0.77473  0.91543  0.10565  1.0000
  H   H2216     1.0  0.75350  0.92606  0.06056  1.0000
  H   H2217     1.0  0.76101  0.92610  0.99444  1.0000
  H   H2218     1.0  0.78944  0.91565  0.97333  1.0000
  H   H2219     1.0  0.80338  0.90515  0.08499  1.0000
  H   H2220     1.0  0.79382  0.88351  0.97350  1.0000
  H   H2221     1.0  0.79250  0.87328  0.91083  1.0000
  H   H2222     1.0  0.81741  0.87622  0.86805  1.0000
  H   H2223     1.0  0.84371  0.88934  0.88895  1.0000
  H   H2224     1.0  0.84500  0.89986  0.95172  1.0000
  H   H2225     1.0  0.85357  0.88880  0.03498  1.0000
  H   H2226     1.0  0.86261  0.86555  0.07764  1.0000
  H   H2227     1.0  0.84104  0.84720  0.10741  1.0000
  H   H2228     1.0  0.81031  0.85184  0.09346  1.0000
  H   H2229     1.0  0.80112  0.87497  0.05150  1.0000
  H   H2230     1.0  0.82693  0.92889  0.95898  1.0000
  H   H2231     1.0  0.84563  0.95332  0.96055  1.0000
  H   H2232     1.0  0.86176  0.95880  0.01626  1.0000
  H   H2233     1.0  0.85906  0.93964  0.07064  1.0000
  H   H2234     1.0  0.84051  0.91503  0.06951  1.0000
  S   S378      1.0  0.98462  0.82399  0.25623  1.0000
  H   H2235     1.0  0.77456  0.97815  0.90661  1.0000
  C   C2784     1.0  0.80746  0.80253  0.52414  1.0000
  H   H2236     1.0  0.79874  0.94969  0.00467  1.0000
  C   C2785     1.0  0.79520  0.81816  0.01440  1.0000
  H   H2237     1.0  0.77492  0.81053  0.56643  1.0000
  C   C2786     1.0  0.96748  0.89492  0.46786  1.0000
  H   H2238     1.0  0.75557  0.75102  0.90587  1.0000
  C   C2787     1.0  0.95027  0.93886  0.57256  1.0000
  C   C2788     1.0  0.79912  0.74550  0.12730  1.0000
  H   H2239     1.0  0.76283  0.83853  0.46727  1.0000
  H   H2240     1.0  0.74578  0.74333  0.79210  1.0000
  C   C2789     1.0  0.98511  0.74659  0.16450  1.0000
  C   C2790     1.0  0.93391  0.79294  0.20740  1.0000
  C   C2791     1.0  0.81736  0.98684  0.02323  1.0000
  C   C2792     1.0  0.81827  0.96734  0.07531  1.0000
  H   H2241     1.0  0.97910  0.97223  0.36825  1.0000
  H   H2242     1.0  0.74560  0.84377  0.90637  1.0000
  H   H2243     1.0  0.95617  0.89803  0.48431  1.0000
  C   C2793     1.0  0.75275  0.77160  0.99150  1.0000
  C   C2794     1.0  0.97981  0.97773  0.64637  1.0000
  H   H2244     1.0  0.75922  0.82706  0.07699  1.0000
  C   C2795     1.0  0.98177  0.77324  0.10642  1.0000
  H   H2245     1.0  0.83944  0.98630  0.95920  1.0000
  H   H2246     1.0  0.97652  0.93737  0.73598  1.0000
  C   C2796     1.0  0.97385  0.98360  0.80346  1.0000
  H   H2247     1.0  0.77163  0.79832  0.94630  1.0000
  C   C2797     1.0  0.97191  0.96840  0.31265  1.0000
  C   C2798     1.0  0.93878  0.76782  0.17089  1.0000
  H   H2248     1.0  0.81391  0.86377  0.33999  1.0000
  H   H2249     1.0  0.82181  0.96443  0.10325  1.0000
  H   H2250     1.0  0.76765  0.78864  0.41871  1.0000
  C   C2799     1.0  0.79372  0.80047  0.06925  1.0000
  C   C2800     1.0  0.96288  0.92597  0.56789  1.0000
  H   H2251     1.0  0.76381  0.87958  0.37871  1.0000
  C   C2801     1.0  0.81904  0.81633  0.05535  1.0000
  C   C2802     1.0  0.93579  0.94543  0.20539  1.0000
  S   S379      1.0  0.75855  0.88426  0.95381  1.0000
  H   H2252     1.0  0.95387  0.76322  0.06545  1.0000
  H   H2253     1.0  0.75178  0.85145  0.40492  1.0000
  H   H2254     1.0  0.98322  0.96053  0.30676  1.0000
  C   C2803     1.0  0.75276  0.83726  0.35495  1.0000
  H   H2255     1.0  0.83171  0.81997  0.06251  1.0000
  C   C2804     1.0  0.76333  0.80935  0.95148  1.0000
  C   C2805     1.0  0.81834  0.95883  0.90329  1.0000
  H   H2256     1.0  0.95082  0.94574  0.98139  1.0000
  C   C2806     1.0  0.74751  0.82779  0.99333  1.0000
  H   H2257     1.0  0.96212  0.98330  0.69077  1.0000
  H   H2258     1.0  0.97856  0.85444  0.63641  1.0000
  C   C2807     1.0  0.80709  0.93230  0.88424  1.0000
  C   C2808     1.0  0.92238  0.93425  0.20355  1.0000
  H   H2259     1.0  0.91671  0.93197  0.17754  1.0000
  C   C2809     1.0  0.92443  0.92801  0.26826  1.0000
  S   S380      1.0  0.83430  0.98242  0.77349  1.0000
  C   C2810     1.0  0.97003  0.92278  0.53303  1.0000
  H   H2260     1.0  0.79310  0.86919  0.39124  1.0000
  H   H2261     1.0  0.78968  0.82353  0.98978  1.0000
  H   H2262     1.0  0.80524  0.86919  0.27627  1.0000
  H   H2263     1.0  0.83157  0.80100  0.55131  1.0000
  C   C2811     1.0  0.76613  0.77775  0.01173  1.0000
  C   C2812     1.0  0.80983  0.95542  0.05547  1.0000
  C   C2813     1.0  0.76507  0.74298  0.99657  1.0000
  H   H2264     1.0  0.92051  0.92077  0.29239  1.0000
  C   C2814     1.0  0.96180  0.94263  0.96382  1.0000
  C   C2815     1.0  0.96109  0.97780  0.20516  1.0000
  C   C2816     1.0  0.97361  0.92429  0.78753  1.0000
  H   H2265     1.0  0.79668  0.83075  0.45273  1.0000
  H   H2266     1.0  0.75459  0.79327  0.82969  1.0000
  H   H2267     1.0  0.94403  0.94034  0.29612  1.0000
  P   P92       1.0  0.74607  0.88808  0.30989  1.0000
  C   C2817     1.0  0.98746  0.87950  0.62355  1.0000
  C   C2818     1.0  0.76979  0.98454  0.93066  1.0000
  H   H2268     1.0  0.97977  0.96821  0.73718  1.0000
  C   C2819     1.0  0.81148  0.82307  0.02378  1.0000
  C   C2820     1.0  0.77909  0.76629  0.02387  1.0000
  C   C2821     1.0  0.76726  0.74484  0.21177  1.0000
  H   H2269     1.0  0.76343  0.81761  0.89488  1.0000
  H   H2270     1.0  0.92540  0.80120  0.22342  1.0000
  S   S381      1.0  0.75362  0.81834  0.29018  1.0000
  P   P93       1.0  0.97022  0.75904  0.13673  1.0000
  H   H2271     1.0  0.96889  0.95970  0.16363  1.0000
  C   C2822     1.0  0.79339  0.93439  0.90902  1.0000
  C   C2823     1.0  0.97552  0.93283  0.97775  1.0000
  H   H2272     1.0  0.81671  0.75512  0.50155  1.0000
  C   C2824     1.0  0.94470  0.94863  0.54257  1.0000
  C   C2825     1.0  0.75221  0.75428  0.98413  1.0000
  C   C2826     1.0  0.99023  0.92631  0.37273  1.0000
  C   C2827     1.0  0.82199  0.98307  0.05923  1.0000
  C   C2828     1.0  0.94238  0.98781  0.33069  1.0000
  C   C2829     1.0  0.75045  0.87903  0.06542  1.0000
  C   C2830     1.0  0.95104  0.79693  0.20224  1.0000
  C   C2831     1.0  0.74649  0.84110  0.39064  1.0000
  C   C2832     1.0  0.98790  0.88341  0.06986  1.0000
  C   C2833     1.0  0.97391  0.78853  0.09377  1.0000
  P   P94       1.0  0.80282  0.97971  0.95651  1.0000
  C   C2834     1.0  0.80473  0.96095  0.92872  1.0000
  H   H2273     1.0  0.97058  0.92558  0.25490  1.0000
  C   C2835     1.0  0.80534  0.95908  0.01936  1.0000
  C   C2836     1.0  0.79224  0.94858  0.93134  1.0000
  H   H2274     1.0  0.90659  0.91659  0.23337  1.0000
  C   C2837     1.0  0.75773  0.77854  0.52137  1.0000
  C   C2838     1.0  0.74298  0.86281  0.25898  1.0000
  H   H2275     1.0  0.97210  0.98425  0.62585  1.0000
  C   C2839     1.0  0.97878  0.88492  0.03759  1.0000
  H   H2276     1.0  0.94784  0.95360  0.48487  1.0000
  H   H2277     1.0  0.93606  0.96439  0.79314  1.0000
  P   P95       1.0  0.96133  0.96197  0.24192  1.0000
  H   H2278     1.0  0.80678  0.94330  0.06808  1.0000
  C   C2840     1.0  0.96170  0.97101  0.80583  1.0000
  H   H2279     1.0  0.97775  0.89584  0.98344  1.0000
  C   C2841     1.0  0.94555  0.97405  0.79110  1.0000
  H   H2280     1.0  0.93495  0.95863  0.54621  1.0000
  H   H2281     1.0  0.97446  0.91128  0.83993  1.0000
  C   C2842     1.0  0.94352  0.94812  0.23888  1.0000
  C   C2843     1.0  0.95597  0.77187  0.16530  1.0000
  H   H2282     1.0  0.78129  0.95013  0.94973  1.0000
  H   H2283     1.0  0.96656  0.87902  0.03597  1.0000
  C   C2844     1.0  0.77855  0.74901  0.01615  1.0000
  C   C2845     1.0  0.74614  0.82393  0.33564  1.0000
  C   C2846     1.0  0.79910  0.77665  0.49605  1.0000
  C   C2847     1.0  0.95507  0.98493  0.35647  1.0000
  C   C2848     1.0  0.74878  0.83502  0.92872  1.0000
  H   H2284     1.0  0.91450  0.77532  0.19592  1.0000
  C   C2849     1.0  0.93784  0.93914  0.27022  1.0000
  C   C2850     1.0  0.95201  0.75040  0.07559  1.0000
  C   C2851     1.0  0.98162  0.91826  0.81920  1.0000
  C   C2852     1.0  0.74311  0.83872  0.96416  1.0000
  C   C2853     1.0  0.81409  0.76833  0.50803  1.0000
  H   H2285     1.0  0.74327  0.83130  0.02047  1.0000
  C   C2854     1.0  0.75006  0.76887  0.80719  1.0000
  C   C2855     1.0  0.98514  0.89451  0.00799  1.0000
  C   C2856     1.0  0.80470  0.98744  0.81704  1.0000
  C   C2857     1.0  0.75984  0.93778  0.30153  1.0000
  C   C2858     1.0  0.98284  0.93330  0.76077  1.0000
  C   C2859     1.0  0.95936  0.97150  0.28633  1.0000
  H   H2286     1.0  0.97670  0.81133  0.06088  1.0000
  H   H2287     1.0  0.77482  0.79575  0.35446  1.0000
  C   C2860     1.0  0.94154  0.98965  0.77391  1.0000
  C   C2861     1.0  0.96966  0.97502  0.34761  1.0000
  H   H2288     1.0  0.98114  0.76145  0.21339  1.0000
  C   C2862     1.0  0.98600  0.93937  0.09637  1.0000
  C   C2863     1.0  0.80930  0.97472  0.00271  1.0000
  S   S382      1.0  0.98567  0.97729  0.97250  1.0000
  H   H2289     1.0  0.97484  0.92860  0.00610  1.0000
  S   S383      1.0  0.98692  0.97007  0.53274  1.0000
  H   H2290     1.0  0.96690  0.91864  0.59156  1.0000
  C   C2864     1.0  0.75822  0.79120  0.49376  1.0000
  C   C2865     1.0  0.78920  0.98203  0.83325  1.0000
  C   C2866     1.0  0.76459  0.74738  0.11088  1.0000
  H   H2291     1.0  0.81256  0.74470  0.13344  1.0000
  C   C2867     1.0  0.99091  0.93608  0.92005  1.0000
  H   H2292     1.0  0.98791  0.90781  0.33030  1.0000
  C   C2868     1.0  0.78932  0.87159  0.36330  1.0000
  C   C2869     1.0  0.75255  0.98969  0.93302  1.0000
  C   C2870     1.0  0.97999  0.86425  0.61542  1.0000
  C   C2871     1.0  0.94438  0.98090  0.29596  1.0000
  C   C2872     1.0  0.98273  0.79941  0.06987  1.0000
  H   H2293     1.0  0.77150  0.94463  0.29732  1.0000
  H   H2294     1.0  0.98272  0.87651  0.09336  1.0000
  C   C2873     1.0  0.74312  0.76903  0.52684  1.0000
  C   C2874     1.0  0.79438  0.74812  0.24040  1.0000
  H   H2295     1.0  0.97823  0.95183  0.87932  1.0000
  C   C2875     1.0  0.98184  0.93214  0.24551  1.0000
  H   H2296     1.0  0.98639  0.98084  0.81421  1.0000
  H   H2297     1.0  0.96855  0.84980  0.57385  1.0000
  C   C2876     1.0  0.97995  0.88470  0.41100  1.0000
  Fe  Fe192     1.0  0.98934  0.97007  0.47062  1.0000
  S   S384      1.0  0.98814  0.89793  0.16448  1.0000
  H   H2298     1.0  0.97837  0.88018  0.38357  1.0000
  C   C2877     1.0  0.98364  0.88962  0.56092  1.0000
  C   C2878     1.0  0.97434  0.86163  0.58018  1.0000
  C   C2879     1.0  0.98386  0.89750  0.48108  1.0000
  P   P96       1.0  0.98619  0.90602  0.52602  1.0000
  C   C2880     1.0  0.74418  0.94670  0.30574  1.0000
  H   H2299     1.0  0.74369  0.96048  0.30483  1.0000
  H   H2300     1.0  0.99181  0.88154  0.65090  1.0000
  H   H2301     1.0  0.74262  0.88517  0.08635  1.0000
  H   H2302     1.0  0.74417  0.98691  0.91095  1.0000
  H   H2303     1.0  0.95351  0.99011  0.38358  1.0000
  H   H2304     1.0  0.93859  0.74348  0.02777  1.0000
