data_image0
_chemical_formula_structural       H2CH3FeS2FeS2FeSFeS3FeS2FeSHFeSFeS3HSHSFeSH3C6H5C7H2C7H4C3H2C2HC2HCH2C4H7C3HCH2C2H2C3PC17H15C6PC18H20CHC2HCHC4PC2PH3C2HC2HC6HC2HCHC2HSCHC4HCH2CH2C2HC3HC3H3CSC6H4PCH2C3HC6HCH3C3HSHCHSCFeHCHPC2HC3H3C2H2C2H3CHCHCHCHCH2CH3C3HCHCHSH2CHC2H2CH2C3HFeCHCH2CH3SPFeSC2FeS2FeS2FeSFeS3FeS2FeSCFeSFeS3C7H4C2H3C5HSCH2C4H3C4HC2H3C2H2C2HC7H6CHCH3C6PCH2CHCHC3HC3HC3H4FeHCHCHCH2CHC2SCH2C2HC6PC2H3C13H8CH11C6PHSCH2CHCH6C2HCHCHCHCHCH2CH3CHC5HCHCFeHCH4CH2CHC7PC4HC13H2SHCH2C3H5C4H2CHCSFe2HSCH2C2H2C4S2H2SH3SHFeSCFeS2FeSFeS3FeSCSFeS2FeS2FeSFeS3C4H2C6H5C3HCH6C7H4C7H3SCHC7H5C5H3C2HCHC2PCHSC3H3C2HC3HCH4C4HCH2C2HC7H2CSC3PC6PC18H24PC2HCHC13HC2H3CHCH2C2H8C2FeHPHC7PHCH8SC4H5CHCHCH2C4HPC6PC2HCHC9HCH5C2H9C2HCH3C4HC3PC2HCHCH2CH2C2H3C2HC2HC4FeCHC2SCH5CH3CHCFeC3H3CHC2HC7HC3H4CH3C2HC2H2CH3C2SHFeHSFeS2FeCFeCS2FeS2H2SFeS2FeS2FeSFeS3H2CHC3HC8H4C6H4C3HC3HC3H4C4H3CSHC5FeC5H2C2HCH4C4HC2HC9H3CH6CPHSC3SHCHCHC2H2C2H2C5H2CH3CH3C2H2C2PH3CH3PC7PC18H14C4HC2HC2HCH3C3H3CFeSCHCH2C3HCHC3HSH3C5H2SHCH2C3H2CHC4H2CSH2CFeSCFeS2FeS2FeSFeS3FeSCFeS2FeSFeS3HC6H5C2HCHCHC2HCHC6H6C3HCHSHC6H3C5H3C2PC2H4C7HC2HCH3CHCH5CH4C2H4C2H6CHC2HCHC4HC2H4CHC2HCHCH3C3HCSC3H2C2HCFeC2HC2HPHCH2PCH3SH6C8H5CH3CPHCH7C9H9C6PC3H3C13H5CH2CH8C6PC18HC4SC2H2CH2C3H4C2HCHCHCHFeH3SC3H3SC2HFeS2FeS2FeSFeS3FeS2FeSCFeSFeS4FeCSHC2SH2C3H5C6HCH2C6H5C2H4C4HCHSHC8H2C3HC2HCH2CHC4H3C6H2CHC3H4CH3CH4CH3CHC2H6CSFeH2C3HC6PC18H20C6PC7HC7PHCH8CH2CH5CHC2HC6FeHCH2C7SC3HCH6CHCHCH2CHC3HFeCPH4C3HPC2HC3HFeC3HC2HCH2CH2CHC3SCHCHS2HCH2CHC2H3CHC2HCH3C4SFeSFeS2FeS2FeSFeS3FeHSCSFeS2FeSHFeSFeS3CH2C3H2C4HCH2C9H4C4H2C6H2C5H2PC2HCHCH3C2H3C4H2C2H3CH2CPH2C2H3CFeCHC2H2CH2FeC2HC3H2SCH2C3H3CHC4HC6SCHC2H3C2H2C3HC2H4CHCH5CSCH4C2SCPH2C2H4C2HCHCHC2HC3H2C2HC2H3CH2CH3C4HC4H2C5H2CHCHCH2CHC3PC3HC8HCH3C2H3C2H2CHCH2C4H2C2HPCHCH4C3HCH3C4HCHCH2C2HC3H5CHCH2C4HCHC3PCH2C2H4C3HCHSFeSHCH3CHSFeS2FeS2FeSFeHS2FeSCSFeS2FeS2FeSFeS3HCHC2HC7H3C6SH2C10H5C5H3C3HC3HSC2HCHC2H2C2H2CHCH2CFeHC3H4CHC6PC6HC5H8CH2CH2C2HC2H2C3HCHCHCHSH2CHC2PC16HPH10CH6C2HC2HCHC2HC3H6CHC2HCFeH2C3HCH3SPCHC2H4C2HC4SCHC3HCHFeC9PC12HC3H14CH2C2HCHC2H5CSCH5CHC2HC3HCH2SCH2C2HC2HSCHC3H2C2HFeCFeSFeSCFeS2FeSFeS3FeCSHS2FeS2FeS2FeSFeS3CHC2HC6H3C3HC7H4C3H2CHC4HCH3CHC4H3C8PC2H3CHC11H4CH12CH3SCHCH5SC4SC2HCHCSHCH2C2HCH2C4PC19H9CH9C2HCHCPCHCH2C6H2C3H2CH2CPH5CHCSCHC2HC2HCH3CH3CHC4H4CHC7PC6HC3H7CH2FeCH2FeCHC2H2CHC4H4CHCPH3C2H2C2H3CHC2HC3H2C5HC2FeSCFeS2FeS2FeCFeS4Fe2SFeS2FeSCFeSFeS3C2HC2HC4H3CHC6H3FeC2HC6H4CHC5H3C6H4C6PC19H20CHCH2C13HC2H9CH2C7PC10PHCH2CH3C2HC3H2CH2CHCH2C2HC3HCHC4HCH3C6HCSC2H5C2H2CHCPCH2C2H2CHCSH3C3H2PC3SC12H3CH13CHCH2C2HCH2CHSC3SHC2H4C3H2C2PHCH3CHC3H2C2SH3C3H2CHC2S2HFeSCFeS2FeS2FeSFeS3FeS2FeS2FeSFeHS2C9H6CH4C4H2C7H3C4H6C5H3C3H4SC3H2C4HC5H2CHC2HPH2C3HC2HC3HC3HCH4C2HCHC2FeHCSC2HCHCHCHSCHCH4C7PC18H20C2HCHCSCH3PHC2H4C2HC3HPH2C2HC2HCSC5H2CFeHC2HC4H3CH2PH2C2HC7H2CHC3HC3HC2H4CHC2H3C4H2CHCFeHCFeC5H2SC2HC5HC2Fe2S2FeS2FeSFeS3FeS2FeS2FeSFeS3H3FeSHC4H3C3HC5H2C6H4CSH3C2H4CHCHC5H2CH2C2H4C2H2C2HC2HPH5S2CHC3HCH2CHC4HCSH4PHC2HCH2CH2C6HC2HCHC3H3C2HC2H2SH7CHCH3C3HC2H4C6HCH2C2SCHCHC4HCHC10PC18H20CH2P2C10HC3HC3H3C2H3C2H4C3H5C4PC15H3CHPCFeC2HCHCH5C2HC3H3CH3CHC2HC3SCSHC3SHC3HFeS2FeS2FeSFeHS2FeSHSFeS2FeS2FeSFeS3CH2C5HC2SH3C7H2CHC7H4C6H2CHCHCHC3H4C11H6C2HC2HC6PC15H17C2H3FeC2HC2H2CHPHCHC4HCHC3H3CH3PCHCSCHC3HFeC2HC7HCHSC4PHCHCFeCHCHC2HC4H3C3H3C3PHC7HCHC2HCHC4SH7C2H9C2H2CH3SPCHC3HC4HCHC4HCHC3HC3H3C2HCH2CH2CHC3SCHCH5CHCH2CHC2HCH2C2H2C2PH2CSFeS2FeSHFeSFeS3FeHSFeS2FeS2FeS2FeSFeS3CHC2HC6H2CH2CHPC6H4C5H3CHC6H2C5H3CHC6H4C2SC2H3CHC8HC2H2CH6CH5C3HC2H2CH2C6HFeCH2CHCH3C2HPC13H4CHCHCH10PHCHCHC9H3C2HCHCHC4HCH2PCH5CH3C2H2CHCHC5H2C2HC2H3C4HC2H2CSHCH2CHPHC6HC2HSH8CH2C14H2CHC2H3C3HC5HC3PCH2C3H6FeCSCHCHC2HSCH3C2HCH2CFeS2FeS2FeSFeS3FeS2FeS2FeSFeS3HSCFeSHC3H3C6H4SC6H4CHCHC6HC3FeHCHC3HCH2C2H2C4HCH2CHC2HC5HCHCH3C2H3C2PHC3HC2HCH3C2H2C2H2C6PC7H2C2H2C2H3SH7CH2SHC7PC3SHCHFeC8H10CH6CH5C2H2CHC2HC2HCH2CH3C3H5C2HC10PHC6H3C8H7CH3CH10C3HCSC2H3CHC8HPC2H2SC3HC3H3CH3CHSH2C2FeHCHCH4C5HC4H2CH2CSHC3SHPHCHCHSCFeSPFeS2FeS2FeSFeS3FeSCFeS2FeSFeSCSC6H5C3H5CHC10HCHCPC4HCH3CHCHC6HCH5C4PC4HC13H18CHFeCPC17H14CHC2H3C2HC4HCPHC4H3FeCH2C2H2PHCH3CH2C12H4C2HCHCHC6HCHC2H5C2HC2SC2H3C2HC2H2C2HCHSH3CHC2HCHC2H3C9HC3HCHC3HCH2CH3PC2H3SCH3CH2C2HC3HC2HCHCHSH2C2HC2H
_chemical_formula_sum              "H2304 C2880 Fe192 S384 P96"
_cell_length_a       81.727
_cell_length_b       81.3277
_cell_length_c       32.7178
_cell_angle_alpha    88.5699
_cell_angle_beta     88.548
_cell_angle_gamma    88.1261

_space_group_name_H-M_alt    "P 1"
_space_group_IT_number       1

loop_
  _space_group_symop_operation_xyz
  'x, y, z'

loop_
  _atom_site_type_symbol
  _atom_site_label
  _atom_site_symmetry_multiplicity
  _atom_site_fract_x
  _atom_site_fract_y
  _atom_site_fract_z
  _atom_site_occupancy
  H   H1        1.0  0.10612  0.04663  0.48919  1.0000
  H   H2        1.0  0.09348  0.07465  0.48337  1.0000
  C   C1        1.0  0.07681  0.19098  0.86682  1.0000
  H   H3        1.0  0.02543  0.02880  0.43985  1.0000
  H   H4        1.0  0.99590  0.07952  0.55078  1.0000
  H   H5        1.0  0.07458  0.01855  0.41630  1.0000
  Fe  Fe1       1.0  0.04047  0.05575  0.64525  1.0000
  S   S1        1.0  0.02204  0.07667  0.63321  1.0000
  S   S2        1.0  0.02877  0.03062  0.65700  1.0000
  Fe  Fe2       1.0  0.06970  0.07770  0.62223  1.0000
  S   S3        1.0  0.05304  0.09941  0.60753  1.0000
  S   S4        1.0  0.09783  0.07848  0.62373  1.0000
  Fe  Fe3       1.0  0.03909  0.09298  0.66626  1.0000
  S   S5        1.0  0.03351  0.11581  0.70648  1.0000
  Fe  Fe4       1.0  0.03715  0.08150  0.57632  1.0000
  S   S6        1.0  0.02787  0.08554  0.51109  1.0000
  S   S7        1.0  0.05645  0.07174  0.68231  1.0000
  S   S8        1.0  0.05493  0.06015  0.58690  1.0000
  Fe  Fe5       1.0  0.20707  0.13136  0.56233  1.0000
  S   S9        1.0  0.18680  0.14109  0.52337  1.0000
  S   S10       1.0  0.20845  0.14361  0.62361  1.0000
  Fe  Fe6       1.0  0.21791  0.10556  0.50104  1.0000
  S   S11       1.0  0.19818  0.11416  0.45703  1.0000
  H   H6        1.0  0.16495  0.20769  0.42616  1.0000
  Fe  Fe7       1.0  0.20519  0.13995  0.47116  1.0000
  S   S12       1.0  0.20293  0.16331  0.43040  1.0000
  Fe  Fe8       1.0  0.18106  0.11483  0.51245  1.0000
  S   S13       1.0  0.15370  0.10946  0.50627  1.0000
  S   S14       1.0  0.22602  0.13156  0.51124  1.0000
  S   S15       1.0  0.20032  0.10480  0.55543  1.0000
  H   H7        1.0  0.24094  0.07433  0.56461  1.0000
  S   S16       1.0  0.00335  0.14950  0.98321  1.0000
  H   H8        1.0  0.16776  0.21775  0.35473  1.0000
  S   S17       1.0  0.23579  0.08497  0.47885  1.0000
  Fe  Fe9       1.0  0.00872  0.17667  0.98267  1.0000
  S   S18       1.0  0.03382  0.18523  0.00320  1.0000
  H   H9        1.0  0.00452  0.05763  0.37909  1.0000
  H   H10       1.0  0.04273  0.18878  0.72952  1.0000
  H   H11       1.0  0.06897  0.19588  0.84302  1.0000
  C   C2        1.0  0.07062  0.21822  0.99798  1.0000
  C   C3        1.0  0.06025  0.20523  0.00959  1.0000
  C   C4        1.0  0.04688  0.20130  0.98568  1.0000
  C   C5        1.0  0.04420  0.21040  0.94941  1.0000
  C   C6        1.0  0.07599  0.00245  0.59492  1.0000
  C   C7        1.0  0.04447  0.02365  0.19876  1.0000
  H   H12       1.0  0.06252  0.19826  0.03755  1.0000
  H   H13       1.0  0.03407  0.20750  0.93051  1.0000
  H   H14       1.0  0.05568  0.20646  0.12531  1.0000
  H   H15       1.0  0.06329  0.07834  0.47839  1.0000
  H   H16       1.0  0.03618  0.02576  0.56843  1.0000
  C   C8        1.0  0.00618  0.12980  0.82794  1.0000
  C   C9        1.0  0.00666  0.11340  0.81475  1.0000
  C   C10       1.0  0.01488  0.10887  0.77790  1.0000
  C   C11       1.0  0.02271  0.12071  0.75331  1.0000
  C   C12       1.0  0.02208  0.13715  0.76629  1.0000
  C   C13       1.0  0.01402  0.14164  0.80339  1.0000
  C   C14       1.0  0.04053  0.18584  0.76164  1.0000
  H   H17       1.0  0.01513  0.09620  0.76855  1.0000
  H   H18       1.0  0.02795  0.14650  0.74755  1.0000
  C   C15       1.0  0.04149  0.99518  0.43899  1.0000
  C   C16       1.0  0.11309  0.08723  0.59044  1.0000
  C   C17       1.0  0.12959  0.08620  0.60202  1.0000
  C   C18       1.0  0.14213  0.09312  0.57717  1.0000
  C   C19       1.0  0.13838  0.10095  0.53984  1.0000
  C   C20       1.0  0.12186  0.10202  0.52828  1.0000
  C   C21       1.0  0.10929  0.09532  0.55345  1.0000
  H   H19       1.0  0.13271  0.07994  0.63045  1.0000
  H   H20       1.0  0.15472  0.09215  0.58656  1.0000
  H   H21       1.0  0.11877  0.10807  0.49957  1.0000
  H   H22       1.0  0.09669  0.09632  0.54412  1.0000
  C   C22       1.0  0.00784  0.08325  0.49218  1.0000
  C   C23       1.0  0.00178  0.04011  0.52179  1.0000
  C   C24       1.0  0.18322  0.18304  0.57107  1.0000
  H   H23       1.0  0.05574  0.02851  0.20948  1.0000
  H   H24       1.0  0.19080  0.23592  0.08311  1.0000
  C   C25       1.0  0.13403  0.17482  0.19723  1.0000
  C   C26       1.0  0.08621  0.20192  0.88786  1.0000
  H   H25       1.0  0.17222  0.18998  0.19037  1.0000
  C   C27       1.0  0.23627  0.19129  0.63709  1.0000
  C   C28       1.0  0.03799  0.01053  0.66276  1.0000
  H   H26       1.0  0.00421  0.00660  0.15892  1.0000
  C   C29       1.0  0.21002  0.23146  0.41664  1.0000
  H   H27       1.0  0.06027  0.01835  0.68867  1.0000
  H   H28       1.0  0.08879  0.02226  0.49070  1.0000
  C   C30       1.0  0.23803  0.23382  0.86807  1.0000
  C   C31       1.0  0.22233  0.19868  0.35483  1.0000
  C   C32       1.0  0.21193  0.18971  0.38156  1.0000
  C   C33       1.0  0.21674  0.17405  0.39720  1.0000
  H   H29       1.0  0.08083  0.22101  0.01671  1.0000
  H   H30       1.0  0.19733  0.17648  0.30410  1.0000
  H   H31       1.0  0.21835  0.21057  0.34259  1.0000
  H   H32       1.0  0.20007  0.19493  0.39014  1.0000
  H   H33       1.0  0.22988  0.23604  0.84286  1.0000
  H   H34       1.0  0.01782  0.19985  0.76507  1.0000
  H   H35       1.0  0.20968  0.16640  0.68884  1.0000
  C   C34       1.0  0.24263  0.17650  0.35927  1.0000
  C   C35       1.0  0.99525  0.02901  0.30965  1.0000
  C   C36       1.0  0.21892  0.16218  0.62757  1.0000
  H   H36       1.0  0.01083  0.21350  0.99426  1.0000
  C   C37       1.0  0.18005  0.23280  0.28407  1.0000
  H   H37       1.0  0.02936  0.03767  0.24038  1.0000
  H   H38       1.0  0.13811  0.18868  0.29341  1.0000
  C   C38       1.0  0.21739  0.17097  0.66397  1.0000
  C   C39       1.0  0.21764  0.17990  0.26294  1.0000
  H   H39       1.0  0.04584  0.05444  0.48001  1.0000
  H   H40       1.0  0.00258  0.00259  0.40737  1.0000
  C   C40       1.0  0.00545  0.08468  0.44975  1.0000
  C   C41       1.0  0.07726  0.17412  0.87749  1.0000
  C   C42       1.0  0.08756  0.16837  0.90886  1.0000
  P   P1        1.0  0.06413  0.16003  0.85285  1.0000
  C   C43       1.0  0.05337  0.14792  0.89147  1.0000
  C   C44       1.0  0.04903  0.17195  0.82457  1.0000
  C   C45       1.0  0.03490  0.17833  0.84462  1.0000
  C   C46       1.0  0.02363  0.18831  0.82316  1.0000
  C   C47       1.0  0.02645  0.19206  0.78170  1.0000
  C   C48       1.0  0.05185  0.17593  0.78302  1.0000
  C   C49       1.0  0.04620  0.13313  0.88136  1.0000
  C   C50       1.0  0.03813  0.12368  0.91137  1.0000
  C   C51       1.0  0.03722  0.12884  0.95175  1.0000
  C   C52       1.0  0.04391  0.14374  0.96191  1.0000
  C   C53       1.0  0.05171  0.15339  0.93185  1.0000
  C   C54       1.0  0.07560  0.14644  0.81871  1.0000
  C   C55       1.0  0.09265  0.14413  0.82156  1.0000
  C   C56       1.0  0.10121  0.13313  0.79587  1.0000
  C   C57       1.0  0.09283  0.12436  0.76720  1.0000
  C   C58       1.0  0.07590  0.12664  0.76404  1.0000
  C   C59       1.0  0.06736  0.13772  0.78935  1.0000
  H   H41       1.0  0.17437  0.22557  0.87008  1.0000
  H   H42       1.0  0.08800  0.15545  0.91784  1.0000
  H   H43       1.0  0.03260  0.17566  0.87685  1.0000
  H   H44       1.0  0.01268  0.19306  0.83879  1.0000
  H   H45       1.0  0.06287  0.17153  0.76720  1.0000
  H   H46       1.0  0.04649  0.12887  0.85038  1.0000
  H   H47       1.0  0.03226  0.11251  0.90310  1.0000
  H   H48       1.0  0.03078  0.12159  0.97488  1.0000
  H   H49       1.0  0.04260  0.14812  0.99292  1.0000
  H   H50       1.0  0.05615  0.16520  0.94037  1.0000
  H   H51       1.0  0.09939  0.15065  0.84370  1.0000
  H   H52       1.0  0.11432  0.13120  0.79859  1.0000
  H   H53       1.0  0.09940  0.11573  0.74745  1.0000
  H   H54       1.0  0.06931  0.11974  0.74208  1.0000
  H   H55       1.0  0.05427  0.13931  0.78623  1.0000
  C   C60       1.0  0.08845  0.14946  0.68007  1.0000
  C   C61       1.0  0.08248  0.13549  0.66215  1.0000
  C   C62       1.0  0.09329  0.12452  0.64227  1.0000
  C   C63       1.0  0.11008  0.12736  0.64075  1.0000
  C   C64       1.0  0.11628  0.14093  0.66026  1.0000
  C   C65       1.0  0.10527  0.15230  0.67870  1.0000
  P   P2        1.0  0.13790  0.14489  0.65564  1.0000
  C   C66       1.0  0.14043  0.15471  0.60604  1.0000
  C   C67       1.0  0.14530  0.15767  0.69506  1.0000
  C   C68       1.0  0.15918  0.16712  0.68725  1.0000
  C   C69       1.0  0.16543  0.17658  0.71803  1.0000
  C   C70       1.0  0.15801  0.17650  0.75697  1.0000
  C   C71       1.0  0.14448  0.16674  0.76535  1.0000
  C   C72       1.0  0.13827  0.15720  0.73465  1.0000
  C   C73       1.0  0.13768  0.17177  0.60119  1.0000
  C   C74       1.0  0.13837  0.17922  0.56220  1.0000
  C   C75       1.0  0.14156  0.16964  0.52783  1.0000
  C   C76       1.0  0.14425  0.15266  0.53249  1.0000
  C   C77       1.0  0.14366  0.14520  0.57143  1.0000
  C   C78       1.0  0.15039  0.12624  0.65972  1.0000
  C   C79       1.0  0.16672  0.12620  0.64536  1.0000
  C   C80       1.0  0.17686  0.11217  0.65057  1.0000
  C   C81       1.0  0.17075  0.09803  0.66971  1.0000
  C   C82       1.0  0.15457  0.09802  0.68453  1.0000
  C   C83       1.0  0.14446  0.11214  0.68004  1.0000
  H   H56       1.0  0.08000  0.15807  0.69493  1.0000
  H   H57       1.0  0.06946  0.13317  0.66335  1.0000
  H   H58       1.0  0.08868  0.11381  0.62773  1.0000
  H   H59       1.0  0.11820  0.11897  0.62408  1.0000
  H   H60       1.0  0.10959  0.16343  0.69161  1.0000
  H   H61       1.0  0.16541  0.16695  0.65765  1.0000
  H   H62       1.0  0.17620  0.18378  0.71187  1.0000
  H   H63       1.0  0.16293  0.18380  0.78080  1.0000
  H   H64       1.0  0.13898  0.16643  0.79582  1.0000
  H   H65       1.0  0.12815  0.14930  0.74195  1.0000
  H   H66       1.0  0.13476  0.17927  0.62744  1.0000
  H   H67       1.0  0.13625  0.19238  0.55859  1.0000
  H   H68       1.0  0.14187  0.17533  0.49757  1.0000
  H   H69       1.0  0.14668  0.14514  0.50593  1.0000
  H   H70       1.0  0.14547  0.13197  0.57435  1.0000
  H   H71       1.0  0.17175  0.13703  0.63047  1.0000
  H   H72       1.0  0.18952  0.11235  0.63990  1.0000
  H   H73       1.0  0.17859  0.08710  0.67308  1.0000
  H   H74       1.0  0.14982  0.08704  0.69933  1.0000
  H   H75       1.0  0.13207  0.11193  0.69244  1.0000
  C   C84       1.0  0.09613  0.19615  0.91959  1.0000
  H   H76       1.0  0.02366  0.12330  0.62038  1.0000
  C   C85       1.0  0.16060  0.18670  0.20426  1.0000
  C   C86       1.0  0.16502  0.18217  0.41051  1.0000
  H   H77       1.0  0.00261  0.04130  0.13923  1.0000
  C   C87       1.0  0.01250  0.03572  0.55306  1.0000
  H   H78       1.0  0.18137  0.23106  0.49420  1.0000
  C   C88       1.0  0.00637  0.03733  0.48109  1.0000
  C   C89       1.0  0.02176  0.03017  0.47163  1.0000
  C   C90       1.0  0.03257  0.02559  0.50300  1.0000
  C   C91       1.0  0.02786  0.02853  0.54376  1.0000
  P   P3        1.0  0.05324  0.01865  0.49057  1.0000
  C   C92       1.0  0.06538  0.00943  0.41336  1.0000
  C   C93       1.0  0.05330  0.00710  0.44406  1.0000
  P   P4        1.0  0.99515  0.02939  0.22387  1.0000
  H   H79       1.0  0.23652  0.18644  0.21900  1.0000
  H   H80       1.0  0.08193  0.00794  0.62026  1.0000
  H   H81       1.0  0.00923  0.03840  0.58453  1.0000
  C   C94       1.0  0.06885  0.01248  0.56456  1.0000
  C   C95       1.0  0.23618  0.23116  0.55333  1.0000
  H   H82       1.0  0.03358  0.22988  0.01776  1.0000
  C   C96       1.0  0.19284  0.19395  0.59146  1.0000
  C   C97       1.0  0.15683  0.19008  0.24540  1.0000
  H   H83       1.0  0.21902  0.20764  0.18366  1.0000
  C   C98       1.0  0.06599  0.03641  0.48506  1.0000
  C   C99       1.0  0.05897  0.05236  0.48108  1.0000
  C   C100      1.0  0.06888  0.06607  0.48015  1.0000
  C   C101      1.0  0.08585  0.06400  0.48304  1.0000
  C   C102      1.0  0.09296  0.04818  0.48635  1.0000
  C   C103      1.0  0.08310  0.03442  0.48723  1.0000
  H   H84       1.0  0.05664  0.00837  0.15368  1.0000
  C   C104      1.0  0.07524  0.22295  0.11089  1.0000
  C   C105      1.0  0.13013  0.17827  0.23802  1.0000
  H   H85       1.0  0.08550  0.21500  0.88043  1.0000
  C   C106      1.0  0.23214  0.16744  0.38566  1.0000
  H   H86       1.0  0.99821  0.04132  0.45692  1.0000
  C   C107      1.0  0.16837  0.19342  0.32901  1.0000
  C   C108      1.0  0.24200  0.21513  0.09527  1.0000
  H   H87       1.0  0.16596  0.15783  0.38613  1.0000
  S   S19       1.0  0.99469  0.13483  0.87368  1.0000
  C   C109      1.0  0.20165  0.18324  0.27735  1.0000
  H   H88       1.0  0.20616  0.24231  0.35686  1.0000
  C   C110      1.0  0.05469  0.22327  0.93760  1.0000
  C   C111      1.0  0.00825  0.22471  0.01083  1.0000
  C   C112      1.0  0.16548  0.19904  0.40153  1.0000
  C   C113      1.0  0.21073  0.24306  0.96159  1.0000
  H   H89       1.0  0.16443  0.17769  0.44193  1.0000
  C   C114      1.0  0.00297  0.05211  0.34965  1.0000
  H   H90       1.0  0.19239  0.19456  0.47293  1.0000
  H   H91       1.0  0.21209  0.21825  0.93974  1.0000
  C   C115      1.0  0.14144  0.18593  0.26200  1.0000
  H   H92       1.0  0.01708  0.99855  0.63963  1.0000
  H   H93       1.0  0.00941  0.07398  0.31525  1.0000
  C   C116      1.0  0.03044  0.00619  0.15316  1.0000
  C   C117      1.0  0.99364  0.11790  0.55234  1.0000
  H   H94       1.0  0.19103  0.22771  0.29809  1.0000
  C   C118      1.0  0.18282  0.18362  0.52842  1.0000
  C   C119      1.0  0.19226  0.19483  0.50605  1.0000
  C   C120      1.0  0.01530  0.23280  0.86606  1.0000
  H   H95       1.0  0.01828  0.12643  0.54621  1.0000
  C   C121      1.0  0.16591  0.17093  0.37893  1.0000
  C   C122      1.0  0.16718  0.20468  0.36092  1.0000
  C   C123      1.0  0.06581  0.99974  0.37856  1.0000
  H   H96       1.0  0.22475  0.19215  0.69691  1.0000
  H   H97       1.0  0.22444  0.18327  0.50140  1.0000
  H   H98       1.0  0.17574  0.17491  0.51252  1.0000
  C   C124      1.0  0.00993  0.23839  0.90430  1.0000
  S   S20       1.0  0.21773  0.24031  0.69723  1.0000
  C   C125      1.0  0.16805  0.22232  0.27073  1.0000
  C   C126      1.0  0.20236  0.20520  0.56919  1.0000
  C   C127      1.0  0.09690  0.17937  0.92992  1.0000
  C   C128      1.0  0.15408  0.22916  0.25179  1.0000
  C   C129      1.0  0.14924  0.17908  0.18035  1.0000
  C   C130      1.0  0.07932  0.23844  0.09507  1.0000
  H   H99       1.0  0.00281  0.11174  0.66746  1.0000
  H   H100      1.0  0.23486  0.21338  0.12325  1.0000
  H   H101      1.0  0.01587  0.08665  0.42937  1.0000
  H   H102      1.0  0.14474  0.22141  0.24061  1.0000
  P   P5        1.0  0.21533  0.21895  0.49632  1.0000
  C   C131      1.0  0.24146  0.24293  0.58001  1.0000
  H   H103      1.0  0.19343  0.19329  0.62451  1.0000
  H   H104      1.0  0.17648  0.17379  0.58819  1.0000
  C   C132      1.0  0.06793  0.22735  0.96185  1.0000
  C   C133      1.0  0.05885  0.21855  0.11350  1.0000
  C   C134      1.0  0.05340  0.00792  0.67981  1.0000
  H   H105      1.0  0.10300  0.20480  0.93652  1.0000
  C   C135      1.0  0.23780  0.19217  0.34374  1.0000
  C   C136      1.0  0.06116  0.00549  0.53153  1.0000
  C   C137      1.0  0.20071  0.23968  0.38672  1.0000
  C   C138      1.0  0.16744  0.17651  0.33832  1.0000
  C   C139      1.0  0.00317  0.05445  0.27569  1.0000
  C   C140      1.0  0.01184  0.12028  0.60888  1.0000
  H   H106      1.0  0.12526  0.16890  0.17865  1.0000
  C   C141      1.0  0.22589  0.18557  0.66859  1.0000
  H   H107      1.0  0.10447  0.17495  0.95483  1.0000
  H   H108      1.0  0.00825  0.22519  0.80687  1.0000
  H   H109      1.0  0.23341  0.20799  0.87257  1.0000
  C   C142      1.0  0.20323  0.22832  0.45581  1.0000
  C   C143      1.0  0.20218  0.20564  0.52623  1.0000
  C   C144      1.0  0.02913  0.99672  0.65223  1.0000
  H   H110      1.0  0.21017  0.21307  0.58574  1.0000
  S   S21       1.0  0.99799  0.18187  0.92084  1.0000
  H   H111      1.0  0.07528  0.00148  0.35519  1.0000
  C   C145      1.0  0.19181  0.19545  0.25798  1.0000
  H   H112      1.0  0.05258  0.23012  0.90939  1.0000
  S   S22       1.0  0.19961  0.22835  0.80778  1.0000
  C   C146      1.0  0.23273  0.20683  0.47722  1.0000
  Fe  Fe10      1.0  0.21999  0.23723  0.76534  1.0000
  H   H113      1.0  0.11831  0.17502  0.25106  1.0000
  C   C147      1.0  0.19826  0.20419  0.22401  1.0000
  H   H114      1.0  0.16835  0.16759  0.31426  1.0000
  P   P6        1.0  0.17121  0.20030  0.27640  1.0000
  C   C148      1.0  0.00574  0.06132  0.31368  1.0000
  C   C149      1.0  0.01539  0.01134  0.17055  1.0000
  H   H115      1.0  0.15223  0.17652  0.14863  1.0000
  C   C150      1.0  0.00876  0.12216  0.56720  1.0000
  C   C151      1.0  0.99991  0.11386  0.63561  1.0000
  C   C152      1.0  0.18762  0.22523  0.95958  1.0000
  H   H116      1.0  0.01365  0.15429  0.81269  1.0000
  H   H117      1.0  0.01527  0.99732  0.33936  1.0000
  H   H118      1.0  0.22243  0.22765  0.40871  1.0000
  C   C153      1.0  0.18686  0.23325  0.46414  1.0000
  C   C154      1.0  0.22275  0.23469  0.52838  1.0000
  H   H119      1.0  0.00055  0.10411  0.83316  1.0000
  H   H120      1.0  0.00189  0.99507  0.24861  1.0000
  C   C155      1.0  0.02943  0.02882  0.21627  1.0000
  C   C156      1.0  0.99423  0.08073  0.51813  1.0000
  H   H121      1.0  0.18257  0.21357  0.95202  1.0000
  H   H122      1.0  0.22159  0.21189  0.05640  1.0000
  H   H123      1.0  0.23013  0.16156  0.56739  1.0000
  C   C157      1.0  0.00392  0.22972  0.83614  1.0000
  H   H124      1.0  0.23749  0.21642  0.99267  1.0000
  C   C158      1.0  0.01476  0.02258  0.20251  1.0000
  H   H125      1.0  0.08480  0.21432  0.12079  1.0000
  C   C159      1.0  0.23390  0.18972  0.48447  1.0000
  H   H126      1.0  0.99489  0.02916  0.37549  1.0000
  C   C160      1.0  0.24002  0.21799  0.88502  1.0000
  H   H127      1.0  0.24219  0.21909  0.55348  1.0000
  C   C161      1.0  0.21420  0.20074  0.20967  1.0000
  H   H128      1.0  0.19105  0.21377  0.20854  1.0000
  H   H129      1.0  0.22660  0.00308  0.58554  1.0000
  C   C162      1.0  0.22892  0.16818  0.59559  1.0000
  H   H130      1.0  0.06943  0.02571  0.56693  1.0000
  H   H131      1.0  0.00087  0.00265  0.51311  1.0000
  H   H132      1.0  0.03083  0.99748  0.12857  1.0000
  C   C163      1.0  0.04498  0.01232  0.16729  1.0000
  C   C164      1.0  0.99800  0.03818  0.27336  1.0000
  C   C165      1.0  0.23452  0.21435  0.05751  1.0000
  H   H133      1.0  0.01872  0.24064  0.92764  1.0000
  C   C166      1.0  0.02109  0.23402  0.02410  1.0000
  H   H134      1.0  0.16441  0.23586  0.97979  1.0000
  C   C167      1.0  0.04653  0.22959  0.10012  1.0000
  H   H135      1.0  0.22532  0.17078  0.27866  1.0000
  S   S23       1.0  0.20839  0.24134  0.15626  1.0000
  H   H136      1.0  0.23583  0.10695  0.37365  1.0000
  H   H137      1.0  0.23597  0.15540  0.39716  1.0000
  C   C168      1.0  0.23769  0.18260  0.60051  1.0000
  H   H138      1.0  0.03390  0.22594  0.10236  1.0000
  C   C169      1.0  0.17490  0.23839  0.86076  1.0000
  C   C170      1.0  0.17756  0.24139  0.43405  1.0000
  H   H139      1.0  0.00509  0.06190  0.24816  1.0000
  H   H140      1.0  0.02232  0.99359  0.56114  1.0000
  C   C171      1.0  0.20428  0.22787  0.95272  1.0000
  H   H141      1.0  0.99979  0.05082  0.71075  1.0000
  H   H142      1.0  0.02827  0.23069  0.85982  1.0000
  C   C172      1.0  0.17739  0.23778  0.97515  1.0000
  C   C173      1.0  0.22396  0.18872  0.22932  1.0000
  C   C174      1.0  0.99765  0.03602  0.34762  1.0000
  H   H143      1.0  0.09204  0.24187  0.09276  1.0000
  Fe  Fe11      1.0  0.24205  0.22673  0.69379  1.0000
  C   C175      1.0  0.18627  0.24324  0.83027  1.0000
  H   H144      1.0  0.00651  0.30804  0.12712  1.0000
  C   C176      1.0  0.06344  0.46172  0.29141  1.0000
  H   H145      1.0  0.22829  0.31069  0.60324  1.0000
  H   H146      1.0  0.04112  0.25525  0.97804  1.0000
  C   C177      1.0  0.07312  0.44806  0.27909  1.0000
  H   H147      1.0  0.22557  0.33844  0.67743  1.0000
  H   H148      1.0  0.10960  0.48651  0.42813  1.0000
  H   H149      1.0  0.02550  0.27172  0.21264  1.0000
  S   S24       1.0  0.15829  0.47598  0.52325  1.0000
  P   P7        1.0  0.07129  0.48214  0.28591  1.0000
  Fe  Fe12      1.0  0.18441  0.48168  0.53789  1.0000
  S   S25       1.0  0.20903  0.46685  0.53443  1.0000
  C   C178      1.0  0.07996  0.47566  0.20460  1.0000
  C   C179      1.0  0.00263  0.42913  0.83898  1.0000
  Fe  Fe13      1.0  0.07369  0.41334  0.88075  1.0000
  S   S26       1.0  0.09342  0.43044  0.89764  1.0000
  S   S27       1.0  0.07804  0.38529  0.87524  1.0000
  Fe  Fe14      1.0  0.04969  0.44247  0.85930  1.0000
  S   S28       1.0  0.06855  0.46117  0.87360  1.0000
  S   S29       1.0  0.02458  0.45464  0.84463  1.0000
  Fe  Fe15      1.0  0.08708  0.44490  0.83952  1.0000
  S   S30       1.0  0.10938  0.45212  0.79787  1.0000
  Fe  Fe16      1.0  0.07332  0.44547  0.92955  1.0000
  S   S31       1.0  0.07064  0.45488  0.99512  1.0000
  S   S32       1.0  0.06793  0.42730  0.82157  1.0000
  S   S33       1.0  0.05395  0.42724  0.91645  1.0000
  Fe  Fe17      1.0  0.13260  0.27623  0.93877  1.0000
  S   S34       1.0  0.13270  0.29297  0.99217  1.0000
  S   S35       1.0  0.15231  0.28192  0.89084  1.0000
  Fe  Fe18      1.0  0.10115  0.25969  0.96905  1.0000
  S   S36       1.0  0.09947  0.27549  0.02496  1.0000
  C   C180      1.0  0.99474  0.46385  0.99371  1.0000
  Fe  Fe19      1.0  0.10575  0.29696  0.98286  1.0000
  S   S37       1.0  0.09420  0.32276  0.99327  1.0000
  Fe  Fe20      1.0  0.12685  0.27051  0.03019  1.0000
  S   S38       1.0  0.13856  0.26838  0.09351  1.0000
  S   S39       1.0  0.10594  0.28165  0.92682  1.0000
  S   S40       1.0  0.12822  0.25324  0.97689  1.0000
  C   C181      1.0  0.21148  0.47145  0.67664  1.0000
  C   C182      1.0  0.08284  0.36825  0.90902  1.0000
  C   C183      1.0  0.08501  0.35247  0.89253  1.0000
  C   C184      1.0  0.08907  0.33855  0.91742  1.0000
  C   C185      1.0  0.09054  0.34011  0.95965  1.0000
  C   C186      1.0  0.08827  0.35588  0.97627  1.0000
  C   C187      1.0  0.08465  0.36989  0.95115  1.0000
  H   H150      1.0  0.08333  0.35102  0.86020  1.0000
  H   H151      1.0  0.09064  0.32655  0.90407  1.0000
  H   H152      1.0  0.08933  0.35729  0.00886  1.0000
  H   H153      1.0  0.08303  0.38189  0.96445  1.0000
  C   C188      1.0  0.21476  0.25024  0.53031  1.0000
  C   C189      1.0  0.00497  0.44610  0.83827  1.0000
  H   H154      1.0  0.21033  0.45887  0.68772  1.0000
  H   H155      1.0  0.01296  0.42072  0.84397  1.0000
  H   H156      1.0  0.13098  0.41326  0.79128  1.0000
  C   C190      1.0  0.16835  0.25068  0.08589  1.0000
  C   C191      1.0  0.08330  0.48469  0.23930  1.0000
  C   C192      1.0  0.18957  0.25015  0.13795  1.0000
  C   C193      1.0  0.07578  0.47371  0.01737  1.0000
  C   C194      1.0  0.01462  0.44729  0.03240  1.0000
  H   H157      1.0  0.22222  0.37996  0.59263  1.0000
  S   S41       1.0  0.23782  0.28259  0.33109  1.0000
  C   C195      1.0  0.21223  0.41642  0.52435  1.0000
  H   H158      1.0  0.18453  0.26597  0.18860  1.0000
  H   H159      1.0  0.10014  0.30409  0.80443  1.0000
  C   C196      1.0  0.13591  0.46924  0.69797  1.0000
  C   C197      1.0  0.13117  0.46219  0.73638  1.0000
  C   C198      1.0  0.11452  0.46071  0.74810  1.0000
  C   C199      1.0  0.10269  0.46643  0.72044  1.0000
  H   H160      1.0  0.12258  0.47730  0.36332  1.0000
  H   H161      1.0  0.23404  0.30184  0.40384  1.0000
  H   H162      1.0  0.14050  0.45775  0.75712  1.0000
  C   C200      1.0  0.20053  0.25573  0.97730  1.0000
  C   C201      1.0  0.22342  0.27462  0.02695  1.0000
  C   C202      1.0  0.21627  0.44588  0.53050  1.0000
  C   C203      1.0  0.24089  0.29993  0.65497  1.0000
  H   H163      1.0  0.22019  0.48327  0.44428  1.0000
  C   C204      1.0  0.20576  0.43270  0.52803  1.0000
  C   C205      1.0  0.01787  0.24833  0.04634  1.0000
  H   H164      1.0  0.01672  0.29116  0.06962  1.0000
  H   H165      1.0  0.19266  0.43505  0.52855  1.0000
  H   H166      1.0  0.07480  0.42166  0.27467  1.0000
  C   C206      1.0  0.15867  0.26184  0.10855  1.0000
  C   C207      1.0  0.07316  0.48521  0.79087  1.0000
  H   H167      1.0  0.19737  0.34076  0.92125  1.0000
  H   H168      1.0  0.11442  0.37630  0.87683  1.0000
  C   C208      1.0  0.18010  0.26166  0.16006  1.0000
  C   C209      1.0  0.16468  0.26730  0.14569  1.0000
  H   H169      1.0  0.16956  0.35332  0.92585  1.0000
  C   C210      1.0  0.06704  0.24948  0.08150  1.0000
  C   C211      1.0  0.22927  0.41301  0.52312  1.0000
  C   C212      1.0  0.02592  0.44848  0.99985  1.0000
  C   C213      1.0  0.18679  0.25981  0.81807  1.0000
  C   C214      1.0  0.17614  0.27148  0.83663  1.0000
  C   C215      1.0  0.16493  0.26668  0.86753  1.0000
  C   C216      1.0  0.03342  0.49205  0.91077  1.0000
  H   H170      1.0  0.19532  0.26359  0.79412  1.0000
  H   H171      1.0  0.17662  0.28429  0.82714  1.0000
  H   H172      1.0  0.24160  0.45247  0.53165  1.0000
  H   H173      1.0  0.16300  0.26973  0.25382  1.0000
  H   H174      1.0  0.20571  0.32353  0.86225  1.0000
  H   H175      1.0  0.06388  0.46232  0.77085  1.0000
  C   C217      1.0  0.99903  0.45478  0.02924  1.0000
  H   H176      1.0  0.18616  0.31922  0.80716  1.0000
  C   C218      1.0  0.15227  0.24621  0.24593  1.0000
  H   H177      1.0  0.15610  0.31830  0.03712  1.0000
  H   H178      1.0  0.16378  0.24612  0.05778  1.0000
  H   H179      1.0  0.08552  0.48019  0.79306  1.0000
  C   C219      1.0  0.05353  0.27669  0.95661  1.0000
  C   C220      1.0  0.05995  0.29172  0.96684  1.0000
  C   C221      1.0  0.05831  0.29715  0.00690  1.0000
  C   C222      1.0  0.05039  0.28753  0.03683  1.0000
  C   C223      1.0  0.04354  0.27258  0.02664  1.0000
  C   C224      1.0  0.04540  0.26712  0.98636  1.0000
  P   P8        1.0  0.03470  0.25944  0.06617  1.0000
  C   C225      1.0  0.12699  0.48479  0.87964  1.0000
  H   H180      1.0  0.21985  0.24896  0.04373  1.0000
  H   H181      1.0  0.08649  0.47105  0.14149  1.0000
  C   C226      1.0  0.24207  0.28860  0.07027  1.0000
  H   H182      1.0  0.06136  0.46897  0.07223  1.0000
  C   C227      1.0  0.02436  0.49071  0.07027  1.0000
  H   H183      1.0  0.19721  0.27665  0.90273  1.0000
  C   C228      1.0  0.23707  0.25976  0.08243  1.0000
  C   C229      1.0  0.04473  0.48100  0.77600  1.0000
  C   C230      1.0  0.23330  0.44244  0.52974  1.0000
  H   H184      1.0  0.23701  0.26700  0.60423  1.0000
  C   C231      1.0  0.23104  0.28902  0.03819  1.0000
  C   C232      1.0  0.02718  0.27175  0.10834  1.0000
  C   C233      1.0  0.01875  0.28682  0.10073  1.0000
  H   H185      1.0  0.21359  0.27374  0.55982  1.0000
  C   C234      1.0  0.18375  0.25303  0.98370  1.0000
  C   C235      1.0  0.02362  0.27594  0.18138  1.0000
  C   C236      1.0  0.02950  0.26634  0.14894  1.0000
  H   H186      1.0  0.23885  0.24869  0.10099  1.0000
  H   H187      1.0  0.06659  0.29899  0.94409  1.0000
  H   H188      1.0  0.06362  0.30863  0.01498  1.0000
  H   H189      1.0  0.05006  0.29165  0.06803  1.0000
  Fe  Fe21      1.0  0.23237  0.26303  0.70371  1.0000
  H   H190      1.0  0.14071  0.37984  0.92745  1.0000
  C   C237      1.0  0.10224  0.48563  0.40116  1.0000
  H   H191      1.0  0.12703  0.33112  0.01417  1.0000
  C   C238      1.0  0.10109  0.48985  0.16584  1.0000
  H   H192      1.0  0.07049  0.26136  0.06914  1.0000
  C   C239      1.0  0.10958  0.48044  0.36449  1.0000
  H   H193      1.0  0.99851  0.26437  0.07116  1.0000
  H   H194      1.0  0.15825  0.33178  0.81103  1.0000
  C   C240      1.0  0.10742  0.47374  0.68240  1.0000
  H   H195      1.0  0.03586  0.25475  0.15573  1.0000
  C   C241      1.0  0.02753  0.48007  0.10357  1.0000
  C   C242      1.0  0.01291  0.29639  0.13323  1.0000
  S   S42       1.0  0.22514  0.28630  0.66793  1.0000
  C   C243      1.0  0.01535  0.29096  0.17355  1.0000
  H   H196      1.0  0.15555  0.24628  0.90295  1.0000
  H   H197      1.0  0.09807  0.47816  0.66163  1.0000
  C   C244      1.0  0.18364  0.24483  0.10058  1.0000
  C   C245      1.0  0.08901  0.47807  0.16822  1.0000
  H   H198      1.0  0.00305  0.47086  0.93230  1.0000
  C   C246      1.0  0.16910  0.33856  0.70704  1.0000
  C   C247      1.0  0.17446  0.32256  0.71770  1.0000
  C   C248      1.0  0.18828  0.31558  0.69805  1.0000
  C   C249      1.0  0.19664  0.32451  0.66754  1.0000
  C   C250      1.0  0.19128  0.34054  0.65621  1.0000
  C   C251      1.0  0.17747  0.34754  0.67647  1.0000
  P   P9        1.0  0.20214  0.35189  0.61617  1.0000
  C   C252      1.0  0.19020  0.36996  0.60023  1.0000
  C   C253      1.0  0.22155  0.35868  0.63393  1.0000
  H   H199      1.0  0.07028  0.46689  0.20536  1.0000
  H   H200      1.0  0.09093  0.48214  0.96720  1.0000
  H   H201      1.0  0.03657  0.47785  0.16480  1.0000
  C   C254      1.0  0.23325  0.25818  0.58243  1.0000
  C   C255      1.0  0.23977  0.42617  0.52612  1.0000
  C   C256      1.0  0.18187  0.37036  0.56316  1.0000
  C   C257      1.0  0.17344  0.38472  0.55011  1.0000
  C   C258      1.0  0.17322  0.39875  0.57395  1.0000
  C   C259      1.0  0.18131  0.39840  0.61108  1.0000
  C   C260      1.0  0.18972  0.38406  0.62429  1.0000
  C   C261      1.0  0.20623  0.33934  0.57192  1.0000
  C   C262      1.0  0.19759  0.32494  0.56618  1.0000
  C   C263      1.0  0.20080  0.31546  0.53158  1.0000
  C   C264      1.0  0.21234  0.32047  0.50198  1.0000
  C   C265      1.0  0.22062  0.33501  0.50686  1.0000
  C   C266      1.0  0.21763  0.34440  0.54167  1.0000
  H   H202      1.0  0.15835  0.34397  0.72222  1.0000
  H   H203      1.0  0.16787  0.31552  0.74097  1.0000
  H   H204      1.0  0.19253  0.30315  0.70613  1.0000
  H   H205      1.0  0.20720  0.31878  0.65248  1.0000
  H   H206      1.0  0.17297  0.35983  0.66856  1.0000
  H   H207      1.0  0.00127  0.26381  0.70777  1.0000
  H   H208      1.0  0.22202  0.46441  0.61827  1.0000
  H   H209      1.0  0.16085  0.36951  0.81249  1.0000
  C   C267      1.0  0.21672  0.28567  0.86403  1.0000
  H   H210      1.0  0.12316  0.29495  0.84834  1.0000
  H   H211      1.0  0.18206  0.35973  0.54388  1.0000
  H   H212      1.0  0.16731  0.38508  0.52111  1.0000
  H   H213      1.0  0.16696  0.40998  0.56342  1.0000
  H   H214      1.0  0.18130  0.40937  0.62923  1.0000
  H   H215      1.0  0.19614  0.38406  0.65285  1.0000
  H   H216      1.0  0.18830  0.32102  0.58809  1.0000
  H   H217      1.0  0.19418  0.30431  0.52751  1.0000
  H   H218      1.0  0.21470  0.31326  0.47489  1.0000
  H   H219      1.0  0.22925  0.33916  0.48339  1.0000
  H   H220      1.0  0.22406  0.35574  0.54449  1.0000
  C   C268      1.0  0.17233  0.31147  0.98696  1.0000
  C   C269      1.0  0.16646  0.31057  0.02743  1.0000
  C   C270      1.0  0.17349  0.29920  0.05500  1.0000
  C   C271      1.0  0.18656  0.28888  0.04237  1.0000
  C   C272      1.0  0.19272  0.28984  0.00191  1.0000
  C   C273      1.0  0.18538  0.30112  0.97413  1.0000
  P   P10       1.0  0.20891  0.27556  0.98603  1.0000
  H   H221      1.0  0.03521  0.47290  0.76721  1.0000
  S   S43       1.0  0.23253  0.26110  0.77220  1.0000
  C   C274      1.0  0.21844  0.28192  0.93785  1.0000
  H   H222      1.0  0.05478  0.48205  0.94114  1.0000
  H   H223      1.0  0.14874  0.47018  0.68960  1.0000
  C   C275      1.0  0.00614  0.46475  0.96091  1.0000
  H   H224      1.0  0.15634  0.39643  0.77708  1.0000
  C   C276      1.0  0.20961  0.28104  0.90173  1.0000
  H   H225      1.0  0.16642  0.31982  0.96522  1.0000
  H   H226      1.0  0.08524  0.44969  0.26570  1.0000
  H   H227      1.0  0.15731  0.27589  0.16360  1.0000
  H   H228      1.0  0.19159  0.27987  0.06403  1.0000
  H   H229      1.0  0.18938  0.30182  0.94245  1.0000
  H   H230      1.0  0.14047  0.31526  0.87892  1.0000
  C   C277      1.0  0.22000  0.26192  0.55739  1.0000
  C   C278      1.0  0.22627  0.26002  0.04989  1.0000
  H   H231      1.0  0.04080  0.46948  0.32221  1.0000
  C   C279      1.0  0.08355  0.48421  0.33055  1.0000
  H   H232      1.0  0.10620  0.47545  0.30136  1.0000
  C   C280      1.0  0.00150  0.25341  0.05422  1.0000
  H   H233      1.0  0.01787  0.44024  0.05968  1.0000
  C   C281      1.0  0.06729  0.43215  0.28440  1.0000
  H   H234      1.0  0.22839  0.30058  0.02220  1.0000
  C   C282      1.0  0.16424  0.25008  0.87939  1.0000
  H   H235      1.0  0.20430  0.25332  0.51175  1.0000
  C   C283      1.0  0.22846  0.37286  0.61635  1.0000
  H   H236      1.0  0.05543  0.27214  0.92594  1.0000
  H   H237      1.0  0.01085  0.29839  0.19872  1.0000
  C   C284      1.0  0.10028  0.47964  0.32934  1.0000
  H   H238      1.0  0.11007  0.40295  0.84085  1.0000
  H   H239      1.0  0.17544  0.26267  0.99470  1.0000
  H   H240      1.0  0.12861  0.35849  0.04492  1.0000
  C   C285      1.0  0.12404  0.47522  0.67067  1.0000
  H   H241      1.0  0.09480  0.33392  0.79039  1.0000
  C   C286      1.0  0.04816  0.45920  0.31075  1.0000
  C   C287      1.0  0.04236  0.44327  0.31605  1.0000
  C   C288      1.0  0.05188  0.42976  0.30270  1.0000
  C   C289      1.0  0.08555  0.48994  0.40282  1.0000
  C   C290      1.0  0.23026  0.34961  0.66386  1.0000
  H   H242      1.0  0.02531  0.46707  0.10144  1.0000
  C   C291      1.0  0.02162  0.45705  0.96404  1.0000
  H   H243      1.0  0.13145  0.32790  0.94039  1.0000
  C   C292      1.0  0.06952  0.47741  0.05670  1.0000
  Fe  Fe22      1.0  0.24222  0.26411  0.27916  1.0000
  H   H244      1.0  0.03022  0.45743  0.93826  1.0000
  C   C293      1.0  0.19355  0.32924  0.86385  1.0000
  H   H245      1.0  0.20397  0.40639  0.52205  1.0000
  H   H246      1.0  0.16850  0.29803  0.08595  1.0000
  H   H247      1.0  0.20023  0.48187  0.73044  1.0000
  H   H248      1.0  0.03793  0.44247  0.00193  1.0000
  C   C294      1.0  0.24185  0.29151  0.89750  1.0000
  H   H249      1.0  0.03055  0.44138  0.33093  1.0000
  H   H250      1.0  0.04742  0.41741  0.30703  1.0000
  C   C295      1.0  0.23280  0.29099  0.86191  1.0000
  H   H251      1.0  0.08987  0.46514  0.72809  1.0000
  C   C296      1.0  0.06090  0.47502  0.77812  1.0000
  C   C297      1.0  0.13475  0.37083  0.98777  1.0000
  C   C298      1.0  0.13103  0.35714  0.01244  1.0000
  C   C299      1.0  0.13017  0.34170  0.99511  1.0000
  C   C300      1.0  0.13259  0.33995  0.95296  1.0000
  C   C301      1.0  0.13610  0.35368  0.92774  1.0000
  C   C302      1.0  0.13752  0.36909  0.94572  1.0000
  P   P11       1.0  0.14084  0.35123  0.87384  1.0000
  C   C303      1.0  0.13800  0.37091  0.84750  1.0000
  C   C304      1.0  0.16176  0.34342  0.86885  1.0000
  C   C305      1.0  0.17302  0.34603  0.89958  1.0000
  C   C306      1.0  0.18883  0.33892  0.89710  1.0000
  H   H252      1.0  0.11202  0.35438  0.82001  1.0000
  C   C307      1.0  0.18252  0.32684  0.83275  1.0000
  C   C308      1.0  0.16672  0.33397  0.83508  1.0000
  C   C309      1.0  0.12374  0.38056  0.85527  1.0000
  C   C310      1.0  0.12124  0.39571  0.83495  1.0000
  C   C311      1.0  0.13301  0.40145  0.80688  1.0000
  C   C312      1.0  0.14727  0.39195  0.79895  1.0000
  C   C313      1.0  0.14977  0.37670  0.81911  1.0000
  C   C314      1.0  0.12758  0.33645  0.85226  1.0000
  C   C315      1.0  0.13053  0.31955  0.85975  1.0000
  C   C316      1.0  0.12074  0.30796  0.84230  1.0000
  C   C317      1.0  0.10785  0.31311  0.81738  1.0000
  C   C318      1.0  0.10489  0.32987  0.80941  1.0000
  C   C319      1.0  0.11475  0.34151  0.82655  1.0000
  H   H253      1.0  0.13536  0.38284  0.00118  1.0000
  H   H254      1.0  0.20986  0.28485  0.83632  1.0000
  S   S44       1.0  0.23664  0.39216  0.51751  1.0000
  H   H255      1.0  0.24021  0.25937  0.42188  1.0000
  C   C320      1.0  0.12609  0.48559  0.83708  1.0000
  H   H256      1.0  0.13661  0.47740  0.89402  1.0000
  H   H257      1.0  0.99360  0.25376  0.77711  1.0000
  C   C321      1.0  0.08617  0.48482  0.99749  1.0000
  C   C322      1.0  0.23917  0.31083  0.62132  1.0000
  C   C323      1.0  0.23477  0.28688  0.93529  1.0000
  H   H258      1.0  0.03961  0.48300  0.24579  1.0000
  H   H259      1.0  0.22340  0.49300  0.59128  1.0000
  H   H260      1.0  0.23840  0.29421  0.83251  1.0000
  H   H261      1.0  0.13488  0.47865  0.81847  1.0000
  H   H262      1.0  0.06322  0.49224  0.36974  1.0000
  C   C324      1.0  0.07387  0.49186  0.07630  1.0000
  C   C325      1.0  0.20587  0.48453  0.70082  1.0000
  C   C326      1.0  0.04417  0.49039  0.94323  1.0000
  C   C327      1.0  0.07618  0.48909  0.36776  1.0000
  H   H263      1.0  0.01959  0.48576  0.04271  1.0000
  H   H264      1.0  0.10774  0.49208  0.13720  1.0000
  C   C328      1.0  0.17816  0.24985  0.27831  1.0000
  H   H265      1.0  0.03571  0.48503  0.88330  1.0000
  C   C329      1.0  0.21808  0.47455  0.63750  1.0000
  S   S45       1.0  0.12906  0.48495  0.62219  1.0000
  Fe  Fe23      1.0  0.22600  0.24613  0.20828  1.0000
  Fe  Fe24      1.0  0.15119  0.49099  0.57909  1.0000
  H   H266      1.0  0.18766  0.25786  0.28763  1.0000
  S   S46       1.0  0.24222  0.26797  0.21033  1.0000
  C   C330      1.0  0.03389  0.48612  0.13924  1.0000
  H   H267      1.0  0.14174  0.25142  0.23008  1.0000
  H   H268      1.0  0.17739  0.25115  0.37219  1.0000
  C   C331      1.0  0.16427  0.25655  0.25926  1.0000
  C   C332      1.0  0.05055  0.24510  0.08361  1.0000
  H   H269      1.0  0.11594  0.49247  0.93668  1.0000
  H   H270      1.0  0.16501  0.24530  0.44086  1.0000
  C   C333      1.0  0.99333  0.25343  0.71162  1.0000
  C   C334      1.0  0.11523  0.49317  0.90364  1.0000
  C   C335      1.0  0.21897  0.49072  0.62236  1.0000
  C   C336      1.0  0.18451  0.24468  0.39540  1.0000
  S   S47       1.0  0.08100  0.24344  0.94440  1.0000
  S   S48       1.0  0.22411  0.24351  0.27735  1.0000
  H   H271      1.0  0.22362  0.24503  0.95558  1.0000
  H   H272      1.0  0.24227  0.28688  0.96196  1.0000
  S   S49       1.0  0.17735  0.49553  0.59543  1.0000
  H   H273      1.0  0.21344  0.51618  0.63355  1.0000
  H   H274      1.0  0.15926  0.54751  0.50270  1.0000
  H   H275      1.0  0.17736  0.51201  0.36553  1.0000
  S   S50       1.0  0.22939  0.71656  0.96158  1.0000
  H   H276      1.0  0.11850  0.52251  0.43538  1.0000
  Fe  Fe25      1.0  0.11236  0.72550  0.10293  1.0000
  S   S51       1.0  0.11204  0.70659  0.05428  1.0000
  C   C337      1.0  0.23532  0.66891  0.86683  1.0000
  Fe  Fe26      1.0  0.14007  0.70612  0.14842  1.0000
  S   S52       1.0  0.14153  0.68599  0.10199  1.0000
  S   S53       1.0  0.15472  0.70186  0.20655  1.0000
  Fe  Fe27      1.0  0.13965  0.70683  0.05534  1.0000
  S   S54       1.0  0.15279  0.70892  0.99313  1.0000
  Fe  Fe28      1.0  0.11399  0.68734  0.10509  1.0000
  S   S55       1.0  0.09600  0.66627  0.10957  1.0000
  S   S56       1.0  0.14003  0.72685  0.10154  1.0000
  S   S57       1.0  0.11254  0.70636  0.15405  1.0000
  Fe  Fe29      1.0  0.17565  0.51822  0.55428  1.0000
  S   S58       1.0  0.18382  0.54456  0.56714  1.0000
  C   C338      1.0  0.06289  0.73477  0.28390  1.0000
  S   S59       1.0  0.14886  0.51482  0.54169  1.0000
  Fe  Fe30      1.0  0.05751  0.55383  0.18189  1.0000
  S   S60       1.0  0.07369  0.55863  0.12649  1.0000
  S   S61       1.0  0.03082  0.56347  0.17638  1.0000
  Fe  Fe31      1.0  0.08712  0.54097  0.23327  1.0000
  S   S62       1.0  0.10457  0.54441  0.17968  1.0000
  S   S63       1.0  0.09422  0.53582  0.30100  1.0000
  Fe  Fe32      1.0  0.09169  0.56898  0.16862  1.0000
  S   S64       1.0  0.10917  0.59006  0.15539  1.0000
  Fe  Fe33      1.0  0.08522  0.53375  0.14065  1.0000
  S   S65       1.0  0.09264  0.51970  0.08257  1.0000
  S   S66       1.0  0.07487  0.56606  0.22355  1.0000
  S   S67       1.0  0.06833  0.52838  0.19506  1.0000
  C   C339      1.0  0.06933  0.50150  0.80155  1.0000
  C   C340      1.0  0.01141  0.55419  0.17266  1.0000
  C   C341      1.0  0.03278  0.55329  0.04531  1.0000
  C   C342      1.0  0.00939  0.53731  0.17914  1.0000
  H   H277      1.0  0.05923  0.52328  0.01011  1.0000
  H   H278      1.0  0.01994  0.52944  0.18540  1.0000
  C   C343      1.0  0.13409  0.51297  0.38704  1.0000
  C   C344      1.0  0.12021  0.52151  0.40264  1.0000
  C   C345      1.0  0.10831  0.52843  0.37589  1.0000
  C   C346      1.0  0.11004  0.52712  0.33304  1.0000
  C   C347      1.0  0.12407  0.51887  0.31740  1.0000
  C   C348      1.0  0.13591  0.51184  0.34416  1.0000
  H   H279      1.0  0.22606  0.62727  0.56059  1.0000
  H   H280      1.0  0.12573  0.51773  0.28469  1.0000
  H   H281      1.0  0.01821  0.50496  0.23712  1.0000
  H   H282      1.0  0.15306  0.53457  0.62598  1.0000
  H   H283      1.0  0.21924  0.67375  0.37070  1.0000
  C   C349      1.0  0.20496  0.56946  0.58308  1.0000
  C   C350      1.0  0.20359  0.55260  0.57513  1.0000
  C   C351      1.0  0.21789  0.54271  0.57366  1.0000
  H   H284      1.0  0.17127  0.72162  0.92428  1.0000
  C   C352      1.0  0.20253  0.70503  0.12966  1.0000
  H   H285      1.0  0.19400  0.57725  0.58480  1.0000
  H   H286      1.0  0.21707  0.52975  0.56776  1.0000
  H   H287      1.0  0.00529  0.51870  0.95211  1.0000
  H   H288      1.0  0.20256  0.59685  0.35540  1.0000
  H   H289      1.0  0.99884  0.57734  0.15925  1.0000
  H   H290      1.0  0.04436  0.73697  0.17211  1.0000
  C   C353      1.0  0.04373  0.56613  0.04622  1.0000
  C   C354      1.0  0.10007  0.64507  0.12155  1.0000
  C   C355      1.0  0.11588  0.63869  0.12846  1.0000
  C   C356      1.0  0.11840  0.62184  0.13870  1.0000
  C   C357      1.0  0.10519  0.61116  0.14217  1.0000
  C   C358      1.0  0.08940  0.61752  0.13493  1.0000
  C   C359      1.0  0.08691  0.63434  0.12433  1.0000
  H   H291      1.0  0.12615  0.64674  0.12600  1.0000
  H   H292      1.0  0.13069  0.61705  0.14400  1.0000
  H   H293      1.0  0.07913  0.60946  0.13718  1.0000
  H   H294      1.0  0.07471  0.63909  0.11812  1.0000
  C   C360      1.0  0.20804  0.71443  0.96930  1.0000
  C   C361      1.0  0.19681  0.71948  0.93962  1.0000
  C   C362      1.0  0.17990  0.71788  0.94753  1.0000
  C   C363      1.0  0.17407  0.71156  0.98537  1.0000
  C   C364      1.0  0.18530  0.70653  0.01500  1.0000
  C   C365      1.0  0.20222  0.70773  0.00671  1.0000
  C   C366      1.0  0.16123  0.54719  0.46986  1.0000
  H   H295      1.0  0.18091  0.70136  0.04384  1.0000
  H   H296      1.0  0.21083  0.70368  0.02960  1.0000
  H   H297      1.0  0.02682  0.72972  0.33683  1.0000
  S   S68       1.0  0.14926  0.50310  0.41913  1.0000
  C   C367      1.0  0.23309  0.72849  0.51164  1.0000
  H   H298      1.0  0.03975  0.57788  0.05859  1.0000
  C   C368      1.0  0.06543  0.54809  0.02011  1.0000
  C   C369      1.0  0.17366  0.72965  0.20484  1.0000
  C   C370      1.0  0.17005  0.71468  0.22437  1.0000
  C   C371      1.0  0.17875  0.70970  0.25937  1.0000
  C   C372      1.0  0.19115  0.71943  0.27429  1.0000
  C   C373      1.0  0.19443  0.68415  0.74962  1.0000
  C   C374      1.0  0.21097  0.52397  0.42471  1.0000
  H   H299      1.0  0.17598  0.69817  0.27481  1.0000
  H   H300      1.0  0.18494  0.68605  0.13916  1.0000
  H   H301      1.0  0.18138  0.53510  0.64965  1.0000
  H   H302      1.0  0.18996  0.74030  0.13191  1.0000
  H   H303      1.0  0.13271  0.51728  0.66306  1.0000
  C   C375      1.0  0.02763  0.50751  0.07241  1.0000
  C   C376      1.0  0.03385  0.51355  0.10852  1.0000
  C   C377      1.0  0.99796  0.54217  0.00464  1.0000
  C   C378      1.0  0.19991  0.67266  0.77919  1.0000
  C   C379      1.0  0.20086  0.51386  0.76969  1.0000
  H   H304      1.0  0.23516  0.67353  0.74594  1.0000
  H   H305      1.0  0.21862  0.59420  0.45090  1.0000
  H   H306      1.0  0.00643  0.54689  0.98156  1.0000
  C   C380      1.0  0.24244  0.60802  0.50171  1.0000
  C   C381      1.0  0.22589  0.53600  0.69563  1.0000
  H   H307      1.0  0.08531  0.74210  0.31152  1.0000
  C   C382      1.0  0.04107  0.49910  0.97900  1.0000
  H   H308      1.0  0.22276  0.64673  0.61693  1.0000
  C   C383      1.0  0.23329  0.54956  0.58001  1.0000
  C   C384      1.0  0.08498  0.50250  0.05735  1.0000
  P   P12       1.0  0.21490  0.66344  0.85294  1.0000
  C   C385      1.0  0.05999  0.56360  0.03304  1.0000
  H   H309      1.0  0.09733  0.71542  0.26907  1.0000
  S   S69       1.0  0.23746  0.72678  0.84009  1.0000
  C   C386      1.0  0.19140  0.51782  0.83989  1.0000
  C   C387      1.0  0.20740  0.53042  0.30820  1.0000
  C   C388      1.0  0.22839  0.52028  0.48372  1.0000
  H   H310      1.0  0.17885  0.52772  0.78746  1.0000
  H   H311      1.0  0.19819  0.70823  0.09948  1.0000
  H   H312      1.0  0.20113  0.72457  0.91061  1.0000
  C   C389      1.0  0.04082  0.49728  0.78597  1.0000
  C   C390      1.0  0.21337  0.50381  0.64645  1.0000
  H   H313      1.0  0.21596  0.69907  0.84547  1.0000
  C   C391      1.0  0.19687  0.70091  0.75443  1.0000
  C   C392      1.0  0.20468  0.70621  0.78899  1.0000
  C   C393      1.0  0.18936  0.52046  0.79788  1.0000
  H   H314      1.0  0.22632  0.73234  0.73917  1.0000
  C   C394      1.0  0.03699  0.50285  0.14172  1.0000
  H   H315      1.0  0.20666  0.50680  0.88656  1.0000
  H   H316      1.0  0.02045  0.55541  0.05736  1.0000
  H   H317      1.0  0.13594  0.55271  0.45659  1.0000
  H   H318      1.0  0.07482  0.51931  0.73199  1.0000
  C   C395      1.0  0.21307  0.69640  0.20808  1.0000
  C   C396      1.0  0.22240  0.63870  0.79684  1.0000
  C   C397      1.0  0.00304  0.52963  0.03230  1.0000
  C   C398      1.0  0.04496  0.52569  0.29294  1.0000
  H   H319      1.0  0.18242  0.52283  0.86154  1.0000
  C   C399      1.0  0.23408  0.55059  0.68735  1.0000
  H   H320      1.0  0.11562  0.53231  0.80477  1.0000
  H   H321      1.0  0.21686  0.69337  0.23893  1.0000
  C   C400      1.0  0.21775  0.64993  0.58726  1.0000
  C   C401      1.0  0.14951  0.50900  0.70942  1.0000
  H   H322      1.0  0.99568  0.51509  0.08573  1.0000
  C   C402      1.0  0.06601  0.73934  0.35640  1.0000
  C   C403      1.0  0.17248  0.52814  0.66721  1.0000
  C   C404      1.0  0.09284  0.73700  0.23037  1.0000
  C   C405      1.0  0.19576  0.66250  0.96998  1.0000
  C   C406      1.0  0.18525  0.51504  0.33942  1.0000
  C   C407      1.0  0.15641  0.52783  0.65370  1.0000
  C   C408      1.0  0.20606  0.66009  0.93568  1.0000
  H   H323      1.0  0.04985  0.52021  0.80537  1.0000
  H   H324      1.0  0.03842  0.72903  0.26635  1.0000
  C   C409      1.0  0.20945  0.58564  0.36304  1.0000
  S   S70       1.0  0.18378  0.50475  0.49809  1.0000
  C   C410      1.0  0.21686  0.60988  0.80821  1.0000
  C   C411      1.0  0.20832  0.67785  0.81327  1.0000
  C   C412      1.0  0.20126  0.57101  0.37083  1.0000
  P   P13       1.0  0.19845  0.51759  0.71560  1.0000
  C   C413      1.0  0.10409  0.59054  0.34502  1.0000
  C   C414      1.0  0.10919  0.57927  0.31533  1.0000
  C   C415      1.0  0.10728  0.58328  0.27396  1.0000
  C   C416      1.0  0.09993  0.59837  0.26228  1.0000
  C   C417      1.0  0.09459  0.60969  0.29174  1.0000
  C   C418      1.0  0.09687  0.60575  0.33333  1.0000
  P   P14       1.0  0.08406  0.62855  0.27550  1.0000
  C   C419      1.0  0.07447  0.63833  0.31932  1.0000
  C   C420      1.0  0.09805  0.64289  0.25147  1.0000
  C   C421      1.0  0.09326  0.65958  0.24689  1.0000
  C   C422      1.0  0.10396  0.67086  0.22877  1.0000
  C   C423      1.0  0.11963  0.66564  0.21572  1.0000
  C   C424      1.0  0.12457  0.64911  0.22054  1.0000
  C   C425      1.0  0.11380  0.63773  0.23802  1.0000
  C   C426      1.0  0.08360  0.64853  0.34348  1.0000
  C   C427      1.0  0.07631  0.65611  0.37759  1.0000
  C   C428      1.0  0.05990  0.65346  0.38798  1.0000
  C   C429      1.0  0.05077  0.64321  0.36430  1.0000
  C   C430      1.0  0.05801  0.63563  0.33012  1.0000
  C   C431      1.0  0.06830  0.62322  0.24074  1.0000
  C   C432      1.0  0.06336  0.63414  0.20914  1.0000
  C   C433      1.0  0.05106  0.62987  0.18273  1.0000
  C   C434      1.0  0.04371  0.61463  0.18741  1.0000
  C   C435      1.0  0.04846  0.60376  0.21891  1.0000
  C   C436      1.0  0.06062  0.60804  0.24562  1.0000
  H   H325      1.0  0.10551  0.58734  0.37709  1.0000
  H   H326      1.0  0.11439  0.56731  0.32425  1.0000
  H   H327      1.0  0.11112  0.57455  0.25079  1.0000
  H   H328      1.0  0.09806  0.60114  0.23021  1.0000
  H   H329      1.0  0.09281  0.61416  0.35683  1.0000
  H   H330      1.0  0.08120  0.66386  0.25699  1.0000
  H   H331      1.0  0.10006  0.68362  0.22421  1.0000
  H   H332      1.0  0.12789  0.67436  0.20129  1.0000
  H   H333      1.0  0.13660  0.64504  0.20951  1.0000
  H   H334      1.0  0.11783  0.62496  0.24035  1.0000
  H   H335      1.0  0.09638  0.65059  0.33600  1.0000
  H   H336      1.0  0.08342  0.66399  0.39603  1.0000
  H   H337      1.0  0.05427  0.65930  0.41448  1.0000
  H   H338      1.0  0.03807  0.64107  0.37247  1.0000
  H   H339      1.0  0.05074  0.62767  0.31239  1.0000
  H   H340      1.0  0.06925  0.64574  0.20394  1.0000
  H   H341      1.0  0.04755  0.63818  0.15786  1.0000
  H   H342      1.0  0.03449  0.61109  0.16636  1.0000
  H   H343      1.0  0.04286  0.59186  0.22220  1.0000
  H   H344      1.0  0.06411  0.59938  0.26977  1.0000
  H   H345      1.0  0.03637  0.52649  0.11113  1.0000
  H   H346      1.0  0.12753  0.71691  0.26390  1.0000
  H   H347      1.0  0.18155  0.67822  0.86335  1.0000
  H   H348      1.0  0.12854  0.54534  0.74356  1.0000
  P   P15       1.0  0.08514  0.51480  0.81755  1.0000
  C   C437      1.0  0.09410  0.52510  0.77321  1.0000
  C   C438      1.0  0.03097  0.52267  0.27099  1.0000
  H   H349      1.0  0.02185  0.53247  0.26592  1.0000
  C   C439      1.0  0.22728  0.55657  0.38127  1.0000
  H   H350      1.0  0.21797  0.65410  0.93956  1.0000
  C   C440      1.0  0.17939  0.54225  0.41122  1.0000
  C   C441      1.0  0.17544  0.67600  0.92715  1.0000
  C   C442      1.0  0.08640  0.52516  0.73530  1.0000
  C   C443      1.0  0.09382  0.53252  0.70078  1.0000
  C   C444      1.0  0.10892  0.53991  0.70385  1.0000
  C   C445      1.0  0.11670  0.53985  0.74141  1.0000
  C   C446      1.0  0.10935  0.53245  0.77597  1.0000
  C   C447      1.0  0.07622  0.52950  0.85295  1.0000
  C   C448      1.0  0.08061  0.54606  0.85146  1.0000
  C   C449      1.0  0.07368  0.55713  0.87960  1.0000
  C   C450      1.0  0.06227  0.55178  0.90919  1.0000
  C   C451      1.0  0.05779  0.53534  0.91068  1.0000
  C   C452      1.0  0.06481  0.52423  0.88293  1.0000
  H   H351      1.0  0.23122  0.67851  0.65776  1.0000
  C   C453      1.0  0.14496  0.51817  0.67463  1.0000
  C   C454      1.0  0.02897  0.50717  0.25467  1.0000
  H   H352      1.0  0.23538  0.67509  0.49943  1.0000
  H   H353      1.0  0.23515  0.49516  0.50044  1.0000
  H   H354      1.0  0.21888  0.54370  0.46226  1.0000
  C   C455      1.0  0.20547  0.52225  0.27157  1.0000
  H   H355      1.0  0.20321  0.63217  0.88932  1.0000
  C   C456      1.0  0.18340  0.50687  0.30283  1.0000
  H   H356      1.0  0.23201  0.69835  0.08184  1.0000
  H   H357      1.0  0.11471  0.54546  0.67695  1.0000
  C   C457      1.0  0.23359  0.73452  0.58370  1.0000
  C   C458      1.0  0.20873  0.56629  0.69774  1.0000
  H   H358      1.0  0.08937  0.55050  0.82884  1.0000
  H   H359      1.0  0.07718  0.56988  0.87857  1.0000
  H   H360      1.0  0.05696  0.56034  0.93109  1.0000
  H   H361      1.0  0.04895  0.53118  0.93349  1.0000
  H   H362      1.0  0.06145  0.51145  0.88496  1.0000
  H   H363      1.0  0.20209  0.57803  0.69800  1.0000
  H   H364      1.0  0.21330  0.52501  0.24524  1.0000
  H   H365      1.0  0.07360  0.74261  0.38147  1.0000
  C   C459      1.0  0.21033  0.69474  0.81834  1.0000
  C   C460      1.0  0.05308  0.50756  0.79831  1.0000
  Fe  Fe34      1.0  0.22985  0.73956  0.31725  1.0000
  H   H366      1.0  0.09340  0.50835  0.90459  1.0000
  P   P16       1.0  0.07090  0.73504  0.23201  1.0000
  H   H367      1.0  0.23188  0.57695  0.68092  1.0000
  C   C461      1.0  0.22551  0.56572  0.68833  1.0000
  C   C462      1.0  0.06993  0.70007  0.14497  1.0000
  C   C463      1.0  0.06423  0.68627  0.16650  1.0000
  C   C464      1.0  0.06010  0.68730  0.20810  1.0000
  C   C465      1.0  0.06189  0.70208  0.22835  1.0000
  C   C466      1.0  0.06741  0.71606  0.20667  1.0000
  C   C467      1.0  0.07152  0.71490  0.16495  1.0000
  P   P17       1.0  0.02381  0.52121  0.02919  1.0000
  H   H368      1.0  0.22113  0.58931  0.59534  1.0000
  C   C468      1.0  0.21432  0.66179  0.37839  1.0000
  H   H369      1.0  0.07829  0.54580  0.01248  1.0000
  H   H370      1.0  0.22750  0.49576  0.83708  1.0000
  H   H371      1.0  0.23145  0.71016  0.55996  1.0000
  H   H372      1.0  0.18678  0.54095  0.47444  1.0000
  H   H373      1.0  0.17260  0.67272  0.99232  1.0000
  H   H374      1.0  0.04437  0.73643  0.39455  1.0000
  H   H375      1.0  0.19780  0.71544  0.30113  1.0000
  H   H376      1.0  0.09755  0.53472  0.38859  1.0000
  S   S71       1.0  0.22865  0.73882  0.38616  1.0000
  C   C469      1.0  0.20895  0.53644  0.70427  1.0000
  C   C470      1.0  0.99360  0.53071  0.17874  1.0000
  C   C471      1.0  0.16622  0.54582  0.38526  1.0000
  C   C472      1.0  0.99747  0.56426  0.16436  1.0000
  H   H377      1.0  0.07361  0.69912  0.11298  1.0000
  H   H378      1.0  0.06342  0.67471  0.15094  1.0000
  H   H379      1.0  0.05580  0.67654  0.22470  1.0000
  H   H380      1.0  0.05921  0.70243  0.26083  1.0000
  H   H381      1.0  0.07641  0.72537  0.14810  1.0000
  C   C473      1.0  0.14811  0.55023  0.44391  1.0000
  H   H382      1.0  0.22745  0.64824  0.77717  1.0000
  C   C474      1.0  0.15065  0.54972  0.40159  1.0000
  H   H383      1.0  0.23223  0.71972  0.48744  1.0000
  C   C475      1.0  0.10145  0.50307  0.84230  1.0000
  H   H384      1.0  0.06779  0.51590  0.31510  1.0000
  H   H385      1.0  0.19739  0.65982  0.77548  1.0000
  C   C476      1.0  0.20959  0.61350  0.84622  1.0000
  C   C477      1.0  0.16564  0.50913  0.72270  1.0000
  C   C478      1.0  0.17721  0.51887  0.70189  1.0000
  C   C479      1.0  0.04628  0.73164  0.29143  1.0000
  H   H386      1.0  0.01093  0.50327  0.88950  1.0000
  P   P18       1.0  0.19955  0.53740  0.38987  1.0000
  C   C480      1.0  0.19757  0.58272  0.47785  1.0000
  C   C481      1.0  0.18328  0.58482  0.50173  1.0000
  C   C482      1.0  0.17889  0.60031  0.51682  1.0000
  C   C483      1.0  0.18889  0.61368  0.50855  1.0000
  C   C484      1.0  0.20348  0.61158  0.48538  1.0000
  C   C485      1.0  0.20755  0.59607  0.46929  1.0000
  P   P19       1.0  0.21660  0.62875  0.47516  1.0000
  C   C486      1.0  0.21361  0.64305  0.51640  1.0000
  C   C487      1.0  0.03966  0.73209  0.33126  1.0000
  H   H387      1.0  0.18751  0.55241  0.71354  1.0000
  C   C488      1.0  0.21011  0.55637  0.38034  1.0000
  H   H388      1.0  0.16784  0.54533  0.35237  1.0000
  C   C489      1.0  0.21976  0.63897  0.55512  1.0000
  C   C490      1.0  0.23468  0.56642  0.58784  1.0000
  C   C491      1.0  0.20940  0.66501  0.58108  1.0000
  C   C492      1.0  0.20277  0.66899  0.54300  1.0000
  C   C493      1.0  0.20469  0.65799  0.51088  1.0000
  C   C494      1.0  0.21185  0.63859  0.42639  1.0000
  C   C495      1.0  0.20154  0.63110  0.39911  1.0000
  C   C496      1.0  0.19771  0.63891  0.36177  1.0000
  C   C497      1.0  0.20410  0.65425  0.35142  1.0000
  H   H389      1.0  0.16373  0.68256  0.92429  1.0000
  C   C498      1.0  0.21815  0.65402  0.41566  1.0000
  H   H390      1.0  0.20103  0.57065  0.46668  1.0000
  H   H391      1.0  0.17580  0.57436  0.50928  1.0000
  H   H392      1.0  0.16783  0.60186  0.53549  1.0000
  H   H393      1.0  0.18532  0.62557  0.52069  1.0000
  H   H394      1.0  0.22691  0.68617  0.91305  1.0000
  C   C499      1.0  0.20507  0.50881  0.85400  1.0000
  C   C500      1.0  0.17685  0.54335  0.45364  1.0000
  H   H395      1.0  0.22970  0.71603  0.20080  1.0000
  H   H396      1.0  0.20796  0.67357  0.60586  1.0000
  H   H397      1.0  0.09773  0.50411  0.26248  1.0000
  H   H398      1.0  0.19621  0.68065  0.53821  1.0000
  H   H399      1.0  0.19924  0.66129  0.48192  1.0000
  H   H400      1.0  0.19630  0.61935  0.40668  1.0000
  H   H401      1.0  0.18967  0.63316  0.34092  1.0000
  H   H402      1.0  0.20106  0.66037  0.32265  1.0000
  H   H403      1.0  0.06893  0.73257  0.07586  1.0000
  C   C501      1.0  0.03796  0.53785  0.03044  1.0000
  C   C502      1.0  0.20717  0.50084  0.68625  1.0000
  H   H404      1.0  0.14042  0.55181  0.38143  1.0000
  C   C503      1.0  0.23259  0.72314  0.55253  1.0000
  H   H405      1.0  0.14649  0.50528  0.33150  1.0000
  H   H406      1.0  0.20616  0.71925  0.79346  1.0000
  H   H407      1.0  0.18805  0.57117  0.36919  1.0000
  C   C504      1.0  0.22036  0.57637  0.58911  1.0000
  C   C505      1.0  0.02723  0.50970  0.98275  1.0000
  C   C506      1.0  0.07266  0.73889  0.31660  1.0000
  C   C507      1.0  0.21534  0.64247  0.83523  1.0000
  H   H408      1.0  0.06859  0.57341  0.03501  1.0000
  C   C508      1.0  0.19725  0.52692  0.34237  1.0000
  C   C509      1.0  0.22031  0.49653  0.44709  1.0000
  C   C510      1.0  0.19512  0.69226  0.15185  1.0000
  P   P20       1.0  0.22429  0.73056  0.11802  1.0000
  C   C511      1.0  0.05451  0.53525  0.01896  1.0000
  C   C512      1.0  0.20900  0.73992  0.08492  1.0000
  H   H409      1.0  0.23355  0.60189  0.52135  1.0000
  C   C513      1.0  0.22325  0.62250  0.78353  1.0000
  H   H410      1.0  0.11349  0.50837  0.19798  1.0000
  C   C514      1.0  0.21937  0.53059  0.45717  1.0000
  H   H411      1.0  0.22592  0.66022  0.43626  1.0000
  H   H412      1.0  0.16916  0.50121  0.74829  1.0000
  C   C515      1.0  0.10243  0.50219  0.88516  1.0000
  H   H413      1.0  0.23296  0.73010  0.61503  1.0000
  H   H414      1.0  0.22905  0.61979  0.75413  1.0000
  C   C516      1.0  0.20042  0.68792  0.19100  1.0000
  C   C517      1.0  0.20884  0.62971  0.85974  1.0000
  H   H415      1.0  0.14030  0.73874  0.22144  1.0000
  H   H416      1.0  0.21682  0.53941  0.30968  1.0000
  H   H417      1.0  0.19971  0.65847  0.00005  1.0000
  C   C518      1.0  0.23738  0.68054  0.89720  1.0000
  C   C519      1.0  0.18568  0.67362  0.89276  1.0000
  H   H418      1.0  0.18806  0.68006  0.72327  1.0000
  C   C520      1.0  0.22032  0.70936  0.18623  1.0000
  C   C521      1.0  0.01634  0.51112  0.95011  1.0000
  H   H419      1.0  0.19430  0.67837  0.20861  1.0000
  C   C522      1.0  0.18584  0.73954  0.22022  1.0000
  C   C523      1.0  0.21511  0.71379  0.14676  1.0000
  C   C524      1.0  0.04954  0.73590  0.36375  1.0000
  C   C525      1.0  0.20114  0.66573  0.89680  1.0000
  Fe  Fe35      1.0  0.15718  0.50019  0.48697  1.0000
  C   C526      1.0  0.12709  0.73840  0.22434  1.0000
  H   H420      1.0  0.20463  0.60372  0.86539  1.0000
  C   C527      1.0  0.18047  0.67047  0.96570  1.0000
  C   C528      1.0  0.20049  0.55172  0.70606  1.0000
  S   S72       1.0  0.23935  0.69538  0.42706  1.0000
  C   C529      1.0  0.10277  0.72532  0.25128  1.0000
  H   H421      1.0  0.16694  0.73366  0.17814  1.0000
  H   H422      1.0  0.02825  0.50184  0.78431  1.0000
  H   H423      1.0  0.08796  0.53227  0.67146  1.0000
  H   H424      1.0  0.04678  0.53784  0.30463  1.0000
  H   H425      1.0  0.19243  0.70984  0.73186  1.0000
  C   C530      1.0  0.23779  0.62141  0.47598  1.0000
  H   H426      1.0  0.04202  0.50756  0.16921  1.0000
  H   H427      1.0  0.11268  0.49472  0.78539  1.0000
  H   H428      1.0  0.21762  0.59731  0.79792  1.0000
  C   C531      1.0  0.19474  0.73442  0.25476  1.0000
  H   H429      1.0  0.23802  0.70735  0.67150  1.0000
  C   C532      1.0  0.21679  0.50256  0.82612  1.0000
  Fe  Fe36      1.0  0.24150  0.72972  0.90723  1.0000
  C   C533      1.0  0.11983  0.72611  0.24850  1.0000
  C   C534      1.0  0.05689  0.51321  0.29880  1.0000
  C   C535      1.0  0.21477  0.50517  0.78410  1.0000
  H   H430      1.0  0.09942  0.50722  0.00252  1.0000
  H   H431      1.0  0.23277  0.52441  0.69487  1.0000
  H   H432      1.0  0.23496  0.52546  0.50840  1.0000
  C   C536      1.0  0.05495  0.49757  0.28281  1.0000
  H   H433      1.0  0.14065  0.50127  0.72500  1.0000
  C   C537      1.0  0.11338  0.49465  0.81844  1.0000
  C   C538      1.0  0.01947  0.50236  0.91431  1.0000
  H   H434      1.0  0.22410  0.50049  0.76292  1.0000
  C   C539      1.0  0.24254  0.68349  0.64574  1.0000
  C   C540      1.0  0.24126  0.72285  0.08680  1.0000
  C   C541      1.0  0.24162  0.70665  0.07295  1.0000
  C   C542      1.0  0.09089  0.49902  0.01757  1.0000
  C   C543      1.0  0.21157  0.50682  0.41988  1.0000
  C   C544      1.0  0.19347  0.51049  0.26888  1.0000
  C   C545      1.0  0.22651  0.58581  0.36491  1.0000
  H   H435      1.0  0.04939  0.49732  0.00403  1.0000
  C   C546      1.0  0.23545  0.73831  0.71996  1.0000
  C   C547      1.0  0.09537  0.49658  0.23657  1.0000
  C   C548      1.0  0.10428  0.49907  0.20003  1.0000
  H   H436      1.0  0.23442  0.54537  0.38749  1.0000
  H   H437      1.0  0.22455  0.74042  0.03017  1.0000
  H   H438      1.0  0.17414  0.49768  0.30094  1.0000
  H   H439      1.0  0.06907  0.49450  0.10658  1.0000
  C   C549      1.0  0.22870  0.50325  0.47898  1.0000
  H   H440      1.0  0.23284  0.59719  0.35912  1.0000
  H   H441      1.0  0.19198  0.50416  0.24052  1.0000
  H   H442      1.0  0.20497  0.50118  0.39603  1.0000
  C   C550      1.0  0.23542  0.57128  0.37401  1.0000
  C   C551      1.0  0.19302  0.74304  0.10021  1.0000
  H   H443      1.0  0.04087  0.74254  0.05848  1.0000
  C   C552      1.0  0.21255  0.74324  0.04338  1.0000
  C   C553      1.0  0.04103  0.49473  0.25995  1.0000
  H   H444      1.0  0.02316  0.73610  0.94420  1.0000
  H   H445      1.0  0.00290  0.74121  0.89037  1.0000
  C   C554      1.0  0.01115  0.74134  0.95194  1.0000
  H   H446      1.0  0.07992  0.49401  0.43129  1.0000
  H   H447      1.0  0.99652  0.92254  0.57948  1.0000
  H   H448      1.0  0.08236  0.78240  0.09371  1.0000
  C   C555      1.0  0.99957  0.74418  0.92157  1.0000
  C   C556      1.0  0.22257  0.75997  0.16098  1.0000
  S   S73       1.0  0.22301  0.77042  0.79749  1.0000
  H   H449      1.0  0.22063  0.95093  0.72297  1.0000
  Fe  Fe37      1.0  0.21230  0.84065  0.56148  1.0000
  H   H450      1.0  0.99765  0.88099  0.62513  1.0000
  S   S74       1.0  0.20662  0.82153  0.51455  1.0000
  Fe  Fe38      1.0  0.19630  0.86547  0.62133  1.0000
  S   S75       1.0  0.22121  0.87295  0.64225  1.0000
  S   S76       1.0  0.17436  0.87926  0.65242  1.0000
  Fe  Fe39      1.0  0.22911  0.87332  0.57583  1.0000
  C   C557      1.0  0.07338  0.77366  0.08550  1.0000
  Fe  Fe40      1.0  0.22797  0.84581  0.64252  1.0000
  C   C558      1.0  0.99541  0.88713  0.65389  1.0000
  S   S77       1.0  0.20391  0.86729  0.55471  1.0000
  S   S78       1.0  0.20277  0.83825  0.62666  1.0000
  Fe  Fe41      1.0  0.01010  0.79837  0.03820  1.0000
  S   S79       1.0  0.23781  0.84675  0.57752  1.0000
  S   S80       1.0  0.02482  0.77453  0.05531  1.0000
  H   H451      1.0  0.20298  0.75136  0.98527  1.0000
  H   H452      1.0  0.17474  0.75644  0.01267  1.0000
  S   S81       1.0  0.01660  0.82506  0.02697  1.0000
  Fe  Fe42      1.0  0.07328  0.89846  0.65166  1.0000
  S   S82       1.0  0.06863  0.91217  0.70974  1.0000
  S   S83       1.0  0.09637  0.88392  0.62857  1.0000
  Fe  Fe43      1.0  0.03715  0.90441  0.62607  1.0000
  S   S84       1.0  0.03021  0.91827  0.68363  1.0000
  S   S85       1.0  0.02228  0.89643  0.57131  1.0000
  Fe  Fe44      1.0  0.05415  0.93100  0.67223  1.0000
  S   S86       1.0  0.06037  0.95797  0.68293  1.0000
  Fe  Fe45      1.0  0.04509  0.89846  0.71792  1.0000
  S   S87       1.0  0.04025  0.88870  0.78452  1.0000
  S   S88       1.0  0.06037  0.91812  0.61325  1.0000
  S   S89       1.0  0.05036  0.88389  0.66124  1.0000
  H   H453      1.0  0.05490  0.97983  0.34786  1.0000
  H   H454      1.0  0.22501  0.78046  0.07495  1.0000
  C   C559      1.0  0.23653  0.93274  0.66237  1.0000
  H   H455      1.0  0.07287  0.90768  0.80544  1.0000
  C   C560      1.0  0.05113  0.97796  0.67509  1.0000
  C   C561      1.0  0.03572  0.98054  0.65785  1.0000
  C   C562      1.0  0.24280  0.76772  0.20917  1.0000
  H   H456      1.0  0.02886  0.97008  0.64921  1.0000
  C   C563      1.0  0.06320  0.76827  0.21775  1.0000
  C   C564      1.0  0.01757  0.84839  0.87053  1.0000
  C   C565      1.0  0.01645  0.84747  0.82766  1.0000
  C   C566      1.0  0.02334  0.85952  0.80094  1.0000
  C   C567      1.0  0.03156  0.87275  0.81657  1.0000
  C   C568      1.0  0.03286  0.87356  0.85940  1.0000
  C   C569      1.0  0.02598  0.86151  0.88614  1.0000
  C   C570      1.0  0.23238  0.99091  0.58731  1.0000
  H   H457      1.0  0.02213  0.85863  0.76827  1.0000
  H   H458      1.0  0.03916  0.88367  0.87210  1.0000
  H   H459      1.0  0.07264  0.77068  0.23927  1.0000
  H   H460      1.0  0.22693  0.88281  0.39680  1.0000
  C   C571      1.0  0.15276  0.88081  0.64418  1.0000
  C   C572      1.0  0.14509  0.87114  0.61598  1.0000
  C   C573      1.0  0.12791  0.87235  0.61175  1.0000
  C   C574      1.0  0.11807  0.88331  0.63525  1.0000
  C   C575      1.0  0.12572  0.89300  0.66346  1.0000
  C   C576      1.0  0.14291  0.89169  0.66796  1.0000
  H   H461      1.0  0.15238  0.86263  0.59763  1.0000
  H   H462      1.0  0.12217  0.86474  0.58992  1.0000
  H   H463      1.0  0.11838  0.90141  0.68199  1.0000
  H   H464      1.0  0.14862  0.89916  0.69010  1.0000
  C   C577      1.0  0.05755  0.77943  0.07439  1.0000
  C   C578      1.0  0.04562  0.76828  0.06472  1.0000
  C   C579      1.0  0.00169  0.89378  0.50640  1.0000
  H   H465      1.0  0.05445  0.79246  0.07443  1.0000
  C   C580      1.0  0.23951  0.83722  0.42013  1.0000
  C   C581      1.0  0.22931  0.78753  0.76713  1.0000
  C   C582      1.0  0.00203  0.94349  0.74650  1.0000
  H   H466      1.0  0.12437  0.86376  0.71337  1.0000
  C   C583      1.0  0.01480  0.95450  0.74206  1.0000
  C   C584      1.0  0.22189  0.81289  0.72913  1.0000
  C   C585      1.0  0.21747  0.79933  0.75422  1.0000
  H   H467      1.0  0.07353  0.87805  0.79313  1.0000
  H   H468      1.0  0.21266  0.82193  0.71958  1.0000
  H   H469      1.0  0.20480  0.79796  0.76368  1.0000
  H   H470      1.0  0.12619  0.87852  0.77919  1.0000
  C   C586      1.0  0.22818  0.77109  0.18897  1.0000
  C   C587      1.0  0.22706  0.78546  0.44419  1.0000
  C   C588      1.0  0.21583  0.79610  0.46465  1.0000
  C   C589      1.0  0.22116  0.80747  0.49266  1.0000
  H   H471      1.0  0.24150  0.88206  0.79698  1.0000
  H   H472      1.0  0.22278  0.77689  0.42239  1.0000
  H   H473      1.0  0.20292  0.79567  0.45840  1.0000
  C   C590      1.0  0.00371  0.92942  0.77204  1.0000
  S   S90       1.0  0.99651  0.79710  0.97905  1.0000
  H   H474      1.0  0.07170  0.98995  0.69981  1.0000
  C   C591      1.0  0.23475  0.91571  0.66791  1.0000
  C   C592      1.0  0.20574  0.95282  0.66906  1.0000
  C   C593      1.0  0.20877  0.95435  0.71083  1.0000
  C   C594      1.0  0.99989  0.96121  0.49999  1.0000
  C   C595      1.0  0.20386  0.78907  0.32994  1.0000
  Fe  Fe46      1.0  0.00182  0.82413  0.96945  1.0000
  C   C596      1.0  0.19024  0.95751  0.65428  1.0000
  C   C597      1.0  0.19926  0.92238  0.60887  1.0000
  C   C598      1.0  0.19229  0.91232  0.58046  1.0000
  C   C599      1.0  0.19842  0.91205  0.54025  1.0000
  C   C600      1.0  0.23826  0.81493  0.71729  1.0000
  H   H475      1.0  0.06625  0.96500  0.56074  1.0000
  H   H476      1.0  0.22462  0.90962  0.65487  1.0000
  C   C601      1.0  0.07768  0.75672  0.08630  1.0000
  C   C602      1.0  0.18097  0.96480  0.72256  1.0000
  H   H477      1.0  0.12523  0.90831  0.78946  1.0000
  C   C603      1.0  0.03129  0.93728  0.78737  1.0000
  H   H478      1.0  0.18766  0.95655  0.62211  1.0000
  H   H479      1.0  0.19454  0.92210  0.64011  1.0000
  H   H480      1.0  0.18230  0.90450  0.58983  1.0000
  H   H481      1.0  0.19322  0.90397  0.51854  1.0000
  C   C604      1.0  0.06020  0.98825  0.53046  1.0000
  C   C605      1.0  0.11731  0.74986  0.20283  1.0000
  C   C606      1.0  0.02943  0.95138  0.76244  1.0000
  C   C607      1.0  0.07516  0.98536  0.59327  1.0000
  H   H482      1.0  0.21837  0.77928  0.68559  1.0000
  C   C608      1.0  0.23170  0.74546  0.15263  1.0000
  C   C609      1.0  0.18438  0.75228  0.03301  1.0000
  H   H483      1.0  0.03539  0.78890  0.15803  1.0000
  C   C610      1.0  0.01849  0.92635  0.79220  1.0000
  C   C611      1.0  0.21719  0.77738  0.61980  1.0000
  C   C612      1.0  0.21143  0.78228  0.65857  1.0000
  C   C613      1.0  0.19682  0.79163  0.66270  1.0000
  C   C614      1.0  0.18804  0.79646  0.62813  1.0000
  C   C615      1.0  0.19382  0.79189  0.58941  1.0000
  C   C616      1.0  0.20832  0.78242  0.58519  1.0000
  C   C617      1.0  0.22408  0.97780  0.60595  1.0000
  C   C618      1.0  0.03835  0.76256  0.16324  1.0000
  H   H484      1.0  0.02977  0.96397  0.57001  1.0000
  H   H485      1.0  0.23700  0.80374  0.27819  1.0000
  H   H486      1.0  0.09300  0.75779  0.18749  1.0000
  C   C619      1.0  0.06587  0.74560  0.07570  1.0000
  H   H487      1.0  0.16836  0.75110  0.08616  1.0000
  H   H488      1.0  0.19253  0.79548  0.69265  1.0000
  H   H489      1.0  0.17698  0.80411  0.63119  1.0000
  H   H490      1.0  0.18733  0.79614  0.56242  1.0000
  H   H491      1.0  0.21271  0.77956  0.55471  1.0000
  H   H492      1.0  0.01667  0.74420  0.01535  1.0000
  C   C620      1.0  0.00412  0.88208  0.68843  1.0000
  P   P21       1.0  0.23661  0.76626  0.61400  1.0000
  H   H493      1.0  0.21656  0.78215  0.27448  1.0000
  S   S91       1.0  0.20974  0.74746  0.27320  1.0000
  C   C621      1.0  0.04733  0.74929  0.18031  1.0000
  C   C622      1.0  0.23381  0.85931  0.37102  1.0000
  C   C623      1.0  0.22735  0.81333  0.33542  1.0000
  S   S92       1.0  0.09768  0.75020  0.10239  1.0000
  H   H494      1.0  0.01360  0.96523  0.72195  1.0000
  C   C624      1.0  0.19641  0.96030  0.73745  1.0000
  H   H495      1.0  0.21823  0.85557  0.21716  1.0000
  C   C625      1.0  0.04220  0.98527  0.40466  1.0000
  H   H496      1.0  0.23746  0.76934  0.52478  1.0000
  C   C626      1.0  0.21486  0.81191  0.36547  1.0000
  C   C627      1.0  0.20314  0.79985  0.36258  1.0000
  H   H497      1.0  0.03350  0.97559  0.40192  1.0000
  H   H498      1.0  0.23034  0.77010  0.00495  1.0000
  C   C628      1.0  0.05431  0.98759  0.37436  1.0000
  C   C629      1.0  0.23048  0.87007  0.40317  1.0000
  H   H499      1.0  0.12291  0.75897  0.18270  1.0000
  H   H500      1.0  0.99702  0.90186  0.92130  1.0000
  C   C630      1.0  0.23148  0.86437  0.44371  1.0000
  C   C631      1.0  0.23592  0.84794  0.45213  1.0000
  C   C632      1.0  0.23487  0.74515  0.50189  1.0000
  C   C633      1.0  0.00364  0.98964  0.51715  1.0000
  C   C634      1.0  0.00711  0.98846  0.35336  1.0000
  H   H501      1.0  0.00869  0.88652  0.75137  1.0000
  H   H502      1.0  0.19879  0.96139  0.76968  1.0000
  C   C635      1.0  0.24046  0.77278  0.02425  1.0000
  H   H503      1.0  0.02039  0.91528  0.81068  1.0000
  H   H504      1.0  0.21756  0.83936  0.28186  1.0000
  H   H505      1.0  0.24041  0.80088  0.63476  1.0000
  C   C636      1.0  0.22953  0.85268  0.23285  1.0000
  H   H506      1.0  0.21413  0.81990  0.39146  1.0000
  H   H507      1.0  0.19365  0.79867  0.38610  1.0000
  H   H508      1.0  0.21100  0.76265  0.14666  1.0000
  C   C637      1.0  0.10025  0.74918  0.20579  1.0000
  C   C638      1.0  0.18077  0.74917  0.07437  1.0000
  H   H509      1.0  0.22870  0.87264  0.46870  1.0000
  H   H510      1.0  0.23545  0.74932  0.47021  1.0000
  C   C639      1.0  0.05998  0.75206  0.20737  1.0000
  C   C640      1.0  0.00408  0.97390  0.33345  1.0000
  P   P22       1.0  0.22155  0.94508  0.63438  1.0000
  H   H511      1.0  0.05425  0.98233  0.50604  1.0000
  H   H512      1.0  0.21797  0.74808  0.67722  1.0000
  H   H513      1.0  0.02883  0.76041  0.14172  1.0000
  C   C641      1.0  0.05440  0.78153  0.19996  1.0000
  H   H514      1.0  0.01000  0.83745  0.81499  1.0000
  H   H515      1.0  0.21186  0.98007  0.61842  1.0000
  H   H516      1.0  0.05724  0.79404  0.20709  1.0000
  P   P23       1.0  0.24290  0.82856  0.33868  1.0000
  C   C642      1.0  0.05981  0.99176  0.68633  1.0000
  C   C643      1.0  0.08665  0.84485  0.89638  1.0000
  C   C644      1.0  0.07991  0.82930  0.89512  1.0000
  C   C645      1.0  0.07970  0.82107  0.85816  1.0000
  C   C646      1.0  0.08601  0.82847  0.82234  1.0000
  C   C647      1.0  0.09242  0.84428  0.82315  1.0000
  C   C648      1.0  0.09299  0.85229  0.86062  1.0000
  P   P24       1.0  0.09985  0.85404  0.77629  1.0000
  C   C649      1.0  0.12008  0.84583  0.76233  1.0000
  C   C650      1.0  0.08515  0.85049  0.73711  1.0000
  C   C651      1.0  0.09010  0.84910  0.69587  1.0000
  C   C652      1.0  0.07866  0.84617  0.66609  1.0000
  C   C653      1.0  0.06218  0.84448  0.67712  1.0000
  C   C654      1.0  0.05706  0.84607  0.71792  1.0000
  C   C655      1.0  0.06843  0.84922  0.74772  1.0000
  C   C656      1.0  0.12695  0.83222  0.78385  1.0000
  C   C657      1.0  0.14266  0.82607  0.77342  1.0000
  C   C658      1.0  0.15167  0.83347  0.74152  1.0000
  C   C659      1.0  0.14496  0.84699  0.71996  1.0000
  C   C660      1.0  0.12926  0.85314  0.73023  1.0000
  C   C661      1.0  0.09981  0.87600  0.78389  1.0000
  C   C662      1.0  0.08491  0.88446  0.79219  1.0000
  C   C663      1.0  0.08453  0.90131  0.79962  1.0000
  C   C664      1.0  0.09903  0.90995  0.79819  1.0000
  C   C665      1.0  0.11397  0.90162  0.79052  1.0000
  C   C666      1.0  0.11442  0.88467  0.78399  1.0000
  H   H517      1.0  0.08678  0.85123  0.92505  1.0000
  H   H518      1.0  0.07478  0.82366  0.92276  1.0000
  H   H519      1.0  0.07444  0.80903  0.85725  1.0000
  H   H520      1.0  0.08565  0.82199  0.79385  1.0000
  H   H521      1.0  0.09808  0.86437  0.86227  1.0000
  H   H522      1.0  0.10265  0.85064  0.68598  1.0000
  H   H523      1.0  0.08254  0.84578  0.63418  1.0000
  H   H524      1.0  0.05330  0.84257  0.65380  1.0000
  H   H525      1.0  0.04421  0.84529  0.72634  1.0000
  H   H526      1.0  0.06405  0.85079  0.77896  1.0000
  H   H527      1.0  0.12030  0.82633  0.80886  1.0000
  H   H528      1.0  0.14789  0.81561  0.79022  1.0000
  H   H529      1.0  0.16388  0.82881  0.73353  1.0000
  H   H530      1.0  0.15201  0.85278  0.69538  1.0000
  C   C667      1.0  0.21240  0.93237  0.59717  1.0000
  C   C668      1.0  0.04201  0.77867  0.17258  1.0000
  C   C669      1.0  0.17790  0.96341  0.68099  1.0000
  C   C670      1.0  0.99373  0.96237  0.35181  1.0000
  H   H531      1.0  0.01567  0.94325  0.53044  1.0000
  C   C671      1.0  0.21853  0.93195  0.55673  1.0000
  C   C672      1.0  0.22762  0.80280  0.30196  1.0000
  H   H532      1.0  0.08044  0.97758  0.61728  1.0000
  C   C673      1.0  0.21152  0.92187  0.52840  1.0000
  C   C674      1.0  0.04994  0.75134  0.06548  1.0000
  H   H533      1.0  0.03950  0.95966  0.75802  1.0000
  C   C675      1.0  0.01597  0.98459  0.54409  1.0000
  H   H534      1.0  0.23634  0.84345  0.48356  1.0000
  H   H535      1.0  0.16592  0.96687  0.66943  1.0000
  H   H536      1.0  0.99592  0.92021  0.85999  1.0000
  C   C676      1.0  0.01226  0.95622  0.52684  1.0000
  C   C677      1.0  0.24252  0.75557  0.66078  1.0000
  C   C678      1.0  0.23076  0.74743  0.68516  1.0000
  H   H537      1.0  0.22895  0.79241  0.94075  1.0000
  H   H538      1.0  0.22720  0.79453  0.86521  1.0000
  H   H539      1.0  0.22894  0.93908  0.54704  1.0000
  C   C679      1.0  0.22922  0.84342  0.26945  1.0000
  Fe  Fe47      1.0  0.24068  0.75422  0.83441  1.0000
  S   S93       1.0  0.00772  0.83316  0.90263  1.0000
  C   C680      1.0  0.00751  0.74588  0.99214  1.0000
  H   H540      1.0  0.99392  0.95195  0.48285  1.0000
  C   C681      1.0  0.99421  0.91562  0.55254  1.0000
  H   H541      1.0  0.02700  0.86250  0.91887  1.0000
  H   H542      1.0  0.00989  0.88370  0.49759  1.0000
  C   C682      1.0  0.23846  0.79847  0.92296  1.0000
  C   C683      1.0  0.06710  0.97828  0.56135  1.0000
  C   C684      1.0  0.00495  0.90260  0.54166  1.0000
  H   H543      1.0  0.23279  0.86399  0.33993  1.0000
  C   C685      1.0  0.00154  0.89027  0.72521  1.0000
  H   H544      1.0  0.21662  0.92122  0.49761  1.0000
  C   C686      1.0  0.02023  0.96789  0.54905  1.0000
  C   C687      1.0  0.23784  0.80768  0.50127  1.0000
  C   C688      1.0  0.20030  0.74947  0.01763  1.0000
  H   H545      1.0  0.22086  0.78203  0.19603  1.0000
  S   S94       1.0  0.24237  0.75720  0.90227  1.0000
  H   H546      1.0  0.04285  0.93454  0.80200  1.0000
  H   H547      1.0  0.19505  0.77942  0.32820  1.0000
  H   H548      1.0  0.09863  0.92311  0.80280  1.0000
  C   C689      1.0  0.23750  0.77874  0.06352  1.0000
  C   C690      1.0  0.23746  0.79964  0.88041  1.0000
  C   C691      1.0  0.23166  0.96206  0.60865  1.0000
  C   C692      1.0  0.23831  0.84275  0.37936  1.0000
  C   C693      1.0  0.21604  0.79062  0.29956  1.0000
  H   H549      1.0  0.18840  0.75121  0.20528  1.0000
  H   H550      1.0  0.00985  0.97144  0.30396  1.0000
  S   S95       1.0  0.24254  0.89306  0.53749  1.0000
  H   H551      1.0  0.01318  0.87209  0.68640  1.0000
  C   C694      1.0  0.99525  0.97795  0.49549  1.0000
  H   H552      1.0  0.24210  0.81615  0.52329  1.0000
  H   H553      1.0  0.17138  0.96934  0.74322  1.0000
  C   C695      1.0  0.23603  0.75650  0.53293  1.0000
  C   C696      1.0  0.23542  0.75132  0.57413  1.0000
  C   C697      1.0  0.99981  0.99148  0.39172  1.0000
  H   H554      1.0  0.24292  0.82451  0.42706  1.0000
  H   H555      1.0  0.99342  0.80888  0.85165  1.0000
  C   C698      1.0  0.99343  0.89711  0.89233  1.0000
  H   H556      1.0  0.03208  0.99316  0.46230  1.0000
  C   C699      1.0  0.42147  0.16599  0.84889  1.0000
  C   C700      1.0  0.47905  0.11228  0.99314  1.0000
  C   C701      1.0  0.37755  0.00842  0.67337  1.0000
  C   C702      1.0  0.40143  0.99832  0.98580  1.0000
  H   H557      1.0  0.43969  0.05183  0.07743  1.0000
  H   H558      1.0  0.41836  0.17796  0.92458  1.0000
  C   C703      1.0  0.46764  0.13485  0.03340  1.0000
  S   S96       1.0  0.32534  0.01117  0.52768  1.0000
  H   H559      1.0  0.30613  0.23245  0.95203  1.0000
  H   H560      1.0  0.29096  0.21954  0.16937  1.0000
  C   C704      1.0  0.46493  0.07981  0.00280  1.0000
  Fe  Fe48      1.0  0.29897  0.00643  0.54503  1.0000
  S   S97       1.0  0.27858  0.02574  0.56061  1.0000
  C   C705      1.0  0.35138  0.10727  0.55639  1.0000
  Fe  Fe49      1.0  0.39860  0.03709  0.82191  1.0000
  S   S98       1.0  0.41275  0.05919  0.80161  1.0000
  S   S99       1.0  0.37590  0.02938  0.78693  1.0000
  Fe  Fe50      1.0  0.41615  0.03512  0.90502  1.0000
  S   S100      1.0  0.43099  0.05760  0.88938  1.0000
  S   S101      1.0  0.42283  0.02378  0.96776  1.0000
  Fe  Fe51      1.0  0.40781  0.06923  0.86449  1.0000
  S   S102      1.0  0.39844  0.09634  0.86208  1.0000
  Fe  Fe52      1.0  0.43493  0.04606  0.82824  1.0000
  S   S103      1.0  0.45901  0.04637  0.79108  1.0000
  S   S104      1.0  0.39264  0.04760  0.88431  1.0000
  S   S105      1.0  0.42122  0.02301  0.84439  1.0000
  Fe  Fe53      1.0  0.37744  0.22314  0.95348  1.0000
  S   S106      1.0  0.37746  0.20545  0.00781  1.0000
  C   C706      1.0  0.29815  0.22440  0.14390  1.0000
  Fe  Fe54      1.0  0.34955  0.20575  0.91353  1.0000
  S   S107      1.0  0.34779  0.18681  0.96448  1.0000
  S   S108      1.0  0.33426  0.20316  0.85699  1.0000
  Fe  Fe55      1.0  0.34975  0.20817  0.00655  1.0000
  S   S109      1.0  0.33267  0.20613  0.06326  1.0000
  Fe  Fe56      1.0  0.37522  0.18521  0.96202  1.0000
  S   S110      1.0  0.39040  0.16101  0.97019  1.0000
  S   S111      1.0  0.34983  0.22725  0.95526  1.0000
  S   S112      1.0  0.37697  0.20269  0.90811  1.0000
  H   H561      1.0  0.32342  0.23525  0.88766  1.0000
  C   C707      1.0  0.39597  0.11393  0.89355  1.0000
  C   C708      1.0  0.40335  0.11486  0.93153  1.0000
  C   C709      1.0  0.40150  0.12934  0.95442  1.0000
  C   C710      1.0  0.39223  0.14308  0.93983  1.0000
  C   C711      1.0  0.38489  0.14216  0.90183  1.0000
  C   C712      1.0  0.38667  0.12765  0.87905  1.0000
  H   H562      1.0  0.41064  0.10451  0.94305  1.0000
  H   H563      1.0  0.40726  0.12990  0.98373  1.0000
  H   H564      1.0  0.37773  0.15258  0.89010  1.0000
  H   H565      1.0  0.38085  0.12709  0.84980  1.0000
  H   H566      1.0  0.32272  0.04754  0.38227  1.0000
  C   C713      1.0  0.47935  0.04623  0.80929  1.0000
  C   C714      1.0  0.30050  0.06298  0.48093  1.0000
  H   H567      1.0  0.47273  0.04439  0.87324  1.0000
  C   C715      1.0  0.38439  0.05373  0.60692  1.0000
  H   H568      1.0  0.27679  0.23214  0.47451  1.0000
  C   C716      1.0  0.46755  0.07993  0.04509  1.0000
  H   H569      1.0  0.48797  0.21798  0.85664  1.0000
  C   C717      1.0  0.41427  0.00772  0.99872  1.0000
  C   C718      1.0  0.42354  0.14960  0.83732  1.0000
  H   H570      1.0  0.26791  0.21116  0.42011  1.0000
  C   C719      1.0  0.37045  0.01496  0.51714  1.0000
  H   H571      1.0  0.43084  0.01126  0.04767  1.0000
  C   C720      1.0  0.38913  0.05389  0.67973  1.0000
  C   C721      1.0  0.36087  0.00692  0.66446  1.0000
  C   C722      1.0  0.34911  0.01234  0.69341  1.0000
  C   C723      1.0  0.35398  0.01907  0.73052  1.0000
  C   C724      1.0  0.37066  0.02049  0.73953  1.0000
  C   C725      1.0  0.38242  0.01510  0.71055  1.0000
  H   H572      1.0  0.28040  0.22469  0.06295  1.0000
  H   H573      1.0  0.25157  0.23997  0.60000  1.0000
  H   H574      1.0  0.34473  0.02312  0.75260  1.0000
  H   H575      1.0  0.37170  0.07025  0.49981  1.0000
  H   H576      1.0  0.37101  0.22549  0.79516  1.0000
  H   H577      1.0  0.38680  0.00430  0.65139  1.0000
  C   C726      1.0  0.25748  0.05294  0.56193  1.0000
  C   C727      1.0  0.26656  0.04192  0.53691  1.0000
  C   C728      1.0  0.26571  0.04408  0.49442  1.0000
  H   H578      1.0  0.35017  0.03198  0.43643  1.0000
  C   C729      1.0  0.24781  0.06600  0.54489  1.0000
  H   H579      1.0  0.27236  0.03562  0.47463  1.0000
  S   S113      1.0  0.25154  0.20306  0.31071  1.0000
  H   H580      1.0  0.46232  0.15066  0.79766  1.0000
  C   C730      1.0  0.25618  0.05723  0.47739  1.0000
  C   C731      1.0  0.31873  0.21998  0.08883  1.0000
  C   C732      1.0  0.30902  0.21391  0.12170  1.0000
  C   C733      1.0  0.31728  0.23672  0.07815  1.0000
  C   C734      1.0  0.39188  0.22940  0.83221  1.0000
  C   C735      1.0  0.46323  0.99964  0.06619  1.0000
  H   H581      1.0  0.27134  0.20860  0.52245  1.0000
  H   H582      1.0  0.37553  0.09844  0.47307  1.0000
  H   H583      1.0  0.49006  0.04796  0.74850  1.0000
  C   C736      1.0  0.44676  0.05963  0.05675  1.0000
  C   C737      1.0  0.31519  0.23185  0.86419  1.0000
  C   C738      1.0  0.31771  0.21684  0.84468  1.0000
  C   C739      1.0  0.30700  0.21265  0.81391  1.0000
  C   C740      1.0  0.29393  0.22338  0.80257  1.0000
  H   H584      1.0  0.45382  0.11443  0.01503  1.0000
  H   H585      1.0  0.30886  0.20106  0.79868  1.0000
  H   H586      1.0  0.28584  0.22007  0.77864  1.0000
  C   C741      1.0  0.34909  0.09126  0.57163  1.0000
  C   C742      1.0  0.35578  0.07769  0.55053  1.0000
  P   P25       1.0  0.35365  0.05721  0.57202  1.0000
  C   C743      1.0  0.33293  0.05346  0.58927  1.0000
  C   C744      1.0  0.25958  0.18824  0.44597  1.0000
  H   H587      1.0  0.25206  0.20277  0.93038  1.0000
  H   H588      1.0  0.25453  0.17130  0.35068  1.0000
  H   H589      1.0  0.36258  0.12227  0.50895  1.0000
  H   H590      1.0  0.28302  0.24081  0.35757  1.0000
  C   C745      1.0  0.36749  0.02734  0.54552  1.0000
  C   C746      1.0  0.32987  0.03951  0.61399  1.0000
  C   C747      1.0  0.31405  0.03657  0.62895  1.0000
  C   C748      1.0  0.30114  0.04748  0.61901  1.0000
  C   C749      1.0  0.30393  0.06105  0.59304  1.0000
  C   C750      1.0  0.31975  0.06396  0.57777  1.0000
  C   C751      1.0  0.28952  0.23392  0.58761  1.0000
  H   H591      1.0  0.43968  0.13143  0.80951  1.0000
  C   C752      1.0  0.45852  0.06983  0.07191  1.0000
  C   C753      1.0  0.26036  0.22050  0.02270  1.0000
  H   H592      1.0  0.47533  0.17049  0.88460  1.0000
  C   C754      1.0  0.36152  0.05725  0.65485  1.0000
  H   H593      1.0  0.34227  0.08944  0.60015  1.0000
  H   H594      1.0  0.33504  0.24110  0.25663  1.0000
  H   H595      1.0  0.33626  0.01117  0.68745  1.0000
  C   C755      1.0  0.36066  0.10986  0.52048  1.0000
  H   H596      1.0  0.36071  0.13237  0.00348  1.0000
  C   C756      1.0  0.37235  0.05630  0.68733  1.0000
  H   H597      1.0  0.33975  0.03088  0.62161  1.0000
  H   H598      1.0  0.31175  0.02567  0.64767  1.0000
  H   H599      1.0  0.28882  0.04501  0.63005  1.0000
  H   H600      1.0  0.29369  0.06902  0.58413  1.0000
  H   H601      1.0  0.32155  0.07421  0.55674  1.0000
  C   C757      1.0  0.36745  0.05570  0.61437  1.0000
  H   H602      1.0  0.47736  0.07547  0.89050  1.0000
  H   H603      1.0  0.31763  0.02809  0.44047  1.0000
  H   H604      1.0  0.31006  0.20100  0.13033  1.0000
  H   H605      1.0  0.34858  0.05904  0.66166  1.0000
  C   C758      1.0  0.36786  0.09644  0.50013  1.0000
  C   C759      1.0  0.38892  0.20551  0.79084  1.0000
  H   H606      1.0  0.43942  0.22868  0.98219  1.0000
  H   H607      1.0  0.45726  0.14075  0.04908  1.0000
  H   H608      1.0  0.29929  0.23111  0.42562  1.0000
  H   H609      1.0  0.42698  0.20744  0.02770  1.0000
  C   C760      1.0  0.28203  0.21999  0.57355  1.0000
  C   C761      1.0  0.44694  0.21973  0.79908  1.0000
  H   H610      1.0  0.32751  0.04992  0.94121  1.0000
  H   H611      1.0  0.33606  0.10759  0.88333  1.0000
  H   H612      1.0  0.34549  0.21131  0.46595  1.0000
  H   H613      1.0  0.45898  0.03074  0.95649  1.0000
  H   H614      1.0  0.46056  0.06996  0.10451  1.0000
  H   H615      1.0  0.27905  0.20999  0.59482  1.0000
  C   C762      1.0  0.46572  0.11998  0.01378  1.0000
  H   H616      1.0  0.41333  0.22957  0.86850  1.0000
  C   C763      1.0  0.25863  0.20526  0.43899  1.0000
  C   C764      1.0  0.29156  0.23849  0.82165  1.0000
  H   H617      1.0  0.40828  0.18721  0.79337  1.0000
  C   C765      1.0  0.42098  0.00403  0.03723  1.0000
  H   H618      1.0  0.37179  0.02534  0.57633  1.0000
  C   C766      1.0  0.47140  0.02590  0.96026  1.0000
  C   C767      1.0  0.48294  0.14204  0.03312  1.0000
  C   C768      1.0  0.32144  0.22002  0.44837  1.0000
  C   C769      1.0  0.35526  0.03094  0.46667  1.0000
  H   H619      1.0  0.26431  0.21971  0.12619  1.0000
  C   C770      1.0  0.24768  0.10499  0.38742  1.0000
  C   C771      1.0  0.26766  0.22155  0.06090  1.0000
  H   H620      1.0  0.46613  0.01227  0.05880  1.0000
  H   H621      1.0  0.34438  0.05384  0.48676  1.0000
  H   H622      1.0  0.31393  0.11390  0.58747  1.0000
  H   H623      1.0  0.35149  0.04893  0.98620  1.0000
  C   C772      1.0  0.42325  0.18902  0.93625  1.0000
  H   H624      1.0  0.46052  0.07795  0.82939  1.0000
  C   C773      1.0  0.34630  0.23454  0.43282  1.0000
  C   C774      1.0  0.44836  0.21004  0.83502  1.0000
  H   H625      1.0  0.31533  0.20949  0.46187  1.0000
  C   C775      1.0  0.31383  0.04097  0.44271  1.0000
  H   H626      1.0  0.32378  0.09660  0.00154  1.0000
  C   C776      1.0  0.38285  0.22066  0.80486  1.0000
  H   H627      1.0  0.27884  0.07646  0.39251  1.0000
  H   H628      1.0  0.39739  0.05267  0.70516  1.0000
  H   H629      1.0  0.34621  0.11768  0.57288  1.0000
  C   C777      1.0  0.40671  0.22276  0.84661  1.0000
  C   C778      1.0  0.47497  0.22810  0.80488  1.0000
  C   C779      1.0  0.36556  0.08043  0.51526  1.0000
  H   H630      1.0  0.25573  0.05880  0.44452  1.0000
  C   C780      1.0  0.46020  0.22875  0.78417  1.0000
  S   S114      1.0  0.24809  0.20888  0.64282  1.0000
  C   C781      1.0  0.44892  0.17138  0.82341  1.0000
  C   C782      1.0  0.48753  0.16498  0.88134  1.0000
  C   C783      1.0  0.34240  0.12987  0.91181  1.0000
  H   H631      1.0  0.31767  0.06362  0.81568  1.0000
  H   H632      1.0  0.36773  0.05694  0.71862  1.0000
  C   C784      1.0  0.30585  0.04655  0.47822  1.0000
  C   C785      1.0  0.35844  0.04168  0.53465  1.0000
  H   H633      1.0  0.29374  0.06676  0.50813  1.0000
  C   C786      1.0  0.24735  0.18053  0.46926  1.0000
  Fe  Fe57      1.0  0.24645  0.22682  0.27341  1.0000
  C   C787      1.0  0.45842  0.99511  0.10606  1.0000
  C   C788      1.0  0.33842  0.22105  0.45070  1.0000
  H   H634      1.0  0.41365  0.14117  0.84229  1.0000
  C   C789      1.0  0.46333  0.20928  0.85535  1.0000
  C   C790      1.0  0.31668  0.05194  0.40996  1.0000
  H   H635      1.0  0.26956  0.18096  0.43254  1.0000
  P   P26       1.0  0.43126  0.19853  0.85516  1.0000
  H   H636      1.0  0.35051  0.15011  0.94668  1.0000
  C   C791      1.0  0.25915  0.22814  0.93351  1.0000
  H   H637      1.0  0.34364  0.05938  0.77564  1.0000
  H   H638      1.0  0.28882  0.05953  0.02934  1.0000
  P   P27       1.0  0.27236  0.22431  0.97640  1.0000
  C   C792      1.0  0.45095  0.15495  0.81214  1.0000
  H   H639      1.0  0.24568  0.12718  0.42181  1.0000
  H   H640      1.0  0.25788  0.05135  0.59481  1.0000
  H   H641      1.0  0.47658  0.08779  0.05735  1.0000
  S   S115      1.0  0.24728  0.22775  0.20455  1.0000
  H   H642      1.0  0.46931  0.00755  0.91461  1.0000
  H   H643      1.0  0.24509  0.22777  0.45088  1.0000
  H   H644      1.0  0.29934  0.08735  0.03983  1.0000
  H   H645      1.0  0.38185  0.19871  0.76980  1.0000
  H   H646      1.0  0.27211  0.12232  0.45564  1.0000
  H   H647      1.0  0.40467  0.07623  0.97008  1.0000
  C   C793      1.0  0.42805  0.20556  0.99507  1.0000
  C   C794      1.0  0.28597  0.20691  0.96558  1.0000
  C   C795      1.0  0.29379  0.19811  0.99743  1.0000
  C   C796      1.0  0.30450  0.18482  0.98881  1.0000
  C   C797      1.0  0.30750  0.18022  0.94838  1.0000
  C   C798      1.0  0.30010  0.18915  0.91648  1.0000
  C   C799      1.0  0.28952  0.20255  0.92492  1.0000
  C   C800      1.0  0.43415  0.17708  0.84195  1.0000
  H   H648      1.0  0.37638  0.03564  0.01402  1.0000
  H   H649      1.0  0.25342  0.23976  0.37327  1.0000
  H   H650      1.0  0.37991  0.08969  0.94139  1.0000
  H   H651      1.0  0.40291  0.04924  0.00684  1.0000
  H   H652      1.0  0.29204  0.20162  0.02891  1.0000
  C   C801      1.0  0.35208  0.04327  0.49519  1.0000
  H   H653      1.0  0.38711  0.24105  0.84367  1.0000
  H   H654      1.0  0.31819  0.07353  0.88627  1.0000
  H   H655      1.0  0.44941  0.11600  0.94357  1.0000
  C   C802      1.0  0.25855  0.21875  0.09693  1.0000
  P   P28       1.0  0.47644  0.09297  0.96817  1.0000
  H   H656      1.0  0.45885  0.17958  0.81695  1.0000
  C   C803      1.0  0.40384  0.19890  0.80489  1.0000
  H   H657      1.0  0.40980  0.17004  0.86235  1.0000
  H   H658      1.0  0.24789  0.16730  0.47427  1.0000
  H   H659      1.0  0.31084  0.17841  0.01351  1.0000
  H   H660      1.0  0.31600  0.17010  0.94164  1.0000
  H   H661      1.0  0.30298  0.18601  0.88504  1.0000
  H   H662      1.0  0.28447  0.20966  0.89950  1.0000
  H   H663      1.0  0.48560  0.15085  0.93759  1.0000
  C   C804      1.0  0.47721  0.01276  0.93672  1.0000
  C   C805      1.0  0.46516  0.09593  0.92146  1.0000
  C   C806      1.0  0.46803  0.08519  0.88883  1.0000
  C   C807      1.0  0.45840  0.08646  0.85412  1.0000
  C   C808      1.0  0.44550  0.09810  0.85211  1.0000
  C   C809      1.0  0.44254  0.10882  0.88433  1.0000
  C   C810      1.0  0.45233  0.10781  0.91880  1.0000
  C   C811      1.0  0.45316  0.06945  0.98787  1.0000
  C   C812      1.0  0.44408  0.05950  0.01480  1.0000
  H   H664      1.0  0.33818  0.13771  0.88670  1.0000
  H   H665      1.0  0.43229  0.11759  0.88306  1.0000
  H   H666      1.0  0.24566  0.18696  0.57598  1.0000
  H   H667      1.0  0.32467  0.24160  0.05309  1.0000
  H   H668      1.0  0.43751  0.09849  0.82609  1.0000
  H   H669      1.0  0.29202  0.23440  0.61985  1.0000
  H   H670      1.0  0.37074  0.07611  0.87590  1.0000
  H   H671      1.0  0.45094  0.06897  0.95550  1.0000
  H   H672      1.0  0.43494  0.05163  0.00305  1.0000
  C   C813      1.0  0.27762  0.21923  0.53271  1.0000
  C   C814      1.0  0.39516  0.05266  0.63954  1.0000
  C   C815      1.0  0.43823  0.14409  0.81888  1.0000
  C   C816      1.0  0.31233  0.23241  0.42801  1.0000
  C   C817      1.0  0.27764  0.09912  0.42626  1.0000
  C   C818      1.0  0.28078  0.23241  0.50575  1.0000
  P   P29       1.0  0.29681  0.09548  0.45196  1.0000
  C   C819      1.0  0.29375  0.10033  0.50533  1.0000
  C   C820      1.0  0.30339  0.07412  0.44836  1.0000
  C   C821      1.0  0.28456  0.24198  0.98459  1.0000
  H   H673      1.0  0.30332  0.03805  0.50342  1.0000
  H   H674      1.0  0.37004  0.06612  0.80571  1.0000
  H   H675      1.0  0.38926  0.05275  0.57595  1.0000
  C   C822      1.0  0.31150  0.06847  0.41272  1.0000
  C   C823      1.0  0.30660  0.10604  0.52830  1.0000
  C   C824      1.0  0.30405  0.10946  0.56977  1.0000
  C   C825      1.0  0.28870  0.10720  0.58852  1.0000
  C   C826      1.0  0.27590  0.10145  0.56589  1.0000
  C   C827      1.0  0.27842  0.09798  0.52458  1.0000
  C   C828      1.0  0.31263  0.10784  0.42845  1.0000
  C   C829      1.0  0.30862  0.12149  0.40307  1.0000
  C   C830      1.0  0.32099  0.13056  0.38378  1.0000
  C   C831      1.0  0.33743  0.12606  0.38959  1.0000
  C   C832      1.0  0.34153  0.11252  0.41485  1.0000
  C   C833      1.0  0.32920  0.10346  0.43432  1.0000
  C   C834      1.0  0.48271  0.04528  0.85103  1.0000
  H   H676      1.0  0.46469  0.20190  0.88315  1.0000
  H   H677      1.0  0.35840  0.10216  0.00137  1.0000
  H   H678      1.0  0.39528  0.01609  0.71676  1.0000
  H   H679      1.0  0.48443  0.15352  0.04858  1.0000
  H   H680      1.0  0.30301  0.04088  0.98003  1.0000
  C   C835      1.0  0.27203  0.08779  0.39854  1.0000
  H   H681      1.0  0.31361  0.07677  0.38686  1.0000
  H   H682      1.0  0.31856  0.10783  0.51443  1.0000
  C   C836      1.0  0.34130  0.11277  0.90997  1.0000
  H   H683      1.0  0.28667  0.10990  0.62058  1.0000
  H   H684      1.0  0.26395  0.09964  0.58025  1.0000
  H   H685      1.0  0.26836  0.09344  0.50770  1.0000
  H   H686      1.0  0.29600  0.12509  0.39754  1.0000
  H   H687      1.0  0.31779  0.14097  0.36387  1.0000
  H   H688      1.0  0.34698  0.13299  0.37416  1.0000
  H   H689      1.0  0.35427  0.10892  0.41887  1.0000
  H   H690      1.0  0.33259  0.09290  0.45354  1.0000
  C   C837      1.0  0.30754  0.05307  0.98447  1.0000
  C   C838      1.0  0.29957  0.06357  0.01227  1.0000
  C   C839      1.0  0.30550  0.07923  0.01818  1.0000
  C   C840      1.0  0.31940  0.08444  0.99630  1.0000
  C   C841      1.0  0.32742  0.07402  0.96806  1.0000
  C   C842      1.0  0.32142  0.05825  0.96250  1.0000
  P   P30       1.0  0.34562  0.08045  0.94019  1.0000
  C   C843      1.0  0.36367  0.07062  0.96235  1.0000
  C   C844      1.0  0.34466  0.07476  0.88722  1.0000
  C   C845      1.0  0.32961  0.07180  0.86927  1.0000
  C   C846      1.0  0.32923  0.06634  0.82906  1.0000
  C   C847      1.0  0.34381  0.06411  0.80630  1.0000
  C   C848      1.0  0.35870  0.06783  0.82328  1.0000
  C   C849      1.0  0.35910  0.07327  0.86341  1.0000
  C   C850      1.0  0.36286  0.05525  0.98285  1.0000
  C   C851      1.0  0.37698  0.04764  0.99891  1.0000
  C   C852      1.0  0.39199  0.05529  0.99479  1.0000
  C   C853      1.0  0.39295  0.07051  0.97428  1.0000
  C   C854      1.0  0.37888  0.07811  0.95803  1.0000
  C   C855      1.0  0.34709  0.10257  0.94211  1.0000
  C   C856      1.0  0.35388  0.10976  0.97618  1.0000
  C   C857      1.0  0.35504  0.12685  0.97776  1.0000
  C   C858      1.0  0.34926  0.13689  0.94568  1.0000
  C   C859      1.0  0.26817  0.11351  0.43396  1.0000
  C   C860      1.0  0.25057  0.21513  0.91760  1.0000
  H   H691      1.0  0.47699  0.04274  0.00721  1.0000
  C   C861      1.0  0.48156  0.03267  0.98873  1.0000
  C   C862      1.0  0.41260  0.20727  0.83393  1.0000
  C   C863      1.0  0.36441  0.01677  0.47768  1.0000
  C   C864      1.0  0.24549  0.21457  0.45555  1.0000
  S   S116      1.0  0.35559  0.99818  0.61687  1.0000
  C   C865      1.0  0.30219  0.24265  0.85262  1.0000
  C   C866      1.0  0.43497  0.21755  0.96942  1.0000
  H   H692      1.0  0.36633  0.00696  0.45603  1.0000
  H   H693      1.0  0.35002  0.99930  0.34315  1.0000
  C   C867      1.0  0.24709  0.06825  0.50241  1.0000
  H   H694      1.0  0.45898  0.23640  0.75675  1.0000
  H   H695      1.0  0.35950  0.23521  0.43401  1.0000
  C   C868      1.0  0.42216  0.19132  0.97847  1.0000
  C   C869      1.0  0.25708  0.09072  0.37930  1.0000
  C   C870      1.0  0.47655  0.21833  0.84038  1.0000
  H   H696      1.0  0.39613  0.00092  0.95627  1.0000
  H   H697      1.0  0.41642  0.18216  0.99822  1.0000
  H   H698      1.0  0.25477  0.99862  0.55734  1.0000
  H   H699      1.0  0.43559  0.22046  0.78267  1.0000
  C   C871      1.0  0.25324  0.11639  0.41464  1.0000
  C   C872      1.0  0.43568  0.21551  0.92714  1.0000
  H   H700      1.0  0.40818  0.05067  0.63380  1.0000
  C   C873      1.0  0.49252  0.04728  0.78085  1.0000
  H   H701      1.0  0.44038  0.22540  0.90794  1.0000
  C   C874      1.0  0.43010  0.20106  0.91009  1.0000
  H   H702      1.0  0.45761  0.00417  0.12979  1.0000
  C   C875      1.0  0.29682  0.24117  0.13351  1.0000
  H   H703      1.0  0.48517  0.23528  0.79360  1.0000
  Fe  Fe58      1.0  0.33252  0.99383  0.57944  1.0000
  H   H704      1.0  0.37694  0.00368  0.52636  1.0000
  H   H705      1.0  0.43047  0.99457  0.91525  1.0000
  H   H706      1.0  0.25250  0.08168  0.35909  1.0000
  S   S117      1.0  0.24343  0.22185  0.76167  1.0000
  C   C876      1.0  0.24364  0.21699  0.02133  1.0000
  C   C877      1.0  0.30071  0.24257  0.96909  1.0000
  C   C878      1.0  0.49315  0.00633  0.94170  1.0000
  H   H707      1.0  0.49289  0.17736  0.82377  1.0000
  H   H708      1.0  0.24798  0.29970  0.07874  1.0000
  H   H709      1.0  0.27843  0.31121  0.68500  1.0000
  S   S118      1.0  0.47867  0.33663  0.84400  1.0000
  C   C879      1.0  0.28744  0.26883  0.01407  1.0000
  C   C880      1.0  0.28134  0.30571  0.51414  1.0000
  H   H710      1.0  0.43858  0.44478  0.49021  1.0000
  Fe  Fe59      1.0  0.41739  0.40355  0.60333  1.0000
  S   S119      1.0  0.44051  0.38937  0.62215  1.0000
  S   S120      1.0  0.39681  0.38796  0.57820  1.0000
  Fe  Fe60      1.0  0.43164  0.43681  0.62669  1.0000
  S   S121      1.0  0.45522  0.42473  0.64759  1.0000
  S   S122      1.0  0.42741  0.46462  0.61471  1.0000
  Fe  Fe61      1.0  0.45448  0.40982  0.59042  1.0000
  S   S123      1.0  0.47889  0.40725  0.55422  1.0000
  Fe  Fe62      1.0  0.43974  0.40511  0.67785  1.0000
  S   S124      1.0  0.44313  0.39667  0.74523  1.0000
  S   S125      1.0  0.43173  0.42275  0.56799  1.0000
  S   S126      1.0  0.41586  0.41836  0.66071  1.0000
  Fe  Fe63      1.0  0.28025  0.35088  0.56201  1.0000
  S   S127      1.0  0.30118  0.34962  0.51620  1.0000
  S   S128      1.0  0.28223  0.33460  0.61898  1.0000
  Fe  Fe64      1.0  0.26201  0.37882  0.51535  1.0000
  S   S129      1.0  0.28184  0.37939  0.46581  1.0000
  C   C881      1.0  0.27794  0.25526  0.00690  1.0000
  Fe  Fe65      1.0  0.28145  0.35148  0.46880  1.0000
  S   S130      1.0  0.28411  0.33463  0.41312  1.0000
  Fe  Fe66      1.0  0.30007  0.37727  0.51725  1.0000
  S   S131      1.0  0.32146  0.39475  0.52527  1.0000
  S   S132      1.0  0.26076  0.35100  0.51508  1.0000
  S   S133      1.0  0.28010  0.37840  0.56610  1.0000
  S   S134      1.0  0.26446  0.24711  0.27735  1.0000
  Fe  Fe67      1.0  0.47393  0.30013  0.97196  1.0000
  C   C882      1.0  0.42888  0.26190  0.00735  1.0000
  S   S135      1.0  0.45564  0.28162  0.99924  1.0000
  H   H711      1.0  0.25026  0.32991  0.58410  1.0000
  C   C883      1.0  0.31480  0.25309  0.69440  1.0000
  C   C884      1.0  0.47865  0.45448  0.47843  1.0000
  S   S136      1.0  0.46860  0.32750  0.96653  1.0000
  H   H712      1.0  0.37413  0.47967  0.71032  1.0000
  H   H713      1.0  0.48635  0.39406  0.71918  1.0000
  C   C885      1.0  0.42157  0.26283  0.92467  1.0000
  C   C886      1.0  0.43517  0.27125  0.93829  1.0000
  C   C887      1.0  0.43884  0.27097  0.97985  1.0000
  H   H714      1.0  0.25450  0.29513  0.89561  1.0000
  H   H715      1.0  0.25591  0.31264  0.50713  1.0000
  H   H716      1.0  0.44278  0.27800  0.91667  1.0000
  H   H717      1.0  0.26553  0.25503  0.01927  1.0000
  H   H718      1.0  0.30538  0.29626  0.52631  1.0000
  C   C888      1.0  0.45302  0.37974  0.77189  1.0000
  C   C889      1.0  0.46117  0.36677  0.75168  1.0000
  C   C890      1.0  0.46904  0.35387  0.77429  1.0000
  C   C891      1.0  0.46886  0.35362  0.81741  1.0000
  C   C892      1.0  0.46060  0.36653  0.83764  1.0000
  C   C893      1.0  0.45277  0.37946  0.81504  1.0000
  H   H719      1.0  0.46153  0.36674  0.71862  1.0000
  C   C894      1.0  0.34624  0.26028  0.52289  1.0000
  H   H720      1.0  0.46014  0.36650  0.87070  1.0000
  H   H721      1.0  0.44650  0.38938  0.83112  1.0000
  C   C895      1.0  0.37579  0.39024  0.56406  1.0000
  C   C896      1.0  0.36677  0.40511  0.56724  1.0000
  C   C897      1.0  0.35022  0.40620  0.55542  1.0000
  C   C898      1.0  0.34225  0.39240  0.54119  1.0000
  C   C899      1.0  0.35126  0.37754  0.53808  1.0000
  C   C900      1.0  0.36790  0.37652  0.54912  1.0000
  H   H722      1.0  0.37253  0.41580  0.57867  1.0000
  H   H723      1.0  0.34347  0.41783  0.55758  1.0000
  H   H724      1.0  0.34548  0.36697  0.52625  1.0000
  H   H725      1.0  0.37472  0.36498  0.54598  1.0000
  H   H726      1.0  0.33588  0.33255  0.50976  1.0000
  C   C901      1.0  0.47220  0.40930  0.47085  1.0000
  C   C902      1.0  0.47680  0.40903  0.42900  1.0000
  H   H727      1.0  0.43158  0.26157  0.03956  1.0000
  H   H728      1.0  0.30373  0.26022  0.75199  1.0000
  H   H729      1.0  0.45950  0.41076  0.47995  1.0000
  H   H730      1.0  0.46746  0.41013  0.40623  1.0000
  C   C903      1.0  0.24374  0.37789  0.62838  1.0000
  C   C904      1.0  0.43252  0.47892  0.68985  1.0000
  C   C905      1.0  0.43040  0.48133  0.64784  1.0000
  C   C906      1.0  0.28695  0.26118  0.39726  1.0000
  H   H731      1.0  0.43273  0.46657  0.70295  1.0000
  C   C907      1.0  0.37749  0.39315  0.39835  1.0000
  H   H732      1.0  0.36396  0.32310  0.48846  1.0000
  S   S137      1.0  0.48876  0.29886  0.91298  1.0000
  H   H733      1.0  0.38608  0.32145  0.53926  1.0000
  C   C908      1.0  0.25083  0.29710  0.35332  1.0000
  C   C909      1.0  0.38628  0.48100  0.65128  1.0000
  C   C910      1.0  0.25564  0.31631  0.40858  1.0000
  C   C911      1.0  0.27080  0.32040  0.39081  1.0000
  C   C912      1.0  0.27574  0.31289  0.35394  1.0000
  C   C913      1.0  0.26587  0.30137  0.33534  1.0000
  C   C914      1.0  0.25897  0.29130  0.54683  1.0000
  C   C915      1.0  0.27940  0.27210  0.42513  1.0000
  H   H734      1.0  0.28714  0.31628  0.33912  1.0000
  H   H735      1.0  0.26967  0.29613  0.30646  1.0000
  C   C916      1.0  0.38038  0.35804  0.65526  1.0000
  C   C917      1.0  0.44882  0.45836  0.43867  1.0000
  C   C918      1.0  0.31380  0.25650  0.24417  1.0000
  H   H736      1.0  0.43733  0.45964  0.42301  1.0000
  C   C919      1.0  0.26599  0.32165  0.63272  1.0000
  C   C920      1.0  0.25168  0.32164  0.61017  1.0000
  H   H737      1.0  0.31984  0.29053  0.74283  1.0000
  C   C921      1.0  0.32582  0.30032  0.72579  1.0000
  H   H738      1.0  0.31452  0.34452  0.65179  1.0000
  H   H739      1.0  0.25683  0.27991  0.45522  1.0000
  C   C922      1.0  0.40163  0.45786  0.51061  1.0000
  H   H740      1.0  0.46501  0.44101  0.52476  1.0000
  C   C923      1.0  0.34845  0.39533  0.41486  1.0000
  C   C924      1.0  0.26075  0.24852  0.38858  1.0000
  C   C925      1.0  0.24575  0.30480  0.38990  1.0000
  C   C926      1.0  0.25333  0.25950  0.41609  1.0000
  H   H741      1.0  0.35905  0.37979  0.36827  1.0000
  H   H742      1.0  0.32265  0.25647  0.96438  1.0000
  H   H743      1.0  0.39082  0.46832  0.65255  1.0000
  C   C927      1.0  0.31564  0.28201  0.39900  1.0000
  C   C928      1.0  0.31478  0.29568  0.37200  1.0000
  C   C929      1.0  0.31909  0.31118  0.38485  1.0000
  C   C930      1.0  0.32442  0.31318  0.42456  1.0000
  C   C931      1.0  0.32560  0.29961  0.45147  1.0000
  C   C932      1.0  0.32106  0.28411  0.43893  1.0000
  H   H744      1.0  0.26564  0.27061  0.58566  1.0000
  H   H745      1.0  0.29069  0.25644  0.49837  1.0000
  C   C933      1.0  0.32523  0.24871  0.26979  1.0000
  H   H746      1.0  0.39786  0.48613  0.59292  1.0000
  C   C934      1.0  0.30646  0.24724  0.10053  1.0000
  C   C935      1.0  0.29297  0.24713  0.56053  1.0000
  C   C936      1.0  0.47316  0.46229  0.59261  1.0000
  H   H747      1.0  0.30563  0.26020  0.09236  1.0000
  H   H748      1.0  0.37546  0.26824  0.00231  1.0000
  H   H749      1.0  0.31099  0.27971  0.00472  1.0000
  H   H750      1.0  0.47723  0.36938  0.94790  1.0000
  C   C937      1.0  0.31095  0.26016  0.32932  1.0000
  H   H751      1.0  0.32341  0.29218  0.59176  1.0000
  H   H752      1.0  0.48854  0.28674  0.12796  1.0000
  H   H753      1.0  0.28618  0.28168  0.43878  1.0000
  C   C938      1.0  0.25240  0.36871  0.65779  1.0000
  H   H754      1.0  0.31027  0.29461  0.34144  1.0000
  H   H755      1.0  0.31764  0.32183  0.36449  1.0000
  H   H756      1.0  0.32718  0.32536  0.43461  1.0000
  H   H757      1.0  0.32962  0.30122  0.48234  1.0000
  C   C939      1.0  0.29952  0.26788  0.30326  1.0000
  H   H758      1.0  0.35194  0.29669  0.56862  1.0000
  H   H759      1.0  0.47533  0.34397  0.75818  1.0000
  H   H760      1.0  0.26447  0.37232  0.66618  1.0000
  C   C940      1.0  0.27751  0.24927  0.37943  1.0000
  H   H761      1.0  0.28928  0.27506  0.31572  1.0000
  C   C941      1.0  0.29254  0.29474  0.53286  1.0000
  C   C942      1.0  0.34582  0.28584  0.55923  1.0000
  H   H762      1.0  0.40206  0.46897  0.52816  1.0000
  H   H763      1.0  0.25147  0.32216  0.43640  1.0000
  H   H764      1.0  0.32287  0.24772  0.63314  1.0000
  H   H765      1.0  0.29484  0.36768  0.64513  1.0000
  H   H766      1.0  0.33419  0.40141  0.63631  1.0000
  H   H767      1.0  0.25288  0.42383  0.52521  1.0000
  C   C943      1.0  0.30102  0.26617  0.26090  1.0000
  S   S138      1.0  0.27610  0.25290  0.80609  1.0000
  Fe  Fe68      1.0  0.25593  0.24602  0.76365  1.0000
  H   H768      1.0  0.38032  0.32930  0.61055  1.0000
  H   H769      1.0  0.46210  0.45558  0.59890  1.0000
  C   C944      1.0  0.33001  0.25770  0.53552  1.0000
  C   C945      1.0  0.41162  0.25374  0.95216  1.0000
  C   C946      1.0  0.46301  0.46490  0.42089  1.0000
  H   H770      1.0  0.43528  0.41944  0.28474  1.0000
  C   C947      1.0  0.43891  0.31741  0.88710  1.0000
  C   C948      1.0  0.43661  0.33150  0.86240  1.0000
  C   C949      1.0  0.42691  0.34473  0.87659  1.0000
  C   C950      1.0  0.41915  0.34372  0.91516  1.0000
  C   C951      1.0  0.42080  0.32926  0.93932  1.0000
  C   C952      1.0  0.43110  0.31632  0.92551  1.0000
  P   P31       1.0  0.41093  0.32736  0.98907  1.0000
  C   C953      1.0  0.39995  0.30846  0.99316  1.0000
  C   C954      1.0  0.42719  0.32799  0.02521  1.0000
  C   C955      1.0  0.43351  0.31345  0.04362  1.0000
  C   C956      1.0  0.44675  0.31393  0.06974  1.0000
  C   C957      1.0  0.45383  0.32890  0.07748  1.0000
  C   C958      1.0  0.44784  0.34339  0.05859  1.0000
  C   C959      1.0  0.43467  0.34294  0.03219  1.0000
  C   C960      1.0  0.39541  0.30039  0.95793  1.0000
  C   C961      1.0  0.38643  0.28607  0.96138  1.0000
  C   C962      1.0  0.38194  0.27966  0.99990  1.0000
  C   C963      1.0  0.38614  0.28778  0.03509  1.0000
  C   C964      1.0  0.39495  0.30224  0.03176  1.0000
  C   C965      1.0  0.39542  0.34332  0.99721  1.0000
  C   C966      1.0  0.38354  0.34651  0.96753  1.0000
  C   C967      1.0  0.37118  0.35855  0.97383  1.0000
  C   C968      1.0  0.37042  0.36728  0.01013  1.0000
  C   C969      1.0  0.38193  0.36385  0.04031  1.0000
  C   C970      1.0  0.39432  0.35183  0.03408  1.0000
  H   H771      1.0  0.44704  0.30747  0.87678  1.0000
  H   H772      1.0  0.44276  0.33234  0.83272  1.0000
  H   H773      1.0  0.42570  0.35588  0.85787  1.0000
  H   H774      1.0  0.41210  0.35428  0.92601  1.0000
  H   H775      1.0  0.43325  0.30549  0.94479  1.0000
  H   H776      1.0  0.42873  0.30161  0.03671  1.0000
  H   H777      1.0  0.45190  0.30257  0.08270  1.0000
  H   H778      1.0  0.46432  0.32924  0.09700  1.0000
  H   H779      1.0  0.45385  0.35485  0.06338  1.0000
  H   H780      1.0  0.43056  0.35416  0.01657  1.0000
  H   H781      1.0  0.39881  0.30501  0.92772  1.0000
  H   H782      1.0  0.38332  0.27961  0.93419  1.0000
  H   H783      1.0  0.31670  0.31921  0.76614  1.0000
  H   H784      1.0  0.24580  0.25872  0.86832  1.0000
  H   H785      1.0  0.39802  0.30848  0.05927  1.0000
  H   H786      1.0  0.38384  0.33965  0.93953  1.0000
  H   H787      1.0  0.36213  0.36104  0.95065  1.0000
  H   H788      1.0  0.36082  0.37658  0.01504  1.0000
  H   H789      1.0  0.38119  0.37044  0.06872  1.0000
  H   H790      1.0  0.40284  0.34908  0.05829  1.0000
  C   C971      1.0  0.41348  0.36584  0.49535  1.0000
  C   C972      1.0  0.42827  0.36917  0.51359  1.0000
  C   C973      1.0  0.43474  0.38482  0.50921  1.0000
  C   C974      1.0  0.42636  0.39715  0.48686  1.0000
  C   C975      1.0  0.41159  0.39392  0.46817  1.0000
  C   C976      1.0  0.40517  0.37814  0.47262  1.0000
  P   P32       1.0  0.40150  0.40994  0.43785  1.0000
  C   C977      1.0  0.40138  0.42883  0.46590  1.0000
  C   C978      1.0  0.41229  0.41268  0.38926  1.0000
  C   C979      1.0  0.40405  0.41985  0.35576  1.0000
  C   C980      1.0  0.41231  0.42227  0.31821  1.0000
  C   C981      1.0  0.42886  0.41761  0.31384  1.0000
  C   C982      1.0  0.43717  0.41053  0.34700  1.0000
  C   C983      1.0  0.42895  0.40806  0.38457  1.0000
  H   H791      1.0  0.48514  0.44207  0.37610  1.0000
  C   C984      1.0  0.31907  0.35688  0.64985  1.0000
  C   C985      1.0  0.39862  0.42839  0.50840  1.0000
  C   C986      1.0  0.40413  0.45848  0.46818  1.0000
  C   C987      1.0  0.40400  0.44402  0.44582  1.0000
  C   C988      1.0  0.38066  0.40443  0.42880  1.0000
  C   C989      1.0  0.36752  0.41109  0.45219  1.0000
  C   C990      1.0  0.44951  0.44996  0.47639  1.0000
  P   P33       1.0  0.30852  0.26225  0.38415  1.0000
  H   H792      1.0  0.37835  0.36182  0.62383  1.0000
  C   C991      1.0  0.36895  0.34845  0.67699  1.0000
  H   H793      1.0  0.40828  0.35385  0.49966  1.0000
  H   H794      1.0  0.43458  0.35976  0.53177  1.0000
  H   H795      1.0  0.44615  0.38744  0.52363  1.0000
  H   H796      1.0  0.43137  0.40928  0.48410  1.0000
  H   H797      1.0  0.39361  0.37535  0.45954  1.0000
  H   H798      1.0  0.39125  0.42364  0.35872  1.0000
  H   H799      1.0  0.40587  0.42775  0.29246  1.0000
  H   H800      1.0  0.26412  0.25412  0.92631  1.0000
  C   C992      1.0  0.24564  0.35461  0.67560  1.0000
  H   H801      1.0  0.43574  0.40253  0.40955  1.0000
  H   H802      1.0  0.38268  0.28276  0.06492  1.0000
  C   C993      1.0  0.37202  0.34384  0.71787  1.0000
  H   H803      1.0  0.38851  0.34531  0.76808  1.0000
  H   H804      1.0  0.40626  0.47017  0.45270  1.0000
  H   H805      1.0  0.40601  0.44477  0.41306  1.0000
  H   H806      1.0  0.36949  0.41956  0.47638  1.0000
  H   H807      1.0  0.38746  0.38772  0.38028  1.0000
  C   C994      1.0  0.32011  0.24613  0.41057  1.0000
  H   H808      1.0  0.25257  0.34722  0.69755  1.0000
  C   C995      1.0  0.34298  0.30949  0.66871  1.0000
  C   C996      1.0  0.47258  0.47946  0.59319  1.0000
  H   H809      1.0  0.28241  0.27883  0.03226  1.0000
  C   C997      1.0  0.30349  0.26177  0.71898  1.0000
  C   C998      1.0  0.27014  0.28040  0.56585  1.0000
  C   C999      1.0  0.35150  0.40665  0.44491  1.0000
  C   C1000     1.0  0.30779  0.37005  0.64576  1.0000
  C   C1001     1.0  0.39871  0.44285  0.53062  1.0000
  C   C1002     1.0  0.34117  0.32580  0.68160  1.0000
  Fe  Fe69      1.0  0.48446  0.32659  0.90902  1.0000
  H   H810      1.0  0.43534  0.49051  0.74783  1.0000
  C   C1003     1.0  0.35477  0.33591  0.60079  1.0000
  H   H811      1.0  0.33599  0.39173  0.41007  1.0000
  H   H812      1.0  0.39657  0.41682  0.52448  1.0000
  C   C1004     1.0  0.32967  0.28326  0.57221  1.0000
  C   C1005     1.0  0.48683  0.48836  0.58564  1.0000
  C   C1006     1.0  0.29172  0.27229  0.70105  1.0000
  C   C1007     1.0  0.29099  0.27388  0.65842  1.0000
  C   C1008     1.0  0.39451  0.36305  0.67403  1.0000
  C   C1009     1.0  0.30354  0.26931  0.99867  1.0000
  C   C1010     1.0  0.32158  0.26928  0.55998  1.0000
  S   S139      1.0  0.25665  0.24979  0.69519  1.0000
  C   C1011     1.0  0.34132  0.37586  0.64536  1.0000
  C   C1012     1.0  0.33596  0.35967  0.65020  1.0000
  C   C1013     1.0  0.26456  0.30400  0.52119  1.0000
  H   H813      1.0  0.30045  0.25432  0.86752  1.0000
  C   C1014     1.0  0.33717  0.24712  0.41320  1.0000
  H   H814      1.0  0.35029  0.30653  0.64174  1.0000
  H   H815      1.0  0.34343  0.25750  0.39941  1.0000
  H   H816      1.0  0.28286  0.27882  0.72038  1.0000
  H   H817      1.0  0.28158  0.28176  0.64505  1.0000
  H   H818      1.0  0.40836  0.36252  0.72916  1.0000
  H   H819      1.0  0.34140  0.41176  0.46320  1.0000
  C   C1015     1.0  0.37380  0.32548  0.54849  1.0000
  H   H820      1.0  0.46101  0.48577  0.60006  1.0000
  C   C1016     1.0  0.28703  0.28198  0.55900  1.0000
  H   H821      1.0  0.39686  0.44235  0.56359  1.0000
  C   C1017     1.0  0.33176  0.32919  0.71712  1.0000
  H   H822      1.0  0.35419  0.37848  0.64388  1.0000
  H   H823      1.0  0.30449  0.39624  0.63629  1.0000
  C   C1018     1.0  0.26748  0.31110  0.66710  1.0000
  H   H824      1.0  0.32377  0.24479  0.70851  1.0000
  C   C1019     1.0  0.39023  0.49107  0.61752  1.0000
  C   C1020     1.0  0.48408  0.40766  0.50083  1.0000
  C   C1021     1.0  0.31322  0.38610  0.64104  1.0000
  H   H825      1.0  0.33023  0.34169  0.72766  1.0000
  Fe  Fe70      1.0  0.49205  0.33078  0.00102  1.0000
  C   C1022     1.0  0.25502  0.30018  0.67804  1.0000
  P   P34       1.0  0.35047  0.34240  0.65252  1.0000
  H   H826      1.0  0.45003  0.40689  0.34359  1.0000
  H   H827      1.0  0.36668  0.27633  0.52474  1.0000
  H   H828      1.0  0.48593  0.36205  0.13670  1.0000
  H   H829      1.0  0.46234  0.47123  0.39142  1.0000
  C   C1023     1.0  0.46442  0.44798  0.49612  1.0000
  C   C1024     1.0  0.33526  0.29681  0.69067  1.0000
  C   C1025     1.0  0.31013  0.25622  0.97603  1.0000
  H   H830      1.0  0.25627  0.29202  0.70445  1.0000
  P   P35       1.0  0.30095  0.26606  0.57848  1.0000
  C   C1026     1.0  0.37051  0.33009  0.58888  1.0000
  C   C1027     1.0  0.37695  0.48743  0.68385  1.0000
  H   H831      1.0  0.41871  0.26338  0.89256  1.0000
  C   C1028     1.0  0.36135  0.32637  0.51991  1.0000
  C   C1029     1.0  0.43396  0.49255  0.71528  1.0000
  C   C1030     1.0  0.47802  0.46312  0.44078  1.0000
  H   H832      1.0  0.32995  0.34066  0.58049  1.0000
  Fe  Fe71      1.0  0.26333  0.24933  0.20850  1.0000
  C   C1031     1.0  0.39743  0.35849  0.71466  1.0000
  C   C1032     1.0  0.41539  0.25330  0.99366  1.0000
  C   C1033     1.0  0.38621  0.34884  0.73654  1.0000
  H   H833      1.0  0.25354  0.27357  0.11749  1.0000
  C   C1034     1.0  0.26269  0.27113  0.43472  1.0000
  C   C1035     1.0  0.32997  0.38900  0.64104  1.0000
  H   H834      1.0  0.29203  0.27201  0.24093  1.0000
  C   C1036     1.0  0.34224  0.33636  0.57214  1.0000
  H   H835      1.0  0.32136  0.27389  0.46065  1.0000
  H   H836      1.0  0.40315  0.37064  0.65708  1.0000
  C   C1037     1.0  0.36144  0.38860  0.39150  1.0000
  H   H837      1.0  0.28562  0.31555  0.49399  1.0000
  H   H838      1.0  0.36353  0.33646  0.73558  1.0000
  C   C1038     1.0  0.32410  0.31650  0.73902  1.0000
  H   H839      1.0  0.33654  0.28424  0.68050  1.0000
  C   C1039     1.0  0.31421  0.25477  0.65181  1.0000
  C   C1040     1.0  0.49068  0.39570  0.78353  1.0000
  C   C1041     1.0  0.30212  0.26501  0.63352  1.0000
  S   S140      1.0  0.28375  0.25510  0.16140  1.0000
  C   C1042     1.0  0.34554  0.33165  0.53187  1.0000
  H   H840      1.0  0.48067  0.40458  0.78843  1.0000
  C   C1043     1.0  0.48791  0.45378  0.58404  1.0000
  H   H841      1.0  0.48729  0.43315  0.30496  1.0000
  S   S141      1.0  0.49152  0.34744  0.05790  1.0000
  S   S142      1.0  0.39407  0.24427  0.93317  1.0000
  H   H842      1.0  0.24898  0.38873  0.61397  1.0000
  C   C1044     1.0  0.35410  0.27437  0.53451  1.0000
  H   H843      1.0  0.33278  0.24422  0.33124  1.0000
  H   H844      1.0  0.49291  0.37725  0.00796  1.0000
  C   C1045     1.0  0.24680  0.24671  0.88302  1.0000
  H   H845      1.0  0.32418  0.24664  0.52646  1.0000
  C   C1046     1.0  0.28858  0.24622  0.51945  1.0000
  C   C1047     1.0  0.49058  0.45019  0.35316  1.0000
  H   H846      1.0  0.48829  0.44042  0.58368  1.0000
  H   H847      1.0  0.49011  0.45245  0.49388  1.0000
  H   H848      1.0  0.49114  0.36646  0.88053  1.0000
  C   C1048     1.0  0.49179  0.44505  0.31272  1.0000
  H   H849      1.0  0.35280  0.25126  0.50446  1.0000
  C   C1049     1.0  0.49012  0.37198  0.94434  1.0000
  C   C1050     1.0  0.32386  0.25053  0.31221  1.0000
  H   H850      1.0  0.31468  0.25490  0.21133  1.0000
  C   C1051     1.0  0.24516  0.27393  0.09222  1.0000
  H   H851      1.0  0.24595  0.29011  0.55248  1.0000
  H   H852      1.0  0.40777  0.24654  0.01525  1.0000
  H   H853      1.0  0.49307  0.31564  0.10537  1.0000
  C   C1052     1.0  0.25730  0.24395  0.91572  1.0000
  C   C1053     1.0  0.26678  0.67898  0.88580  1.0000
  C   C1054     1.0  0.38268  0.55138  0.78053  1.0000
  C   C1055     1.0  0.26627  0.62380  0.45388  1.0000
  S   S143      1.0  0.26896  0.72614  0.90179  1.0000
  Fe  Fe72      1.0  0.26486  0.72508  0.83406  1.0000
  S   S144      1.0  0.27963  0.70727  0.79403  1.0000
  Fe  Fe73      1.0  0.28227  0.63010  0.57694  1.0000
  S   S145      1.0  0.25693  0.62471  0.60057  1.0000
  S   S146      1.0  0.28854  0.64598  0.52073  1.0000
  Fe  Fe74      1.0  0.29931  0.61024  0.64582  1.0000
  S   S147      1.0  0.27481  0.60378  0.67501  1.0000
  S   S148      1.0  0.32231  0.60005  0.67880  1.0000
  Fe  Fe75      1.0  0.26636  0.59867  0.61159  1.0000
  S   S149      1.0  0.25453  0.57409  0.59701  1.0000
  Fe  Fe76      1.0  0.26707  0.63022  0.66212  1.0000
  S   S150      1.0  0.25089  0.64613  0.70439  1.0000
  S   S151      1.0  0.29134  0.60361  0.58311  1.0000
  S   S152      1.0  0.29190  0.63709  0.63777  1.0000
  Fe  Fe77      1.0  0.47507  0.67815  0.05069  1.0000
  H   H854      1.0  0.25062  0.66088  0.61770  1.0000
  S   S153      1.0  0.45126  0.69355  0.04320  1.0000
  C   C1056     1.0  0.25191  0.73706  0.73036  1.0000
  S   S154      1.0  0.47331  0.65047  0.05025  1.0000
  Fe  Fe78      1.0  0.42214  0.58512  0.68431  1.0000
  S   S155      1.0  0.42117  0.57296  0.74667  1.0000
  S   S156      1.0  0.40062  0.59806  0.65082  1.0000
  Fe  Fe79      1.0  0.45928  0.57761  0.67418  1.0000
  S   S157      1.0  0.46035  0.56535  0.73682  1.0000
  H   H855      1.0  0.43445  0.66692  0.97551  1.0000
  Fe  Fe80      1.0  0.43746  0.55298  0.71859  1.0000
  S   S158      1.0  0.43502  0.52542  0.73318  1.0000
  Fe  Fe81      1.0  0.44431  0.58639  0.75977  1.0000
  S   S159      1.0  0.44506  0.59870  0.82325  1.0000
  S   S160      1.0  0.43713  0.56427  0.65536  1.0000
  S   S161      1.0  0.44453  0.59955  0.69813  1.0000
  C   C1057     1.0  0.30189  0.74199  0.25136  1.0000
  H   H856      1.0  0.24702  0.63987  0.43290  1.0000
  H   H857      1.0  0.32399  0.66960  0.50067  1.0000
  C   C1058     1.0  0.43354  0.50877  0.69912  1.0000
  C   C1059     1.0  0.38881  0.65931  0.88963  1.0000
  C   C1060     1.0  0.43176  0.51119  0.65692  1.0000
  H   H858      1.0  0.32194  0.57190  0.62216  1.0000
  H   H859      1.0  0.43146  0.52356  0.64394  1.0000
  C   C1061     1.0  0.24821  0.67513  0.74646  1.0000
  C   C1062     1.0  0.46351  0.62261  0.92041  1.0000
  C   C1063     1.0  0.45333  0.61403  0.89437  1.0000
  C   C1064     1.0  0.45853  0.60983  0.85439  1.0000
  H   H860      1.0  0.44031  0.55115  0.56688  1.0000
  C   C1065     1.0  0.32235  0.66272  0.60357  1.0000
  H   H861      1.0  0.45931  0.62550  0.95109  1.0000
  H   H862      1.0  0.44137  0.61042  0.90554  1.0000
  C   C1066     1.0  0.37396  0.67491  0.23250  1.0000
  C   C1067     1.0  0.39034  0.53773  0.71759  1.0000
  C   C1068     1.0  0.32707  0.72890  0.65662  1.0000
  C   C1069     1.0  0.34404  0.59964  0.66984  1.0000
  C   C1070     1.0  0.35424  0.59240  0.69986  1.0000
  C   C1071     1.0  0.37148  0.59155  0.69435  1.0000
  C   C1072     1.0  0.37885  0.59809  0.65874  1.0000
  C   C1073     1.0  0.36866  0.60534  0.62867  1.0000
  C   C1074     1.0  0.35140  0.60607  0.63404  1.0000
  H   H863      1.0  0.34874  0.58749  0.72778  1.0000
  H   H864      1.0  0.37909  0.58606  0.71791  1.0000
  H   H865      1.0  0.37417  0.61048  0.60100  1.0000
  H   H866      1.0  0.34381  0.61167  0.61056  1.0000
  C   C1075     1.0  0.44118  0.73148  0.12138  1.0000
  C   C1076     1.0  0.44908  0.71786  0.10232  1.0000
  C   C1077     1.0  0.44203  0.71075  0.06876  1.0000
  C   C1078     1.0  0.42695  0.71734  0.05490  1.0000
  H   H867      1.0  0.46051  0.71281  0.11377  1.0000
  H   H868      1.0  0.42117  0.71183  0.02955  1.0000
  C   C1079     1.0  0.24801  0.67370  0.48926  1.0000
  C   C1080     1.0  0.27120  0.69091  0.76760  1.0000
  C   C1081     1.0  0.28184  0.67974  0.74724  1.0000
  C   C1082     1.0  0.27576  0.66619  0.72715  1.0000
  C   C1083     1.0  0.25892  0.66366  0.72717  1.0000
  C   C1084     1.0  0.42426  0.63053  0.75910  1.0000
  H   H869      1.0  0.29492  0.68141  0.74761  1.0000
  H   H870      1.0  0.28414  0.65752  0.71241  1.0000
  C   C1085     1.0  0.25358  0.68279  0.45480  1.0000
  C   C1086     1.0  0.25861  0.66262  0.51033  1.0000
  C   C1087     1.0  0.27495  0.66056  0.49717  1.0000
  C   C1088     1.0  0.28063  0.66999  0.46343  1.0000
  C   C1089     1.0  0.27003  0.68108  0.44235  1.0000
  H   H871      1.0  0.29326  0.66851  0.45308  1.0000
  H   H872      1.0  0.27449  0.68800  0.41591  1.0000
  P   P36       1.0  0.37977  0.70217  0.18044  1.0000
  C   C1090     1.0  0.40475  0.66422  0.89719  1.0000
  C   C1091     1.0  0.25431  0.68868  0.76664  1.0000
  H   H873      1.0  0.43513  0.65599  0.04619  1.0000
  C   C1092     1.0  0.43935  0.53105  0.52538  1.0000
  H   H874      1.0  0.24832  0.65358  0.82233  1.0000
  C   C1093     1.0  0.28743  0.74300  0.51973  1.0000
  H   H875      1.0  0.35213  0.55579  0.71261  1.0000
  H   H876      1.0  0.46694  0.49893  0.52041  1.0000
  H   H877      1.0  0.43386  0.67494  0.72245  1.0000
  C   C1094     1.0  0.34299  0.55597  0.63362  1.0000
  C   C1095     1.0  0.44693  0.51637  0.51233  1.0000
  H   H878      1.0  0.38398  0.66859  0.06310  1.0000
  H   H879      1.0  0.47035  0.52669  0.43742  1.0000
  H   H880      1.0  0.48536  0.72028  0.06895  1.0000
  C   C1096     1.0  0.37525  0.54260  0.70076  1.0000
  C   C1097     1.0  0.29748  0.71448  0.67940  1.0000
  C   C1098     1.0  0.43012  0.49756  0.63154  1.0000
  C   C1099     1.0  0.31536  0.54649  0.62859  1.0000
  H   H881      1.0  0.40997  0.65656  0.09015  1.0000
  H   H882      1.0  0.30244  0.54917  0.62396  1.0000
  C   C1100     1.0  0.48331  0.56056  0.34513  1.0000
  C   C1101     1.0  0.37170  0.50398  0.68282  1.0000
  H   H883      1.0  0.38709  0.67302  0.23380  1.0000
  H   H884      1.0  0.25407  0.65543  0.53619  1.0000
  H   H885      1.0  0.34414  0.69955  0.18955  1.0000
  C   C1102     1.0  0.25880  0.60253  0.50307  1.0000
  H   H886      1.0  0.40577  0.66510  0.71913  1.0000
  H   H887      1.0  0.40215  0.68945  0.11500  1.0000
  C   C1103     1.0  0.25371  0.73342  0.07383  1.0000
  P   P37       1.0  0.29197  0.70358  0.60018  1.0000
  H   H888      1.0  0.36443  0.71428  0.85451  1.0000
  H   H889      1.0  0.27569  0.73622  0.03674  1.0000
  C   C1104     1.0  0.37867  0.72207  0.20443  1.0000
  C   C1105     1.0  0.30565  0.68688  0.58469  1.0000
  H   H890      1.0  0.45749  0.71368  0.94973  1.0000
  H   H891      1.0  0.27587  0.70774  0.01158  1.0000
  H   H892      1.0  0.26232  0.59232  0.52325  1.0000
  C   C1106     1.0  0.38401  0.55481  0.53808  1.0000
  Fe  Fe82      1.0  0.24558  0.71635  0.38193  1.0000
  C   C1107     1.0  0.41567  0.63991  0.86269  1.0000
  H   H893      1.0  0.31250  0.52039  0.63689  1.0000
  C   C1108     1.0  0.39981  0.63543  0.85404  1.0000
  C   C1109     1.0  0.45051  0.70756  0.92721  1.0000
  H   H894      1.0  0.25402  0.68887  0.03442  1.0000
  H   H895      1.0  0.49283  0.72613  0.93942  1.0000
  C   C1110     1.0  0.49192  0.63613  0.75379  1.0000
  H   H896      1.0  0.39931  0.53049  0.70013  1.0000
  H   H897      1.0  0.30808  0.67709  0.64650  1.0000
  Fe  Fe83      1.0  0.26667  0.73230  0.31348  1.0000
  C   C1111     1.0  0.42535  0.68499  0.14258  1.0000
  C   C1112     1.0  0.36699  0.68780  0.20863  1.0000
  H   H898      1.0  0.47027  0.49641  0.43621  1.0000
  C   C1113     1.0  0.47702  0.50684  0.67127  1.0000
  C   C1114     1.0  0.36233  0.69381  0.11131  1.0000
  C   C1115     1.0  0.35680  0.69656  0.07148  1.0000
  H   H899      1.0  0.27551  0.66273  0.83854  1.0000
  H   H900      1.0  0.27275  0.69815  0.52833  1.0000
  S   S162      1.0  0.24482  0.71601  0.31296  1.0000
  C   C1116     1.0  0.27692  0.71067  0.52638  1.0000
  H   H901      1.0  0.46054  0.71732  0.70822  1.0000
  H   H902      1.0  0.48204  0.72734  0.15452  1.0000
  C   C1117     1.0  0.42688  0.69117  0.21427  1.0000
  C   C1118     1.0  0.25305  0.68536  0.90694  1.0000
  C   C1119     1.0  0.30295  0.71419  0.63834  1.0000
  H   H903      1.0  0.35807  0.68323  0.12863  1.0000
  H   H904      1.0  0.47377  0.57210  0.49248  1.0000
  H   H905      1.0  0.40558  0.53812  0.77030  1.0000
  C   C1120     1.0  0.48423  0.62329  0.86666  1.0000
  H   H906      1.0  0.27885  0.68324  0.89221  1.0000
  C   C1121     1.0  0.46179  0.65868  0.83371  1.0000
  C   C1122     1.0  0.44399  0.65205  0.74805  1.0000
  C   C1123     1.0  0.37313  0.70474  0.12829  1.0000
  C   C1124     1.0  0.49113  0.72672  0.04334  1.0000
  H   H907      1.0  0.32665  0.68088  0.23033  1.0000
  C   C1125     1.0  0.37903  0.72331  0.94740  1.0000
  C   C1126     1.0  0.29632  0.73576  0.12420  1.0000
  C   C1127     1.0  0.48309  0.61856  0.68578  1.0000
  C   C1128     1.0  0.48015  0.67272  0.87716  1.0000
  C   C1129     1.0  0.47552  0.51210  0.71158  1.0000
  C   C1130     1.0  0.37597  0.54616  0.56969  1.0000
  S   S163      1.0  0.28691  0.72751  0.26558  1.0000
  C   C1131     1.0  0.24990  0.62925  0.45210  1.0000
  H   H908      1.0  0.45025  0.70015  0.82553  1.0000
  C   C1132     1.0  0.44024  0.63601  0.76120  1.0000
  C   C1133     1.0  0.46786  0.51877  0.56318  1.0000
  H   H909      1.0  0.34813  0.68840  0.05886  1.0000
  H   H910      1.0  0.46512  0.57406  0.56574  1.0000
  H   H911      1.0  0.44736  0.68227  0.17718  1.0000
  C   C1134     1.0  0.27280  0.69556  0.61880  1.0000
  C   C1135     1.0  0.26138  0.70581  0.63954  1.0000
  H   H912      1.0  0.47965  0.61174  0.65944  1.0000
  H   H913      1.0  0.47297  0.50107  0.17811  1.0000
  C   C1136     1.0  0.25354  0.67347  0.62351  1.0000
  C   C1137     1.0  0.26864  0.67942  0.61017  1.0000
  C   C1138     1.0  0.40957  0.66149  0.05910  1.0000
  H   H914      1.0  0.38790  0.72593  0.11576  1.0000
  C   C1139     1.0  0.40104  0.69519  0.17949  1.0000
  C   C1140     1.0  0.36224  0.71003  0.04814  1.0000
  H   H915      1.0  0.42159  0.61799  0.76856  1.0000
  H   H916      1.0  0.38892  0.51529  0.59070  1.0000
  H   H917      1.0  0.39795  0.62430  0.83734  1.0000
  H   H918      1.0  0.26413  0.71847  0.64526  1.0000
  C   C1141     1.0  0.26490  0.66740  0.85566  1.0000
  H   H919      1.0  0.40786  0.73623  0.06177  1.0000
  C   C1142     1.0  0.47907  0.54603  0.32662  1.0000
  H   H920      1.0  0.27696  0.67135  0.59309  1.0000
  H   H921      1.0  0.43133  0.68109  0.11432  1.0000
  H   H922      1.0  0.40263  0.72924  0.18167  1.0000
  H   H923      1.0  0.33459  0.65009  0.55385  1.0000
  H   H924      1.0  0.35131  0.56612  0.63300  1.0000
  C   C1143     1.0  0.46659  0.66298  0.87267  1.0000
  S   S164      1.0  0.48416  0.57806  0.63994  1.0000
  C   C1144     1.0  0.32088  0.67157  0.53258  1.0000
  H   H925      1.0  0.37775  0.73097  0.04630  1.0000
  H   H926      1.0  0.46245  0.63539  0.68186  1.0000
  H   H927      1.0  0.47063  0.53786  0.34217  1.0000
  H   H928      1.0  0.47830  0.56366  0.37509  1.0000
  C   C1145     1.0  0.44610  0.53972  0.55683  1.0000
  C   C1146     1.0  0.24644  0.69967  0.65374  1.0000
  S   S165      1.0  0.26865  0.73059  0.38199  1.0000
  C   C1147     1.0  0.27785  0.73678  0.48938  1.0000
  P   P38       1.0  0.37033  0.53595  0.65034  1.0000
  H   H929      1.0  0.25553  0.72985  0.75707  1.0000
  H   H930      1.0  0.44169  0.50962  0.48803  1.0000
  C   C1148     1.0  0.32635  0.55930  0.62739  1.0000
  C   C1149     1.0  0.42333  0.66744  0.99422  1.0000
  H   H931      1.0  0.46908  0.50470  0.73442  1.0000
  H   H932      1.0  0.42604  0.63216  0.85293  1.0000
  H   H933      1.0  0.43235  0.69994  0.97126  1.0000
  H   H934      1.0  0.43398  0.69191  0.24165  1.0000
  C   C1150     1.0  0.31174  0.67579  0.61463  1.0000
  C   C1151     1.0  0.47037  0.66447  0.79881  1.0000
  H   H935      1.0  0.36939  0.65441  0.27380  1.0000
  C   C1152     1.0  0.43140  0.66260  0.73329  1.0000
  H   H936      1.0  0.35894  0.56366  0.78183  1.0000
  C   C1153     1.0  0.32104  0.53030  0.63600  1.0000
  H   H937      1.0  0.45170  0.65053  0.83113  1.0000
  C   C1154     1.0  0.38512  0.50765  0.61647  1.0000
  C   C1155     1.0  0.33986  0.67911  0.23065  1.0000
  H   H938      1.0  0.47826  0.61163  0.81011  1.0000
  C   C1156     1.0  0.33770  0.52692  0.64252  1.0000
  C   C1157     1.0  0.42373  0.66107  0.03428  1.0000
  C   C1158     1.0  0.31272  0.73865  0.21833  1.0000
  H   H939      1.0  0.37751  0.73253  0.97075  1.0000
  H   H940      1.0  0.41244  0.57331  0.59356  1.0000
  C   C1159     1.0  0.46031  0.53365  0.57565  1.0000
  C   C1160     1.0  0.47917  0.62717  0.90694  1.0000
  H   H941      1.0  0.26510  0.71584  0.46918  1.0000
  C   C1161     1.0  0.48849  0.56541  0.10869  1.0000
  C   C1162     1.0  0.39179  0.73275  0.19950  1.0000
  H   H942      1.0  0.27565  0.63035  0.43674  1.0000
  H   H943      1.0  0.36561  0.53885  0.56266  1.0000
  H   H944      1.0  0.37406  0.64137  0.86160  1.0000
  C   C1163     1.0  0.36475  0.72728  0.22741  1.0000
  H   H945      1.0  0.47725  0.53019  0.19363  1.0000
  H   H946      1.0  0.35759  0.71254  0.01779  1.0000
  C   C1164     1.0  0.36766  0.55630  0.76404  1.0000
  H   H947      1.0  0.30578  0.69292  0.51963  1.0000
  H   H948      1.0  0.29022  0.72499  0.13633  1.0000
  H   H949      1.0  0.33197  0.73559  0.96565  1.0000
  C   C1165     1.0  0.41026  0.69592  0.21503  1.0000
  C   C1166     1.0  0.47403  0.61470  0.84063  1.0000
  C   C1167     1.0  0.26642  0.71184  0.03315  1.0000
  C   C1168     1.0  0.36389  0.55187  0.72442  1.0000
  H   H950      1.0  0.37825  0.66633  0.90105  1.0000
  C   C1169     1.0  0.43624  0.69964  0.93950  1.0000
  C   C1170     1.0  0.37912  0.71771  0.10387  1.0000
  C   C1171     1.0  0.31035  0.68473  0.54353  1.0000
  C   C1172     1.0  0.41539  0.65707  0.73131  1.0000
  H   H951      1.0  0.38567  0.55489  0.81112  1.0000
  H   H952      1.0  0.39956  0.63655  0.74144  1.0000
  C   C1173     1.0  0.40248  0.56542  0.58682  1.0000
  C   C1174     1.0  0.47738  0.68734  0.64828  1.0000
  C   C1175     1.0  0.45562  0.70767  0.88615  1.0000
  C   C1176     1.0  0.34879  0.53977  0.64158  1.0000
  C   C1177     1.0  0.32682  0.66054  0.56253  1.0000
  H   H953      1.0  0.47691  0.58903  0.09455  1.0000
  H   H954      1.0  0.47875  0.59909  0.16504  1.0000
  C   C1178     1.0  0.38117  0.54707  0.61018  1.0000
  H   H955      1.0  0.24597  0.69722  0.78199  1.0000
  C   C1179     1.0  0.39447  0.55680  0.61860  1.0000
  H   H956      1.0  0.46023  0.65825  0.89971  1.0000
  C   C1180     1.0  0.27073  0.61049  0.47942  1.0000
  H   H957      1.0  0.42856  0.49963  0.59907  1.0000
  H   H958      1.0  0.28351  0.60667  0.48178  1.0000
  C   C1181     1.0  0.41185  0.64100  0.74396  1.0000
  H   H959      1.0  0.37979  0.55426  0.50706  1.0000
  C   C1182     1.0  0.44634  0.69996  0.85734  1.0000
  C   C1183     1.0  0.42711  0.69146  0.91105  1.0000
  C   C1184     1.0  0.43204  0.69199  0.86962  1.0000
  P   P39       1.0  0.40810  0.68224  0.92672  1.0000
  C   C1185     1.0  0.39262  0.69850  0.92136  1.0000
  C   C1186     1.0  0.41814  0.65418  0.88444  1.0000
  C   C1187     1.0  0.39059  0.71035  0.95178  1.0000
  H   H960      1.0  0.36481  0.50889  0.70875  1.0000
  C   C1188     1.0  0.46121  0.51030  0.53093  1.0000
  C   C1189     1.0  0.37169  0.71308  0.88176  1.0000
  C   C1190     1.0  0.38340  0.70022  0.88577  1.0000
  C   C1191     1.0  0.40878  0.67457  0.97892  1.0000
  C   C1192     1.0  0.39453  0.67475  0.00386  1.0000
  C   C1193     1.0  0.39497  0.66831  0.04388  1.0000
  C   C1194     1.0  0.31805  0.72107  0.62747  1.0000
  C   C1195     1.0  0.38638  0.64507  0.86767  1.0000
  H   H961      1.0  0.39848  0.55812  0.64959  1.0000
  C   C1196     1.0  0.24928  0.66229  0.84637  1.0000
  H   H962      1.0  0.42486  0.68628  0.84684  1.0000
  H   H963      1.0  0.43049  0.65719  0.89186  1.0000
  H   H964      1.0  0.39804  0.70971  0.97875  1.0000
  C   C1197     1.0  0.40875  0.68974  0.14317  1.0000
  C   C1198     1.0  0.39726  0.56446  0.54668  1.0000
  H   H965      1.0  0.25349  0.73091  0.16787  1.0000
  H   H966      1.0  0.38531  0.69178  0.86092  1.0000
  H   H967      1.0  0.38305  0.67977  0.99242  1.0000
  C   C1199     1.0  0.39394  0.54199  0.75743  1.0000
  C   C1200     1.0  0.48154  0.50253  0.42901  1.0000
  H   H968      1.0  0.46671  0.71380  0.87669  1.0000
  H   H969      1.0  0.31922  0.72272  0.11169  1.0000
  C   C1201     1.0  0.37578  0.51424  0.64915  1.0000
  H   H970      1.0  0.40331  0.57148  0.52247  1.0000
  C   C1202     1.0  0.34691  0.66640  0.25447  1.0000
  H   H971      1.0  0.32676  0.65399  0.62668  1.0000
  H   H972      1.0  0.40464  0.70037  0.24317  1.0000
  C   C1203     1.0  0.36394  0.66426  0.25525  1.0000
  C   C1204     1.0  0.46248  0.69156  0.72531  1.0000
  C   C1205     1.0  0.48398  0.67432  0.80358  1.0000
  C   C1206     1.0  0.43443  0.68573  0.17803  1.0000
  H   H973      1.0  0.45665  0.69336  0.75497  1.0000
  H   H974      1.0  0.35433  0.71962  0.23203  1.0000
  C   C1207     1.0  0.47796  0.57425  0.55706  1.0000
  C   C1208     1.0  0.28663  0.71679  0.55702  1.0000
  H   H975      1.0  0.44975  0.62760  0.77235  1.0000
  P   P40       1.0  0.46501  0.65835  0.74828  1.0000
  C   C1209     1.0  0.47779  0.64099  0.73246  1.0000
  H   H976      1.0  0.24866  0.57138  0.37524  1.0000
  C   C1210     1.0  0.29162  0.73316  0.55381  1.0000
  H   H977      1.0  0.28648  0.70840  0.68959  1.0000
  H   H978      1.0  0.42824  0.53574  0.51123  1.0000
  H   H979      1.0  0.44671  0.73685  0.14738  1.0000
  H   H980      1.0  0.46528  0.54061  0.59999  1.0000
  C   C1211     1.0  0.46773  0.67573  0.71341  1.0000
  C   C1212     1.0  0.46463  0.70514  0.69887  1.0000
  C   C1213     1.0  0.49058  0.53202  0.65191  1.0000
  H   H981      1.0  0.32289  0.72025  0.59641  1.0000
  C   C1214     1.0  0.37358  0.72044  0.06416  1.0000
  H   H982      1.0  0.47964  0.71204  0.99940  1.0000
  H   H983      1.0  0.29861  0.73848  0.57738  1.0000
  H   H984      1.0  0.24704  0.55023  0.67926  1.0000
  C   C1215     1.0  0.41921  0.73108  0.07350  1.0000
  C   C1216     1.0  0.25414  0.70120  0.04613  1.0000
  C   C1217     1.0  0.42625  0.73824  0.10696  1.0000
  C   C1218     1.0  0.47525  0.67373  0.67465  1.0000
  H   H985      1.0  0.34182  0.51433  0.64828  1.0000
  C   C1219     1.0  0.47340  0.63202  0.69853  1.0000
  H   H986      1.0  0.31194  0.72720  0.20254  1.0000
  C   C1220     1.0  0.36944  0.72457  0.91268  1.0000
  H   H987      1.0  0.48412  0.67547  0.90754  1.0000
  H   H988      1.0  0.48993  0.61945  0.23573  1.0000
  C   C1221     1.0  0.48149  0.51974  0.42964  1.0000
  C   C1222     1.0  0.27260  0.72063  0.49270  1.0000
  H   H989      1.0  0.47984  0.53150  0.75308  1.0000
  C   C1223     1.0  0.47208  0.70303  0.66036  1.0000
  C   C1224     1.0  0.48292  0.57316  0.51548  1.0000
  C   C1225     1.0  0.30657  0.72230  0.70848  1.0000
  H   H990      1.0  0.47376  0.71355  0.63985  1.0000
  H   H991      1.0  0.48611  0.70179  0.19517  1.0000
  H   H992      1.0  0.32830  0.73552  0.71987  1.0000
  H   H993      1.0  0.30232  0.72244  0.74012  1.0000
  H   H994      1.0  0.30580  0.74150  0.92999  1.0000
  C   C1226     1.0  0.48320  0.58674  0.15794  1.0000
  H   H995      1.0  0.47957  0.66177  0.66453  1.0000
  C   C1227     1.0  0.34983  0.68971  0.20770  1.0000
  H   H996      1.0  0.33916  0.65826  0.27249  1.0000
  H   H997      1.0  0.25448  0.69433  0.93038  1.0000
  C   C1228     1.0  0.48906  0.53721  0.69225  1.0000
  C   C1229     1.0  0.48153  0.52725  0.72209  1.0000
  C   C1230     1.0  0.48882  0.67843  0.84263  1.0000
  C   C1231     1.0  0.26627  0.72792  0.04722  1.0000
  H   H998      1.0  0.48814  0.58329  0.90641  1.0000
  C   C1232     1.0  0.48963  0.57591  0.58714  1.0000
  H   H999      1.0  0.36043  0.73461  0.90963  1.0000
  C   C1233     1.0  0.31262  0.73448  0.11043  1.0000
  C   C1234     1.0  0.48786  0.72198  0.00373  1.0000
  C   C1235     1.0  0.48477  0.51667  0.64114  1.0000
  P   P41       1.0  0.48591  0.51061  0.58833  1.0000
  C   C1236     1.0  0.48224  0.58109  0.11815  1.0000
  H   H1000     1.0  0.33866  0.73424  0.64794  1.0000
  H   H1001     1.0  0.49095  0.58149  0.21879  1.0000
  C   C1237     1.0  0.24642  0.74220  0.17304  1.0000
  C   C1238     1.0  0.49018  0.57665  0.18849  1.0000
  H   H1002     1.0  0.48237  0.53068  0.27471  1.0000
  H   H1003     1.0  0.49107  0.67853  0.77714  1.0000
  H   H1004     1.0  0.47175  0.49531  0.66395  1.0000
  H   H1005     1.0  0.24421  0.54168  0.57917  1.0000
  C   C1239     1.0  0.48495  0.50487  0.18684  1.0000
  C   C1240     1.0  0.32127  0.72960  0.69710  1.0000
  C   C1241     1.0  0.48743  0.52134  0.19562  1.0000
  H   H1006     1.0  0.48318  0.68570  0.61842  1.0000
  C   C1242     1.0  0.48582  0.54199  0.28825  1.0000
  H   H1007     1.0  0.48798  0.56116  0.07764  1.0000
  S   S166      1.0  0.49292  0.63765  0.93872  1.0000
  Fe  Fe84      1.0  0.49271  0.65121  0.00037  1.0000
  S   S167      1.0  0.49252  0.63286  0.15360  1.0000
  H   H1008     1.0  0.49242  0.52943  0.51148  1.0000
  C   C1243     1.0  0.36395  0.74286  0.24458  1.0000
  H   H1009     1.0  0.26184  0.89721  0.61086  1.0000
  H   H1010     1.0  0.26601  0.86279  0.47741  1.0000
  H   H1011     1.0  0.29897  0.85343  0.85321  1.0000
  C   C1244     1.0  0.29098  0.82066  0.36831  1.0000
  H   H1012     1.0  0.28307  0.78415  0.25581  1.0000
  S   S168      1.0  0.28537  0.77173  0.92334  1.0000
  Fe  Fe85      1.0  0.37567  0.80251  0.09896  1.0000
  S   S169      1.0  0.38265  0.78967  0.15785  1.0000
  S   S170      1.0  0.37748  0.83017  0.08326  1.0000
  Fe  Fe86      1.0  0.36203  0.77057  0.06513  1.0000
  S   S171      1.0  0.36778  0.75604  0.12282  1.0000
  S   S172      1.0  0.35214  0.75529  0.01415  1.0000
  Fe  Fe87      1.0  0.35792  0.77814  0.15610  1.0000
  S   S173      1.0  0.34077  0.77931  0.21218  1.0000
  Fe  Fe88      1.0  0.39199  0.76852  0.11882  1.0000
  H   H1013     1.0  0.26816  0.97079  0.56137  1.0000
  S   S174      1.0  0.35046  0.79186  0.09877  1.0000
  S   S175      1.0  0.38670  0.78217  0.05974  1.0000
  Fe  Fe89      1.0  0.30614  0.96926  0.55605  1.0000
  S   S176      1.0  0.29576  0.94536  0.58384  1.0000
  C   C1245     1.0  0.26151  0.92021  0.52279  1.0000
  S   S177      1.0  0.33305  0.97157  0.53910  1.0000
  Fe  Fe90      1.0  0.40774  0.91781  0.17787  1.0000
  S   S178      1.0  0.41670  0.92856  0.23585  1.0000
  S   S179      1.0  0.40738  0.88943  0.18132  1.0000
  Fe  Fe91      1.0  0.40296  0.95257  0.13962  1.0000
  S   S180      1.0  0.41095  0.96524  0.19606  1.0000
  S   S181      1.0  0.39413  0.96515  0.08002  1.0000
  Fe  Fe92      1.0  0.43137  0.94570  0.19586  1.0000
  S   S182      1.0  0.45726  0.95340  0.21099  1.0000
  Fe  Fe93      1.0  0.39549  0.94709  0.23244  1.0000
  S   S183      1.0  0.37961  0.94894  0.29268  1.0000
  S   S184      1.0  0.42405  0.93388  0.13805  1.0000
  S   S185      1.0  0.38603  0.93559  0.17574  1.0000
  H   H1014     1.0  0.38548  0.97823  0.00080  1.0000
  C   C1246     1.0  0.47657  0.94593  0.19134  1.0000
  H   H1015     1.0  0.25482  0.88073  0.86443  1.0000
  C   C1247     1.0  0.47806  0.93233  0.16599  1.0000
  C   C1248     1.0  0.48192  0.89033  0.07321  1.0000
  H   H1016     1.0  0.46720  0.92613  0.15742  1.0000
  C   C1249     1.0  0.34860  0.97939  0.38775  1.0000
  C   C1250     1.0  0.40223  0.98163  0.04952  1.0000
  C   C1251     1.0  0.36322  0.97770  0.32090  1.0000
  C   C1252     1.0  0.36785  0.96120  0.32870  1.0000
  C   C1253     1.0  0.36290  0.95398  0.36649  1.0000
  C   C1254     1.0  0.35346  0.96297  0.39584  1.0000
  C   C1255     1.0  0.32053  0.74846  0.09562  1.0000
  H   H1017     1.0  0.40092  0.75665  0.21185  1.0000
  H   H1018     1.0  0.36648  0.94133  0.37313  1.0000
  H   H1019     1.0  0.34997  0.95720  0.42468  1.0000
  C   C1256     1.0  0.25713  0.90770  0.55125  1.0000
  C   C1257     1.0  0.45635  0.96522  0.95659  1.0000
  C   C1258     1.0  0.27334  0.93179  0.53195  1.0000
  C   C1259     1.0  0.28110  0.93090  0.56964  1.0000
  C   C1260     1.0  0.27683  0.91830  0.59785  1.0000
  C   C1261     1.0  0.26491  0.90683  0.58884  1.0000
  S   S186      1.0  0.26785  0.75235  0.82378  1.0000
  H   H1020     1.0  0.27638  0.94146  0.51007  1.0000
  H   H1021     1.0  0.28270  0.91749  0.62712  1.0000
  C   C1262     1.0  0.26409  0.81265  0.91923  1.0000
  C   C1263     1.0  0.26504  0.80149  0.34589  1.0000
  C   C1264     1.0  0.31053  0.94523  0.43134  1.0000
  C   C1265     1.0  0.28502  0.81224  0.80305  1.0000
  C   C1266     1.0  0.38552  0.84652  0.11162  1.0000
  C   C1267     1.0  0.38390  0.86283  0.09622  1.0000
  C   C1268     1.0  0.39027  0.87614  0.11718  1.0000
  C   C1269     1.0  0.39852  0.87331  0.15382  1.0000
  C   C1270     1.0  0.40011  0.85700  0.16925  1.0000
  C   C1271     1.0  0.39362  0.84372  0.14848  1.0000
  H   H1022     1.0  0.37769  0.86520  0.06777  1.0000
  H   H1023     1.0  0.38893  0.88855  0.10480  1.0000
  H   H1024     1.0  0.40649  0.85460  0.19744  1.0000
  H   H1025     1.0  0.39503  0.83130  0.16077  1.0000
  H   H1026     1.0  0.26201  0.79767  0.48657  1.0000
  C   C1272     1.0  0.33311  0.75975  0.99094  1.0000
  C   C1273     1.0  0.32526  0.77523  0.99371  1.0000
  C   C1274     1.0  0.31059  0.77858  0.97301  1.0000
  C   C1275     1.0  0.30350  0.76650  0.94985  1.0000
  C   C1276     1.0  0.32584  0.83274  0.91481  1.0000
  H   H1027     1.0  0.27767  0.87755  0.53432  1.0000
  H   H1028     1.0  0.33067  0.78473  0.01105  1.0000
  H   H1029     1.0  0.30475  0.79064  0.97459  1.0000
  C   C1277     1.0  0.26326  0.81368  0.87641  1.0000
  C   C1278     1.0  0.32581  0.76478  0.22616  1.0000
  C   C1279     1.0  0.31520  0.76795  0.25976  1.0000
  H   H1030     1.0  0.25882  0.76496  0.97993  1.0000
  C   C1280     1.0  0.31114  0.75090  0.94777  1.0000
  C   C1281     1.0  0.43142  0.94404  0.02787  1.0000
  C   C1282     1.0  0.48325  0.76108  0.15967  1.0000
  H   H1031     1.0  0.31623  0.77924  0.27617  1.0000
  S   S187      1.0  0.41689  0.75560  0.13156  1.0000
  C   C1283     1.0  0.26253  0.81859  0.34927  1.0000
  C   C1284     1.0  0.28796  0.75102  0.12303  1.0000
  H   H1032     1.0  0.42740  0.95673  0.03199  1.0000
  C   C1285     1.0  0.26254  0.80849  0.60447  1.0000
  H   H1033     1.0  0.33712  0.83454  0.93070  1.0000
  C   C1286     1.0  0.27580  0.80402  0.57890  1.0000
  C   C1287     1.0  0.26384  0.81269  0.19472  1.0000
  H   H1034     1.0  0.28111  0.78882  0.83428  1.0000
  H   H1035     1.0  0.35019  0.92293  0.32424  1.0000
  C   C1288     1.0  0.24979  0.94021  0.68018  1.0000
  C   C1289     1.0  0.29259  0.88676  0.42281  1.0000
  H   H1036     1.0  0.48628  0.89873  0.01105  1.0000
  H   H1037     1.0  0.25982  0.83335  0.77193  1.0000
  C   C1290     1.0  0.27697  0.94496  0.41706  1.0000
  H   H1038     1.0  0.25347  0.74603  0.08348  1.0000
  C   C1291     1.0  0.39544  0.98541  0.01112  1.0000
  H   H1039     1.0  0.29158  0.77224  0.77654  1.0000
  H   H1040     1.0  0.25259  0.80395  0.97529  1.0000
  C   C1292     1.0  0.27556  0.82805  0.36144  1.0000
  Fe  Fe94      1.0  0.26956  0.75348  0.89217  1.0000
  H   H1041     1.0  0.24499  0.89307  0.69332  1.0000
  C   C1293     1.0  0.31215  0.76373  0.09416  1.0000
  C   C1294     1.0  0.30432  0.81493  0.89538  1.0000
  C   C1295     1.0  0.31852  0.84575  0.89245  1.0000
  H   H1042     1.0  0.41251  0.96830  0.32076  1.0000
  H   H1043     1.0  0.27003  0.84305  0.28912  1.0000
  H   H1044     1.0  0.26837  0.76054  0.65370  1.0000
  H   H1045     1.0  0.36684  0.98352  0.29214  1.0000
  C   C1296     1.0  0.29728  0.81039  0.73477  1.0000
  H   H1046     1.0  0.26612  0.80978  0.25995  1.0000
  C   C1297     1.0  0.30187  0.82025  0.02586  1.0000
  C   C1298     1.0  0.31508  0.82595  0.04718  1.0000
  C   C1299     1.0  0.31870  0.81920  0.08569  1.0000
  C   C1300     1.0  0.30934  0.80651  0.10261  1.0000
  C   C1301     1.0  0.29619  0.80054  0.08116  1.0000
  C   C1302     1.0  0.29236  0.80769  0.04287  1.0000
  P   P42       1.0  0.28417  0.78433  0.10423  1.0000
  C   C1303     1.0  0.27780  0.79168  0.15391  1.0000
  C   C1304     1.0  0.26683  0.78002  0.07341  1.0000
  C   C1305     1.0  0.26964  0.77349  0.03446  1.0000
  C   C1306     1.0  0.44664  0.97843  0.88048  1.0000
  C   C1307     1.0  0.43544  0.95533  0.30849  1.0000
  C   C1308     1.0  0.24978  0.80727  0.85724  1.0000
  H   H1047     1.0  0.32475  0.80711  0.93237  1.0000
  C   C1309     1.0  0.28319  0.78373  0.18996  1.0000
  C   C1310     1.0  0.29577  0.76511  0.10796  1.0000
  C   C1311     1.0  0.24911  0.79718  0.48043  1.0000
  C   C1312     1.0  0.45547  0.96702  0.08506  1.0000
  C   C1313     1.0  0.41983  0.95716  0.32643  1.0000
  H   H1048     1.0  0.30100  0.82803  0.37747  1.0000
  H   H1049     1.0  0.29910  0.82549  0.99597  1.0000
  H   H1050     1.0  0.32259  0.83555  0.03392  1.0000
  H   H1051     1.0  0.32900  0.82360  0.10214  1.0000
  H   H1052     1.0  0.31252  0.80123  0.13227  1.0000
  H   H1053     1.0  0.28220  0.80358  0.02575  1.0000
  H   H1054     1.0  0.28202  0.77115  0.02288  1.0000
  H   H1055     1.0  0.29145  0.75553  0.51682  1.0000
  C   C1314     1.0  0.45862  0.76950  0.10447  1.0000
  H   H1056     1.0  0.28485  0.81300  0.57035  1.0000
  H   H1057     1.0  0.29100  0.77272  0.18893  1.0000
  C   C1315     1.0  0.24567  0.78944  0.75484  1.0000
  H   H1058     1.0  0.33065  0.93067  0.37882  1.0000
  H   H1059     1.0  0.45070  0.97537  0.14627  1.0000
  C   C1316     1.0  0.48777  0.93801  0.03973  1.0000
  C   C1317     1.0  0.45628  0.77285  0.14589  1.0000
  H   H1060     1.0  0.43840  0.98260  0.98188  1.0000
  C   C1318     1.0  0.25012  0.80316  0.73033  1.0000
  C   C1319     1.0  0.49118  0.89178  0.03686  1.0000
  H   H1061     1.0  0.26445  0.81289  0.12905  1.0000
  H   H1062     1.0  0.30839  0.97129  0.41835  1.0000
  C   C1320     1.0  0.28539  0.79499  0.80644  1.0000
  C   C1321     1.0  0.39090  0.74835  0.21666  1.0000
  C   C1322     1.0  0.48567  0.75757  0.11807  1.0000
  H   H1063     1.0  0.26673  0.76424  0.56350  1.0000
  C   C1323     1.0  0.27728  0.78804  0.56425  1.0000
  H   H1064     1.0  0.33285  0.74735  0.18014  1.0000
  C   C1324     1.0  0.25177  0.80496  0.94236  1.0000
  H   H1065     1.0  0.44882  0.77237  0.08344  1.0000
  C   C1325     1.0  0.44764  0.94007  0.01582  1.0000
  H   H1066     1.0  0.46455  0.92023  0.99866  1.0000
  S   S188      1.0  0.25838  0.77314  0.42628  1.0000
  H   H1067     1.0  0.45264  0.95442  0.09326  1.0000
  H   H1068     1.0  0.37600  0.76575  0.25098  1.0000
  C   C1326     1.0  0.29720  0.79322  0.73790  1.0000
  H   H1069     1.0  0.27440  0.74453  0.46339  1.0000
  C   C1327     1.0  0.29945  0.89501  0.45516  1.0000
  C   C1328     1.0  0.29663  0.82804  0.87377  1.0000
  P   P43       1.0  0.31374  0.91117  0.44480  1.0000
  C   C1329     1.0  0.30246  0.93024  0.43360  1.0000
  C   C1330     1.0  0.32607  0.91264  0.48963  1.0000
  C   C1331     1.0  0.32368  0.92577  0.51640  1.0000
  C   C1332     1.0  0.33306  0.92653  0.55144  1.0000
  C   C1333     1.0  0.34480  0.91419  0.56023  1.0000
  C   C1334     1.0  0.34703  0.90090  0.53426  1.0000
  C   C1335     1.0  0.33758  0.90001  0.49937  1.0000
  C   C1336     1.0  0.28555  0.93025  0.42661  1.0000
  C   C1337     1.0  0.26540  0.85637  0.85587  1.0000
  C   C1338     1.0  0.28214  0.87984  0.50326  1.0000
  C   C1339     1.0  0.32752  0.90568  0.40254  1.0000
  C   C1340     1.0  0.33399  0.91781  0.37585  1.0000
  C   C1341     1.0  0.34517  0.91347  0.34455  1.0000
  C   C1342     1.0  0.34993  0.89701  0.33935  1.0000
  C   C1343     1.0  0.34357  0.88484  0.36553  1.0000
  C   C1344     1.0  0.33244  0.88914  0.39700  1.0000
  H   H1070     1.0  0.29918  0.80280  0.89601  1.0000
  P   P44       1.0  0.46184  0.95628  0.00568  1.0000
  H   H1071     1.0  0.30535  0.79792  0.36926  1.0000
  H   H1072     1.0  0.46669  0.77120  0.20564  1.0000
  H   H1073     1.0  0.29617  0.88967  0.39142  1.0000
  H   H1074     1.0  0.31435  0.93526  0.51106  1.0000
  H   H1075     1.0  0.33094  0.93658  0.57233  1.0000
  H   H1076     1.0  0.35194  0.91485  0.58757  1.0000
  H   H1077     1.0  0.35596  0.89119  0.54144  1.0000
  H   H1078     1.0  0.33929  0.88946  0.48012  1.0000
  H   H1079     1.0  0.27882  0.91903  0.42899  1.0000
  H   H1080     1.0  0.27185  0.93651  0.71432  1.0000
  C   C1345     1.0  0.32456  0.75004  0.20555  1.0000
  H   H1081     1.0  0.27072  0.85576  0.88587  1.0000
  H   H1082     1.0  0.35851  0.89372  0.31488  1.0000
  H   H1083     1.0  0.34729  0.87207  0.36133  1.0000
  H   H1084     1.0  0.32773  0.87952  0.41708  1.0000
  H   H1085     1.0  0.48109  0.88024  0.13468  1.0000
  H   H1086     1.0  0.36273  0.93912  0.48888  1.0000
  C   C1346     1.0  0.29141  0.78554  0.77386  1.0000
  C   C1347     1.0  0.26830  0.80633  0.15658  1.0000
  H   H1087     1.0  0.46984  0.89620  0.07580  1.0000
  C   C1348     1.0  0.48292  0.94884  0.00780  1.0000
  C   C1349     1.0  0.27884  0.79024  0.22806  1.0000
  H   H1088     1.0  0.46310  0.96015  0.85420  1.0000
  C   C1350     1.0  0.29390  0.89169  0.49541  1.0000
  H   H1089     1.0  0.35308  0.74693  0.26160  1.0000
  C   C1351     1.0  0.25194  0.75329  0.20119  1.0000
  C   C1352     1.0  0.27549  0.87157  0.47105  1.0000
  H   H1090     1.0  0.27514  0.86891  0.40586  1.0000
  C   C1353     1.0  0.29144  0.81987  0.76743  1.0000
  C   C1354     1.0  0.46000  0.97154  0.04477  1.0000
  C   C1355     1.0  0.45453  0.97884  0.11541  1.0000
  H   H1091     1.0  0.25515  0.79359  0.33904  1.0000
  H   H1092     1.0  0.32419  0.85762  0.89084  1.0000
  H   H1093     1.0  0.45643  0.93913  0.29916  1.0000
  H   H1094     1.0  0.32345  0.94568  0.43756  1.0000
  H   H1095     1.0  0.28219  0.78091  0.35072  1.0000
  H   H1096     1.0  0.44035  0.96509  0.28908  1.0000
  C   C1356     1.0  0.46862  0.76871  0.17347  1.0000
  H   H1097     1.0  0.24870  0.80828  0.82436  1.0000
  C   C1357     1.0  0.37693  0.75346  0.23885  1.0000
  C   C1358     1.0  0.44433  0.97794  0.95440  1.0000
  H   H1098     1.0  0.25641  0.82391  0.19650  1.0000
  C   C1359     1.0  0.26739  0.84307  0.82942  1.0000
  Fe  Fe95      1.0  0.25170  0.75305  0.38294  1.0000
  H   H1099     1.0  0.47897  0.93396  0.06290  1.0000
  H   H1100     1.0  0.26278  0.80462  0.72118  1.0000
  C   C1360     1.0  0.46400  0.98791  0.03564  1.0000
  C   C1361     1.0  0.28522  0.95973  0.41394  1.0000
  C   C1362     1.0  0.48826  0.88131  0.10643  1.0000
  H   H1101     1.0  0.29828  0.89850  0.52080  1.0000
  C   C1363     1.0  0.26922  0.80470  0.23043  1.0000
  H   H1102     1.0  0.27416  0.81776  0.93490  1.0000
  H   H1103     1.0  0.44479  0.89832  0.01311  1.0000
  H   H1104     1.0  0.33321  0.74749  0.08533  1.0000
  S   S189      1.0  0.29747  0.98508  0.50267  1.0000
  P   P45       1.0  0.27832  0.82449  0.84589  1.0000
  C   C1364     1.0  0.29346  0.80372  0.36367  1.0000
  H   H1105     1.0  0.25487  0.78037  0.76421  1.0000
  C   C1365     1.0  0.45804  0.96525  0.88227  1.0000
  C   C1366     1.0  0.26544  0.77656  0.57500  1.0000
  H   H1106     1.0  0.41641  0.90553  0.03656  1.0000
  H   H1107     1.0  0.26311  0.75047  0.21758  1.0000
  H   H1108     1.0  0.39042  0.95073  0.48768  1.0000
  H   H1109     1.0  0.24801  0.78643  0.11884  1.0000
  C   C1367     1.0  0.44112  0.91110  0.01729  1.0000
  C   C1368     1.0  0.28066  0.87504  0.43080  1.0000
  H   H1110     1.0  0.30180  0.81638  0.70697  1.0000
  C   C1369     1.0  0.25580  0.97276  0.57348  1.0000
  C   C1370     1.0  0.30408  0.84337  0.87155  1.0000
  C   C1371     1.0  0.25063  0.78225  0.08822  1.0000
  C   C1372     1.0  0.25903  0.75443  0.67184  1.0000
  S   S190      1.0  0.25170  0.75587  0.31437  1.0000
  C   C1373     1.0  0.28047  0.79415  0.35270  1.0000
  H   H1111     1.0  0.27861  0.97114  0.40651  1.0000
  C   C1374     1.0  0.43967  0.98465  0.91655  1.0000
  C   C1375     1.0  0.24873  0.87123  0.80607  1.0000
  C   C1376     1.0  0.35362  0.98664  0.35004  1.0000
  H   H1112     1.0  0.26391  0.94492  0.41226  1.0000
  C   C1377     1.0  0.38802  0.94030  0.46897  1.0000
  H   H1113     1.0  0.26140  0.82085  0.61602  1.0000
  Fe  Fe96      1.0  0.32457  0.98869  0.48825  1.0000
  C   C1378     1.0  0.31882  0.81731  0.91595  1.0000
  C   C1379     1.0  0.30324  0.75665  0.27222  1.0000
  C   C1380     1.0  0.32597  0.74759  0.96798  1.0000
  C   C1381     1.0  0.39731  0.87210  0.32470  1.0000
  C   C1382     1.0  0.39148  0.87905  0.28813  1.0000
  C   C1383     1.0  0.39129  0.89610  0.28192  1.0000
  C   C1384     1.0  0.39740  0.90616  0.31159  1.0000
  C   C1385     1.0  0.40418  0.89926  0.34722  1.0000
  C   C1386     1.0  0.40350  0.88218  0.35440  1.0000
  P   P46       1.0  0.41306  0.91241  0.38390  1.0000
  C   C1387     1.0  0.42891  0.90093  0.41108  1.0000
  C   C1388     1.0  0.42225  0.92945  0.35602  1.0000
  C   C1389     1.0  0.43796  0.92773  0.33776  1.0000
  C   C1390     1.0  0.44451  0.94065  0.31425  1.0000
  C   C1391     1.0  0.41328  0.94431  0.35011  1.0000
  C   C1392     1.0  0.43956  0.88999  0.38994  1.0000
  C   C1393     1.0  0.45195  0.88119  0.41053  1.0000
  C   C1394     1.0  0.45380  0.88318  0.45243  1.0000
  C   C1395     1.0  0.44323  0.89395  0.47378  1.0000
  C   C1396     1.0  0.43082  0.90279  0.45326  1.0000
  C   C1397     1.0  0.39727  0.92034  0.41849  1.0000
  C   C1398     1.0  0.40039  0.93366  0.44341  1.0000
  H   H1114     1.0  0.26877  0.90633  0.72285  1.0000
  C   C1399     1.0  0.37242  0.93376  0.46967  1.0000
  C   C1400     1.0  0.36920  0.92061  0.44474  1.0000
  C   C1401     1.0  0.38155  0.91384  0.41940  1.0000
  H   H1115     1.0  0.39734  0.85888  0.32954  1.0000
  H   H1116     1.0  0.38724  0.87130  0.26429  1.0000
  H   H1117     1.0  0.38680  0.90154  0.25355  1.0000
  H   H1118     1.0  0.39716  0.91931  0.30622  1.0000
  H   H1119     1.0  0.40803  0.87659  0.38245  1.0000
  H   H1120     1.0  0.44507  0.91637  0.34052  1.0000
  H   H1121     1.0  0.40091  0.94586  0.36233  1.0000
  H   H1122     1.0  0.43835  0.88831  0.35739  1.0000
  H   H1123     1.0  0.46017  0.87287  0.39389  1.0000
  H   H1124     1.0  0.46346  0.87641  0.46833  1.0000
  H   H1125     1.0  0.44468  0.89552  0.50627  1.0000
  H   H1126     1.0  0.42282  0.91102  0.47053  1.0000
  H   H1127     1.0  0.41233  0.93910  0.44248  1.0000
  H   H1128     1.0  0.28746  0.78464  0.54407  1.0000
  C   C1402     1.0  0.45233  0.92353  0.00963  1.0000
  H   H1129     1.0  0.35701  0.91597  0.44410  1.0000
  H   H1130     1.0  0.37864  0.90387  0.39984  1.0000
  C   C1403     1.0  0.42020  0.93161  0.03495  1.0000
  C   C1404     1.0  0.42509  0.91513  0.03022  1.0000
  H   H1131     1.0  0.31849  0.77429  0.08199  1.0000
  C   C1405     1.0  0.41510  0.99103  0.06237  1.0000
  H   H1132     1.0  0.40774  0.93478  0.04476  1.0000
  C   C1406     1.0  0.46269  0.95847  0.92017  1.0000
  C   C1407     1.0  0.30200  0.95982  0.42082  1.0000
  H   H1133     1.0  0.44473  0.77835  0.15661  1.0000
  H   H1134     1.0  0.30165  0.78588  0.71255  1.0000
  H   H1135     1.0  0.27381  0.84117  0.36541  1.0000
  H   H1136     1.0  0.47462  0.75928  0.05833  1.0000
  H   H1137     1.0  0.29180  0.83315  0.76473  1.0000
  C   C1408     1.0  0.25935  0.84376  0.79194  1.0000
  S   S191      1.0  0.33619  0.99142  0.42301  1.0000
  C   C1409     1.0  0.47326  0.76194  0.09049  1.0000
  H   H1138     1.0  0.29514  0.75921  0.29809  1.0000
  H   H1139     1.0  0.27538  0.75189  0.13385  1.0000
  H   H1140     1.0  0.47112  0.94793  0.92097  1.0000
  H   H1141     1.0  0.49171  0.96392  0.95672  1.0000
  H   H1142     1.0  0.44294  0.98365  0.85117  1.0000
  C   C1410     1.0  0.25627  0.87047  0.84400  1.0000
  H   H1143     1.0  0.24401  0.85818  0.75120  1.0000
  C   C1411     1.0  0.49088  0.95375  0.20236  1.0000
  C   C1412     1.0  0.26367  0.74521  0.70656  1.0000
  H   H1144     1.0  0.27037  0.85937  0.22496  1.0000
  C   C1413     1.0  0.25019  0.85783  0.78021  1.0000
  C   C1414     1.0  0.25193  0.78105  0.60012  1.0000
  C   C1415     1.0  0.25062  0.79708  0.61503  1.0000
  H   H1145     1.0  0.25565  0.92097  0.49352  1.0000
  C   C1416     1.0  0.25651  0.76995  0.01000  1.0000
  H   H1146     1.0  0.48988  0.96427  0.22197  1.0000
  H   H1147     1.0  0.42041  0.98835  0.09184  1.0000
  S   S192      1.0  0.24455  0.83247  0.68849  1.0000
  C   C1417     1.0  0.24750  0.95965  0.59189  1.0000
  H   H1148     1.0  0.49260  0.75768  0.18150  1.0000
  H   H1149     1.0  0.25352  0.94763  0.59360  1.0000
  C   C1418     1.0  0.26139  0.93071  0.70178  1.0000
  C   C1419     1.0  0.25862  0.84555  0.27388  1.0000
  H   H1150     1.0  0.46773  0.99162  0.00493  1.0000
  C   C1420     1.0  0.24630  0.90625  0.68989  1.0000
  C   C1421     1.0  0.25888  0.85486  0.23734  1.0000
  H   H1151     1.0  0.24682  0.77603  0.23188  1.0000
  S   S193      1.0  0.30632  0.99038  0.59942  1.0000
  C   C1422     1.0  0.25967  0.91372  0.70656  1.0000
  H   H1152     1.0  0.25133  0.95337  0.67692  1.0000
  C   C1423     1.0  0.24826  0.98841  0.57127  1.0000
  C   C1424     1.0  0.24378  0.78612  0.45160  1.0000
  C   C1425     1.0  0.24378  0.83965  0.29011  1.0000
  H   H1153     1.0  0.27638  0.74438  0.71521  1.0000
  H   H1154     1.0  0.24456  0.86571  0.18860  1.0000
  C   C1426     1.0  0.24435  0.85842  0.21681  1.0000
  C   C1427     1.0  0.51899  0.06495  0.97662  1.0000
  H   H1155     1.0  0.58018  0.01209  0.53882  1.0000
  Fe  Fe97      1.0  0.65692  0.99589  0.42142  1.0000
  C   C1428     1.0  0.72792  0.05545  0.40350  1.0000
  Fe  Fe98      1.0  0.72354  0.22981  0.11482  1.0000
  S   S194      1.0  0.70910  0.21196  0.07783  1.0000
  Fe  Fe99      1.0  0.60020  0.21984  0.88068  1.0000
  S   S195      1.0  0.60394  0.20665  0.94101  1.0000
  C   C1429     1.0  0.73839  0.13137  0.53709  1.0000
  Fe  Fe100     1.0  0.63352  0.20616  0.84635  1.0000
  S   S196      1.0  0.63895  0.19201  0.90472  1.0000
  S   S197      1.0  0.65198  0.20211  0.79371  1.0000
  Fe  Fe101     1.0  0.61251  0.18475  0.90407  1.0000
  S   S198      1.0  0.60289  0.15931  0.92227  1.0000
  Fe  Fe102     1.0  0.62999  0.21505  0.93555  1.0000
  S   S199      1.0  0.64234  0.22858  0.98606  1.0000
  S   S200      1.0  0.60763  0.19745  0.84390  1.0000
  S   S201      1.0  0.62575  0.22971  0.87704  1.0000
  Fe  Fe103     1.0  0.68676  0.01489  0.45084  1.0000
  C   C1430     1.0  0.58539  0.99739  0.94621  1.0000
  S   S202      1.0  0.70691  0.02994  0.41833  1.0000
  H   H1156     1.0  0.74256  0.19260  0.21548  1.0000
  S   S203      1.0  0.64084  0.02590  0.55582  1.0000
  S   S204      1.0  0.65997  0.02147  0.44514  1.0000
  Fe  Fe104     1.0  0.59019  0.03814  0.87676  1.0000
  S   S205      1.0  0.57570  0.02414  0.83284  1.0000
  S   S206      1.0  0.59799  0.02896  0.94054  1.0000
  Fe  Fe105     1.0  0.58813  0.07006  0.82265  1.0000
  S   S207      1.0  0.57301  0.05783  0.77562  1.0000
  S   S208      1.0  0.59443  0.09705  0.80944  1.0000
  Fe  Fe106     1.0  0.55901  0.04678  0.82968  1.0000
  S   S209      1.0  0.53245  0.04669  0.85396  1.0000
  Fe  Fe107     1.0  0.59116  0.03630  0.78225  1.0000
  S   S210      1.0  0.60365  0.01996  0.73235  1.0000
  S   S211      1.0  0.57313  0.06041  0.87554  1.0000
  S   S212      1.0  0.60675  0.04900  0.82720  1.0000
  C   C1431     1.0  0.51220  0.04651  0.83551  1.0000
  H   H1157     1.0  0.61239  0.01204  0.52702  1.0000
  C   C1432     1.0  0.50886  0.04738  0.79382  1.0000
  C   C1433     1.0  0.55987  0.04260  0.02152  1.0000
  H   H1158     1.0  0.51883  0.04810  0.77155  1.0000
  C   C1434     1.0  0.63122  0.02417  0.60590  1.0000
  C   C1435     1.0  0.62125  0.03739  0.62042  1.0000
  C   C1436     1.0  0.61320  0.03661  0.65933  1.0000
  C   C1437     1.0  0.61479  0.02245  0.68443  1.0000
  C   C1438     1.0  0.62483  0.00927  0.66998  1.0000
  C   C1439     1.0  0.63313  0.01019  0.63144  1.0000
  H   H1159     1.0  0.61968  0.04834  0.60132  1.0000
  H   H1160     1.0  0.60550  0.04684  0.66952  1.0000
  H   H1161     1.0  0.62575  0.08951  0.84610  1.0000
  C   C1440     1.0  0.59233  0.01031  0.96653  1.0000
  C   C1441     1.0  0.59548  0.00816  0.00853  1.0000
  C   C1442     1.0  0.61660  0.01857  0.46390  1.0000
  H   H1162     1.0  0.60084  0.01803  0.02463  1.0000
  C   C1443     1.0  0.54946  0.03460  0.04946  1.0000
  C   C1444     1.0  0.60105  0.14199  0.89057  1.0000
  C   C1445     1.0  0.59654  0.12681  0.90841  1.0000
  C   C1446     1.0  0.59447  0.11292  0.88426  1.0000
  C   C1447     1.0  0.59709  0.11400  0.84186  1.0000
  C   C1448     1.0  0.60190  0.12909  0.82413  1.0000
  C   C1449     1.0  0.60386  0.14300  0.84826  1.0000
  H   H1163     1.0  0.59465  0.12577  0.94115  1.0000
  H   H1164     1.0  0.59092  0.10137  0.89844  1.0000
  H   H1165     1.0  0.60403  0.13005  0.79141  1.0000
  H   H1166     1.0  0.60740  0.15455  0.83407  1.0000
  C   C1450     1.0  0.71708  0.04802  0.43209  1.0000
  C   C1451     1.0  0.71523  0.05472  0.47096  1.0000
  C   C1452     1.0  0.57765  0.01581  0.60335  1.0000
  H   H1167     1.0  0.53392  0.00787  0.82780  1.0000
  H   H1168     1.0  0.70706  0.04913  0.49341  1.0000
  C   C1453     1.0  0.73889  0.01060  0.47849  1.0000
  H   H1169     1.0  0.50022  0.09706  0.90015  1.0000
  C   C1454     1.0  0.69105  0.21708  0.05053  1.0000
  C   C1455     1.0  0.68448  0.20532  0.02521  1.0000
  C   C1456     1.0  0.66977  0.20871  0.00445  1.0000
  C   C1457     1.0  0.66143  0.22388  0.00914  1.0000
  H   H1170     1.0  0.63790  0.11571  0.86287  1.0000
  C   C1458     1.0  0.49757  0.02639  0.99351  1.0000
  H   H1171     1.0  0.69071  0.19346  0.02203  1.0000
  H   H1172     1.0  0.66476  0.19952  0.98545  1.0000
  H   H1173     1.0  0.54763  0.02627  0.93344  1.0000
  C   C1459     1.0  0.54778  0.02851  0.96589  1.0000
  H   H1174     1.0  0.50519  0.03169  0.01592  1.0000
  C   C1460     1.0  0.73059  0.19884  0.41809  1.0000
  C   C1461     1.0  0.66623  0.21721  0.77868  1.0000
  C   C1462     1.0  0.67943  0.21292  0.75220  1.0000
  C   C1463     1.0  0.69081  0.22472  0.73915  1.0000
  H   H1175     1.0  0.67677  0.10045  0.92669  1.0000
  H   H1176     1.0  0.52725  0.08382  0.88516  1.0000
  H   H1177     1.0  0.68089  0.20043  0.74184  1.0000
  C   C1464     1.0  0.73173  0.21243  0.97532  1.0000
  C   C1465     1.0  0.69299  0.23012  0.91851  1.0000
  C   C1466     1.0  0.70667  0.08637  0.58236  1.0000
  C   C1467     1.0  0.69438  0.07784  0.56382  1.0000
  C   C1468     1.0  0.68575  0.08525  0.53159  1.0000
  C   C1469     1.0  0.68932  0.10121  0.51802  1.0000
  C   C1470     1.0  0.70180  0.10978  0.53608  1.0000
  C   C1471     1.0  0.71038  0.10228  0.56862  1.0000
  P   P47       1.0  0.70533  0.13082  0.51999  1.0000
  C   C1472     1.0  0.68666  0.14201  0.53399  1.0000
  C   C1473     1.0  0.72285  0.13863  0.54499  1.0000
  H   H1178     1.0  0.62625  0.99824  0.68889  1.0000
  H   H1179     1.0  0.71917  0.23929  0.83908  1.0000
  H   H1180     1.0  0.67445  0.24067  0.54674  1.0000
  C   C1474     1.0  0.64401  0.21129  0.67837  1.0000
  H   H1181     1.0  0.58292  0.99877  0.91397  1.0000
  C   C1475     1.0  0.67644  0.14910  0.50405  1.0000
  C   C1476     1.0  0.66159  0.15695  0.51543  1.0000
  C   C1477     1.0  0.65682  0.15775  0.55668  1.0000
  C   C1478     1.0  0.66677  0.15043  0.58658  1.0000
  C   C1479     1.0  0.68155  0.14245  0.57528  1.0000
  C   C1480     1.0  0.71003  0.13253  0.46578  1.0000
  C   C1481     1.0  0.71219  0.14814  0.44742  1.0000
  C   C1482     1.0  0.71617  0.14965  0.40564  1.0000
  C   C1483     1.0  0.71838  0.13559  0.38215  1.0000
  C   C1484     1.0  0.71661  0.12001  0.40042  1.0000
  C   C1485     1.0  0.71248  0.11846  0.44205  1.0000
  H   H1182     1.0  0.71342  0.08055  0.60718  1.0000
  H   H1183     1.0  0.69161  0.06544  0.57415  1.0000
  H   H1184     1.0  0.67630  0.07855  0.51707  1.0000
  H   H1185     1.0  0.68239  0.10683  0.49327  1.0000
  C   C1486     1.0  0.68906  0.24092  0.75221  1.0000
  H   H1186     1.0  0.60561  0.13977  0.03306  1.0000
  H   H1187     1.0  0.63684  0.18000  0.00306  1.0000
  H   H1188     1.0  0.70842  0.21179  0.81207  1.0000
  H   H1189     1.0  0.64479  0.09759  0.98675  1.0000
  H   H1190     1.0  0.50498  0.11389  0.97796  1.0000
  H   H1191     1.0  0.67966  0.14826  0.47188  1.0000
  H   H1192     1.0  0.65365  0.16217  0.49215  1.0000
  H   H1193     1.0  0.64527  0.16375  0.56541  1.0000
  H   H1194     1.0  0.66287  0.15065  0.61847  1.0000
  H   H1195     1.0  0.68897  0.13647  0.59867  1.0000
  H   H1196     1.0  0.71108  0.15908  0.46560  1.0000
  H   H1197     1.0  0.69121  0.22137  0.94356  1.0000
  C   C1487     1.0  0.67562  0.18663  0.65038  1.0000
  H   H1198     1.0  0.71896  0.10907  0.38266  1.0000
  H   H1199     1.0  0.71181  0.10623  0.45562  1.0000
  H   H1200     1.0  0.67120  0.23911  0.67858  1.0000
  S   S213      1.0  0.73820  0.22783  0.68439  1.0000
  C   C1488     1.0  0.63339  0.22645  0.61963  1.0000
  H   H1201     1.0  0.50148  0.04482  0.89639  1.0000
  C   C1489     1.0  0.70813  0.19515  0.65942  1.0000
  H   H1202     1.0  0.67953  0.00138  0.31427  1.0000
  H   H1203     1.0  0.58240  0.15573  0.76472  1.0000
  H   H1204     1.0  0.64109  0.00010  0.62166  1.0000
  H   H1205     1.0  0.71198  0.17059  0.68412  1.0000
  H   H1206     1.0  0.72464  0.24019  0.39125  1.0000
  S   S214      1.0  0.68386  0.00537  0.51602  1.0000
  C   C1490     1.0  0.52071  0.10270  0.80389  1.0000
  C   C1491     1.0  0.61522  0.01389  0.42338  1.0000
  C   C1492     1.0  0.68034  0.10733  0.95282  1.0000
  C   C1493     1.0  0.50527  0.08810  0.92180  1.0000
  S   S215      1.0  0.57540  0.23239  0.86543  1.0000
  C   C1494     1.0  0.50354  0.01326  0.96977  1.0000
  C   C1495     1.0  0.69449  0.10235  0.97353  1.0000
  H   H1207     1.0  0.63179  0.07167  0.96946  1.0000
  C   C1496     1.0  0.62885  0.21333  0.69872  1.0000
  H   H1208     1.0  0.58222  0.18505  0.78410  1.0000
  C   C1497     1.0  0.66758  0.19730  0.48147  1.0000
  S   S216      1.0  0.72239  0.23368  0.18293  1.0000
  H   H1209     1.0  0.70091  0.22139  0.71886  1.0000
  C   C1498     1.0  0.64629  0.21747  0.63818  1.0000
  H   H1210     1.0  0.71995  0.20799  0.98580  1.0000
  H   H1211     1.0  0.74184  0.18378  0.37096  1.0000
  C   C1499     1.0  0.73518  0.21528  0.93356  1.0000
  C   C1500     1.0  0.68689  0.17522  0.66723  1.0000
  H   H1212     1.0  0.62233  0.06759  0.89927  1.0000
  C   C1501     1.0  0.60798  0.99908  0.41480  1.0000
  H   H1213     1.0  0.60721  0.99538  0.38334  1.0000
  H   H1214     1.0  0.70171  0.09173  0.96342  1.0000
  C   C1502     1.0  0.53598  0.00051  0.85543  1.0000
  C   C1503     1.0  0.50915  0.14684  0.90748  1.0000
  C   C1504     1.0  0.51924  0.15080  0.87356  1.0000
  C   C1505     1.0  0.51315  0.16165  0.84305  1.0000
  P   P48       1.0  0.53918  0.14078  0.86688  1.0000
  C   C1506     1.0  0.53714  0.12181  0.84005  1.0000
  C   C1507     1.0  0.55265  0.15477  0.83967  1.0000
  C   C1508     1.0  0.55258  0.17143  0.85026  1.0000
  C   C1509     1.0  0.56322  0.18230  0.83026  1.0000
  C   C1510     1.0  0.57385  0.17666  0.79920  1.0000
  C   C1511     1.0  0.57391  0.16017  0.78823  1.0000
  C   C1512     1.0  0.56341  0.14923  0.80841  1.0000
  C   C1513     1.0  0.52225  0.11786  0.82259  1.0000
  C   C1514     1.0  0.66817  0.23571  0.03385  1.0000
  C   C1515     1.0  0.53402  0.09148  0.80215  1.0000
  C   C1516     1.0  0.54884  0.09540  0.81924  1.0000
  C   C1517     1.0  0.55036  0.11039  0.83845  1.0000
  C   C1518     1.0  0.54760  0.13547  0.91633  1.0000
  C   C1519     1.0  0.55890  0.14554  0.93441  1.0000
  C   C1520     1.0  0.56542  0.14112  0.97237  1.0000
  C   C1521     1.0  0.56086  0.12655  0.99246  1.0000
  C   C1522     1.0  0.54968  0.11642  0.97469  1.0000
  C   C1523     1.0  0.54305  0.12086  0.93684  1.0000
  C   C1524     1.0  0.72977  0.20510  0.84761  1.0000
  H   H1215     1.0  0.55039  0.03668  0.08188  1.0000
  H   H1216     1.0  0.53054  0.01713  0.05797  1.0000
  H   H1217     1.0  0.51343  0.13827  0.93087  1.0000
  H   H1218     1.0  0.52055  0.16454  0.81603  1.0000
  H   H1219     1.0  0.54460  0.17598  0.87467  1.0000
  H   H1220     1.0  0.56346  0.19505  0.83933  1.0000
  H   H1221     1.0  0.56400  0.13647  0.79978  1.0000
  H   H1222     1.0  0.51179  0.12634  0.82351  1.0000
  H   H1223     1.0  0.72297  0.07337  0.51145  1.0000
  C   C1525     1.0  0.65198  0.20458  0.54282  1.0000
  H   H1224     1.0  0.55921  0.08680  0.81778  1.0000
  H   H1225     1.0  0.56191  0.11306  0.85197  1.0000
  H   H1226     1.0  0.56317  0.15659  0.91914  1.0000
  H   H1227     1.0  0.57449  0.14879  0.98534  1.0000
  H   H1228     1.0  0.56625  0.12299  0.02141  1.0000
  H   H1229     1.0  0.54637  0.10496  0.98986  1.0000
  H   H1230     1.0  0.53457  0.11277  0.92330  1.0000
  H   H1231     1.0  0.62018  0.02147  0.39862  1.0000
  H   H1232     1.0  0.68306  0.16303  0.67649  1.0000
  C   C1526     1.0  0.72422  0.06852  0.48109  1.0000
  C   C1527     1.0  0.65257  0.19896  0.50269  1.0000
  H   H1233     1.0  0.61266  0.16899  0.04029  1.0000
  C   C1528     1.0  0.72093  0.20693  0.81143  1.0000
  H   H1234     1.0  0.72835  0.18110  0.94626  1.0000
  C   C1529     1.0  0.49640  0.08353  0.95743  1.0000
  P   P49       1.0  0.72026  0.21068  0.89601  1.0000
  C   C1530     1.0  0.70883  0.19285  0.91132  1.0000
  H   H1235     1.0  0.64138  0.19576  0.48815  1.0000
  C   C1531     1.0  0.72142  0.15219  0.57084  1.0000
  H   H1236     1.0  0.63517  0.23226  0.58977  1.0000
  H   H1237     1.0  0.72309  0.21533  0.46618  1.0000
  C   C1532     1.0  0.69295  0.19104  0.89693  1.0000
  C   C1533     1.0  0.68406  0.17726  0.90865  1.0000
  C   C1534     1.0  0.69098  0.16511  0.93435  1.0000
  C   C1535     1.0  0.70693  0.16656  0.94784  1.0000
  C   C1536     1.0  0.71592  0.18029  0.93598  1.0000
  C   C1537     1.0  0.49633  0.13437  0.01317  1.0000
  H   H1238     1.0  0.64029  0.20532  0.55895  1.0000
  H   H1239     1.0  0.62260  0.02983  0.47083  1.0000
  C   C1538     1.0  0.53826  0.02346  0.03571  1.0000
  C   C1539     1.0  0.55889  0.03967  0.97984  1.0000
  C   C1540     1.0  0.73672  0.06942  0.41349  1.0000
  H   H1240     1.0  0.66317  0.18300  0.64600  1.0000
  H   H1241     1.0  0.63635  0.99392  0.27371  1.0000
  C   C1541     1.0  0.52068  0.08085  0.91338  1.0000
  H   H1242     1.0  0.72211  0.13673  0.35014  1.0000
  H   H1243     1.0  0.49706  0.06830  0.01285  1.0000
  C   C1542     1.0  0.61821  0.22842  0.64002  1.0000
  P   P50       1.0  0.52398  0.00461  0.97695  1.0000
  H   H1244     1.0  0.65396  0.20538  0.69490  1.0000
  H   H1245     1.0  0.68737  0.20028  0.87674  1.0000
  H   H1246     1.0  0.67178  0.17604  0.89767  1.0000
  H   H1247     1.0  0.68402  0.15452  0.94357  1.0000
  H   H1248     1.0  0.71231  0.15708  0.96760  1.0000
  C   C1543     1.0  0.58048  0.00928  0.64251  1.0000
  H   H1249     1.0  0.71991  0.10863  0.58355  1.0000
  C   C1544     1.0  0.73026  0.23394  0.32949  1.0000
  S   S217      1.0  0.72870  0.21176  0.57173  1.0000
  C   C1545     1.0  0.53754  0.02008  0.99384  1.0000
  H   H1250     1.0  0.71099  0.24040  0.54015  1.0000
  C   C1546     1.0  0.49741  0.16883  0.84717  1.0000
  C   C1547     1.0  0.63974  0.14032  0.97094  1.0000
  H   H1251     1.0  0.53285  0.07965  0.78797  1.0000
  C   C1548     1.0  0.53199  0.99667  0.92897  1.0000
  C   C1549     1.0  0.63395  0.16714  0.00045  1.0000
  H   H1252     1.0  0.70983  0.15868  0.57589  1.0000
  C   C1550     1.0  0.64359  0.15691  0.97520  1.0000
  H   H1253     1.0  0.72731  0.18628  0.51262  1.0000
  H   H1254     1.0  0.52143  0.01683  0.89288  1.0000
  H   H1255     1.0  0.56717  0.04567  0.95830  1.0000
  C   C1551     1.0  0.52754  0.06931  0.94072  1.0000
  H   H1256     1.0  0.72085  0.19829  0.66154  1.0000
  H   H1257     1.0  0.52437  0.05593  0.99762  1.0000
  H   H1258     1.0  0.71815  0.16163  0.39160  1.0000
  C   C1552     1.0  0.62993  0.09136  0.87680  1.0000
  H   H1259     1.0  0.62244  0.12164  0.98875  1.0000
  C   C1553     1.0  0.62034  0.16093  0.02153  1.0000
  C   C1554     1.0  0.63691  0.10621  0.88647  1.0000
  C   C1555     1.0  0.68294  0.23239  0.05424  1.0000
  C   C1556     1.0  0.70316  0.17948  0.67166  1.0000
  H   H1260     1.0  0.69282  0.21003  0.55441  1.0000
  H   H1261     1.0  0.57200  0.02797  0.59976  1.0000
  H   H1262     1.0  0.53935  0.06350  0.93343  1.0000
  H   H1263     1.0  0.49734  0.99601  0.92351  1.0000
  C   C1557     1.0  0.61593  0.22180  0.67952  1.0000
  H   H1264     1.0  0.57721  0.01642  0.66924  1.0000
  C   C1558     1.0  0.69680  0.20671  0.64340  1.0000
  C   C1559     1.0  0.65031  0.15889  0.83952  1.0000
  C   C1560     1.0  0.66582  0.15705  0.82105  1.0000
  C   C1561     1.0  0.67730  0.14578  0.83758  1.0000
  C   C1562     1.0  0.67334  0.13654  0.87296  1.0000
  C   C1563     1.0  0.65792  0.13874  0.89244  1.0000
  C   C1564     1.0  0.64637  0.14975  0.87493  1.0000
  P   P51       1.0  0.65254  0.12721  0.93862  1.0000
  C   C1565     1.0  0.64238  0.10863  0.92615  1.0000
  C   C1566     1.0  0.67085  0.12104  0.96579  1.0000
  C   C1567     1.0  0.67566  0.12954  0.00016  1.0000
  C   C1568     1.0  0.68986  0.12457  0.02070  1.0000
  C   C1569     1.0  0.69927  0.11098  0.00741  1.0000
  C   C1570     1.0  0.61639  0.14446  0.01748  1.0000
  H   H1265     1.0  0.65398  0.16201  0.95881  1.0000
  C   C1571     1.0  0.62799  0.07899  0.90675  1.0000
  C   C1572     1.0  0.63331  0.08133  0.94636  1.0000
  C   C1573     1.0  0.64058  0.09603  0.95600  1.0000
  H   H1266     1.0  0.64138  0.16761  0.82669  1.0000
  H   H1267     1.0  0.66889  0.16445  0.79408  1.0000
  H   H1268     1.0  0.68930  0.14430  0.82309  1.0000
  H   H1269     1.0  0.68240  0.12792  0.88514  1.0000
  H   H1270     1.0  0.63434  0.15143  0.88892  1.0000
  H   H1271     1.0  0.66856  0.14000  0.01143  1.0000
  H   H1272     1.0  0.69349  0.13119  0.04720  1.0000
  C   C1574     1.0  0.62601  0.13418  0.99222  1.0000
  H   H1273     1.0  0.71020  0.10707  0.02357  1.0000
  H   H1274     1.0  0.69374  0.19966  0.48436  1.0000
  Fe  Fe108     1.0  0.65664  0.01057  0.50940  1.0000
  C   C1575     1.0  0.52890  0.00559  0.89252  1.0000
  H   H1275     1.0  0.73958  0.16467  0.24685  1.0000
  H   H1276     1.0  0.66803  0.19282  0.45051  1.0000
  Fe  Fe109     1.0  0.73589  0.23118  0.61620  1.0000
  C   C1576     1.0  0.61078  0.00844  0.49580  1.0000
  H   H1277     1.0  0.60429  0.22357  0.69572  1.0000
  C   C1577     1.0  0.68147  0.20703  0.54023  1.0000
  C   C1578     1.0  0.49903  0.04551  0.86403  1.0000
  H   H1278     1.0  0.71922  0.19237  0.41892  1.0000
  H   H1279     1.0  0.56895  0.05083  0.03210  1.0000
  C   C1579     1.0  0.66442  0.23345  0.79151  1.0000
  H   H1280     1.0  0.73171  0.02192  0.48251  1.0000
  C   C1580     1.0  0.68043  0.20256  0.63904  1.0000
  C   C1581     1.0  0.70646  0.22835  0.89129  1.0000
  C   C1582     1.0  0.58246  0.00683  0.56893  1.0000
  C   C1583     1.0  0.73272  0.21183  0.44444  1.0000
  H   H1281     1.0  0.69196  0.23742  0.48319  1.0000
  H   H1282     1.0  0.72136  0.20394  0.74623  1.0000
  H   H1283     1.0  0.74087  0.21271  0.03628  1.0000
  H   H1284     1.0  0.62729  0.20869  0.72993  1.0000
  C   C1584     1.0  0.66641  0.20898  0.56160  1.0000
  H   H1285     1.0  0.50921  0.09955  0.79075  1.0000
  C   C1585     1.0  0.73526  0.15794  0.58957  1.0000
  P   P52       1.0  0.66627  0.21649  0.61314  1.0000
  H   H1286     1.0  0.70097  0.21871  0.63354  1.0000
  H   H1287     1.0  0.68784  0.24153  0.07361  1.0000
  H   H1288     1.0  0.72951  0.05035  0.37339  1.0000
  C   C1586     1.0  0.68204  0.20119  0.50040  1.0000
  C   C1587     1.0  0.67287  0.23748  0.61274  1.0000
  H   H1289     1.0  0.73985  0.12125  0.51626  1.0000
  H   H1290     1.0  0.65423  0.23696  0.81153  1.0000
  C   C1588     1.0  0.50346  0.07198  0.98499  1.0000
  C   C1589     1.0  0.73995  0.18723  0.52099  1.0000
  H   H1291     1.0  0.73422  0.16870  0.60848  1.0000
  H   H1292     1.0  0.73590  0.23109  0.26551  1.0000
  H   H1293     1.0  0.50823  0.13989  0.01331  1.0000
  C   C1590     1.0  0.73315  0.23973  0.28956  1.0000
  H   H1294     1.0  0.73090  0.22082  0.33613  1.0000
  C   C1591     1.0  0.70881  0.24026  0.86013  1.0000
  C   C1592     1.0  0.73495  0.07601  0.45252  1.0000
  H   H1295     1.0  0.60832  0.23540  0.62563  1.0000
  C   C1593     1.0  0.72818  0.20241  0.77402  1.0000
  C   C1594     1.0  0.68141  0.24295  0.91283  1.0000
  C   C1595     1.0  0.73170  0.99699  0.46204  1.0000
  H   H1296     1.0  0.70763  0.00584  0.33764  1.0000
  H   H1297     1.0  0.71897  0.99782  0.45336  1.0000
  C   C1596     1.0  0.49440  0.11959  0.99306  1.0000
  C   C1597     1.0  0.70366  0.99342  0.33311  1.0000
  C   C1598     1.0  0.49336  0.15392  0.91135  1.0000
  C   C1599     1.0  0.58795  0.99368  0.64733  1.0000
  C   C1600     1.0  0.60342  0.99360  0.48745  1.0000
  H   H1298     1.0  0.73440  0.24975  0.00960  1.0000
  C   C1601     1.0  0.58871  0.26949  0.04831  1.0000
  C   C1602     1.0  0.61257  0.48025  0.34115  1.0000
  Fe  Fe110     1.0  0.72675  0.26043  0.16725  1.0000
  S   S218      1.0  0.71011  0.27912  0.20101  1.0000
  C   C1603     1.0  0.61948  0.43395  0.29422  1.0000
  Fe  Fe111     1.0  0.69851  0.35137  0.43088  1.0000
  S   S219      1.0  0.72378  0.35793  0.41017  1.0000
  S   S220      1.0  0.69299  0.33265  0.48189  1.0000
  Fe  Fe112     1.0  0.68202  0.37411  0.36645  1.0000
  S   S221      1.0  0.70661  0.38202  0.34065  1.0000
  S   S222      1.0  0.65959  0.38573  0.33409  1.0000
  Fe  Fe113     1.0  0.71434  0.35516  0.34672  1.0000
  C   C1604     1.0  0.69740  0.25328  0.85502  1.0000
  Fe  Fe114     1.0  0.71424  0.38424  0.40594  1.0000
  S   S223      1.0  0.72599  0.40606  0.43670  1.0000
  S   S224      1.0  0.68951  0.34710  0.36768  1.0000
  S   S225      1.0  0.68917  0.37780  0.43147  1.0000
  S   S226      1.0  0.50752  0.33169  0.94287  1.0000
  Fe  Fe115     1.0  0.72326  0.25139  0.68860  1.0000
  Fe  Fe116     1.0  0.51073  0.30406  0.95034  1.0000
  S   S227      1.0  0.53708  0.29315  0.95074  1.0000
  Fe  Fe117     1.0  0.56008  0.39901  0.31877  1.0000
  S   S228      1.0  0.56125  0.41060  0.25577  1.0000
  S   S229      1.0  0.58125  0.38653  0.35419  1.0000
  Fe  Fe118     1.0  0.52288  0.40584  0.32765  1.0000
  S   S230      1.0  0.52181  0.41741  0.26412  1.0000
  C   C1605     1.0  0.49874  0.36353  0.12877  1.0000
  Fe  Fe119     1.0  0.53847  0.39652  0.24282  1.0000
  S   S231      1.0  0.53918  0.38294  0.18093  1.0000
  Fe  Fe120     1.0  0.54434  0.43051  0.28187  1.0000
  S   S232      1.0  0.54599  0.45797  0.26509  1.0000
  S   S233      1.0  0.53812  0.38394  0.30525  1.0000
  S   S234      1.0  0.54465  0.41992  0.34586  1.0000
  C   C1606     1.0  0.54843  0.47437  0.29925  1.0000
  C   C1607     1.0  0.73281  0.25664  0.28084  1.0000
  H   H1299     1.0  0.55062  0.45928  0.35395  1.0000
  C   C1608     1.0  0.73060  0.39440  0.54211  1.0000
  C   C1609     1.0  0.50503  0.35741  0.09137  1.0000
  H   H1300     1.0  0.72852  0.32936  0.46920  1.0000
  C   C1610     1.0  0.50885  0.37143  0.15637  1.0000
  C   C1611     1.0  0.52548  0.37350  0.14692  1.0000
  C   C1612     1.0  0.53171  0.36760  0.10920  1.0000
  C   C1613     1.0  0.52163  0.35958  0.08179  1.0000
  H   H1301     1.0  0.57325  0.41155  0.48726  1.0000
  H   H1302     1.0  0.50377  0.37585  0.18506  1.0000
  H   H1303     1.0  0.54448  0.36918  0.10126  1.0000
  C   C1614     1.0  0.50529  0.40593  0.44628  1.0000
  H   H1304     1.0  0.51805  0.40446  0.43716  1.0000
  C   C1615     1.0  0.53025  0.28573  0.12366  1.0000
  C   C1616     1.0  0.59204  0.49301  0.40299  1.0000
  C   C1617     1.0  0.53954  0.26599  0.89970  1.0000
  C   C1618     1.0  0.54729  0.27601  0.92695  1.0000
  C   C1619     1.0  0.56386  0.27254  0.93551  1.0000
  C   C1620     1.0  0.57254  0.25908  0.91778  1.0000
  H   H1305     1.0  0.70587  0.38599  0.54114  1.0000
  H   H1306     1.0  0.52684  0.26851  0.89259  1.0000
  H   H1307     1.0  0.57008  0.28036  0.95592  1.0000
  Fe  Fe121     1.0  0.74214  0.26800  0.61744  1.0000
  C   C1621     1.0  0.67560  0.24637  0.57592  1.0000
  C   C1622     1.0  0.49898  0.37630  0.97821  1.0000
  H   H1308     1.0  0.51574  0.44049  0.40536  1.0000
  C   C1623     1.0  0.63784  0.38599  0.34095  1.0000
  C   C1624     1.0  0.62808  0.39323  0.31008  1.0000
  C   C1625     1.0  0.61080  0.39393  0.31399  1.0000
  C   C1626     1.0  0.60301  0.38712  0.34870  1.0000
  C   C1627     1.0  0.61277  0.37996  0.37969  1.0000
  C   C1628     1.0  0.63005  0.37956  0.37610  1.0000
  H   H1309     1.0  0.63395  0.39828  0.28281  1.0000
  H   H1310     1.0  0.60350  0.39939  0.28979  1.0000
  H   H1311     1.0  0.60691  0.37469  0.40676  1.0000
  H   H1312     1.0  0.63732  0.37431  0.40057  1.0000
  C   C1629     1.0  0.72519  0.32342  0.27538  1.0000
  H   H1313     1.0  0.55773  0.36342  0.81627  1.0000
  C   C1630     1.0  0.72573  0.26205  0.35184  1.0000
  C   C1631     1.0  0.71645  0.29593  0.22978  1.0000
  C   C1632     1.0  0.70485  0.30423  0.25492  1.0000
  C   C1633     1.0  0.70925  0.31768  0.27819  1.0000
  C   C1634     1.0  0.51431  0.28025  0.13013  1.0000
  H   H1314     1.0  0.69238  0.30022  0.25634  1.0000
  H   H1315     1.0  0.70028  0.32375  0.29788  1.0000
  H   H1316     1.0  0.58526  0.25661  0.92476  1.0000
  C   C1635     1.0  0.56708  0.29312  0.08313  1.0000
  C   C1636     1.0  0.71582  0.29900  0.55706  1.0000
  C   C1637     1.0  0.70388  0.30878  0.53664  1.0000
  C   C1638     1.0  0.70839  0.32005  0.50538  1.0000
  C   C1639     1.0  0.72494  0.32109  0.49390  1.0000
  C   C1640     1.0  0.59277  0.42854  0.47750  1.0000
  H   H1317     1.0  0.71223  0.29057  0.58148  1.0000
  H   H1318     1.0  0.69111  0.30779  0.54551  1.0000
  H   H1319     1.0  0.51495  0.31324  0.81542  1.0000
  H   H1320     1.0  0.71380  0.35958  0.50898  1.0000
  C   C1641     1.0  0.64608  0.28802  0.24919  1.0000
  C   C1642     1.0  0.65796  0.28726  0.21774  1.0000
  C   C1643     1.0  0.66369  0.30175  0.19961  1.0000
  C   C1644     1.0  0.65769  0.31702  0.21312  1.0000
  C   C1645     1.0  0.64629  0.31795  0.24603  1.0000
  C   C1646     1.0  0.64028  0.30330  0.26338  1.0000
  P   P53       1.0  0.63957  0.33779  0.26552  1.0000
  C   C1647     1.0  0.63560  0.33606  0.32015  1.0000
  C   C1648     1.0  0.65583  0.35201  0.25517  1.0000
  C   C1649     1.0  0.67212  0.34708  0.26296  1.0000
  C   C1650     1.0  0.68485  0.35786  0.25498  1.0000
  C   C1651     1.0  0.68141  0.37367  0.23922  1.0000
  C   C1652     1.0  0.66525  0.37867  0.23117  1.0000
  C   C1653     1.0  0.65248  0.36790  0.23913  1.0000
  C   C1654     1.0  0.62105  0.32913  0.33527  1.0000
  C   C1655     1.0  0.61791  0.32771  0.37743  1.0000
  C   C1656     1.0  0.62928  0.33317  0.40485  1.0000
  C   C1657     1.0  0.64367  0.34024  0.39009  1.0000
  C   C1658     1.0  0.64668  0.34193  0.34796  1.0000
  C   C1659     1.0  0.62094  0.34517  0.24172  1.0000
  C   C1660     1.0  0.61046  0.35647  0.26210  1.0000
  C   C1661     1.0  0.59616  0.36257  0.24381  1.0000
  C   C1662     1.0  0.59222  0.35749  0.20489  1.0000
  C   C1663     1.0  0.60254  0.34617  0.18442  1.0000
  C   C1664     1.0  0.61690  0.34005  0.20268  1.0000
  C   C1665     1.0  0.50611  0.46968  0.29342  1.0000
  H   H1321     1.0  0.67436  0.26417  0.87591  1.0000
  H   H1322     1.0  0.67305  0.30110  0.17549  1.0000
  H   H1323     1.0  0.66230  0.32806  0.19836  1.0000
  H   H1324     1.0  0.63131  0.30354  0.28817  1.0000
  H   H1325     1.0  0.67494  0.33493  0.27562  1.0000
  H   H1326     1.0  0.69738  0.35403  0.26154  1.0000
  H   H1327     1.0  0.69125  0.38214  0.23400  1.0000
  H   H1328     1.0  0.66258  0.39107  0.21997  1.0000
  H   H1329     1.0  0.64005  0.37216  0.23358  1.0000
  H   H1330     1.0  0.61202  0.32504  0.31445  1.0000
  H   H1331     1.0  0.60656  0.32260  0.38888  1.0000
  H   H1332     1.0  0.62680  0.33224  0.43751  1.0000
  H   H1333     1.0  0.65233  0.34487  0.41125  1.0000
  H   H1334     1.0  0.65747  0.34818  0.33739  1.0000
  H   H1335     1.0  0.61339  0.36067  0.29214  1.0000
  H   H1336     1.0  0.58816  0.37132  0.25989  1.0000
  H   H1337     1.0  0.58114  0.36233  0.19073  1.0000
  H   H1338     1.0  0.59942  0.34222  0.15430  1.0000
  H   H1339     1.0  0.62486  0.33145  0.18624  1.0000
  H   H1340     1.0  0.53873  0.31274  0.02218  1.0000
  C   C1666     1.0  0.60202  0.43739  0.44846  1.0000
  H   H1341     1.0  0.63117  0.43021  0.30678  1.0000
  C   C1667     1.0  0.57136  0.40113  0.83830  1.0000
  H   H1342     1.0  0.70523  0.25729  0.99824  1.0000
  H   H1343     1.0  0.72707  0.33225  0.85165  1.0000
  C   C1668     1.0  0.73257  0.30127  0.22810  1.0000
  C   C1669     1.0  0.55401  0.32533  0.06355  1.0000
  C   C1670     1.0  0.56361  0.33914  0.06829  1.0000
  C   C1671     1.0  0.56473  0.35110  0.03694  1.0000
  C   C1672     1.0  0.55658  0.34917  0.00039  1.0000
  C   C1673     1.0  0.54729  0.33529  0.99525  1.0000
  C   C1674     1.0  0.54594  0.32346  0.02674  1.0000
  C   C1675     1.0  0.55842  0.31658  0.15177  1.0000
  C   C1676     1.0  0.56830  0.30712  0.17852  1.0000
  C   C1677     1.0  0.57173  0.31299  0.21716  1.0000
  C   C1678     1.0  0.56498  0.32813  0.22970  1.0000
  C   C1679     1.0  0.55470  0.33734  0.20374  1.0000
  C   C1680     1.0  0.58399  0.29367  0.08941  1.0000
  H   H1344     1.0  0.59548  0.42913  0.50966  1.0000
  C   C1681     1.0  0.67566  0.24527  0.77790  1.0000
  C   C1682     1.0  0.59473  0.28176  0.07248  1.0000
  H   H1345     1.0  0.58221  0.40840  0.83475  1.0000
  H   H1346     1.0  0.57029  0.34068  0.09599  1.0000
  H   H1347     1.0  0.57196  0.36185  0.04098  1.0000
  H   H1348     1.0  0.55751  0.35837  0.97602  1.0000
  H   H1349     1.0  0.54119  0.33355  0.96680  1.0000
  H   H1350     1.0  0.50107  0.45050  0.25185  1.0000
  H   H1351     1.0  0.57315  0.29512  0.16997  1.0000
  H   H1352     1.0  0.57944  0.30572  0.23764  1.0000
  H   H1353     1.0  0.56756  0.33269  0.25965  1.0000
  C   C1683     1.0  0.51435  0.46263  0.44126  1.0000
  H   H1354     1.0  0.49738  0.39480  0.84634  1.0000
  H   H1355     1.0  0.50985  0.34315  0.81166  1.0000
  C   C1684     1.0  0.50659  0.37813  0.73790  1.0000
  C   C1685     1.0  0.54538  0.32485  0.87645  1.0000
  C   C1686     1.0  0.73664  0.29077  0.39207  1.0000
  C   C1687     1.0  0.67378  0.24557  0.64992  1.0000
  C   C1688     1.0  0.52007  0.33829  0.82904  1.0000
  C   C1689     1.0  0.52989  0.34877  0.85053  1.0000
  C   C1690     1.0  0.54246  0.34190  0.87471  1.0000
  P   P54       1.0  0.52499  0.37055  0.85244  1.0000
  C   C1691     1.0  0.54328  0.38229  0.84762  1.0000
  C   C1692     1.0  0.54310  0.39855  0.86111  1.0000
  C   C1693     1.0  0.53560  0.31453  0.85472  1.0000
  C   C1694     1.0  0.58025  0.41868  0.46497  1.0000
  C   C1695     1.0  0.55749  0.37571  0.82833  1.0000
  C   C1696     1.0  0.51476  0.37346  0.90139  1.0000
  C   C1697     1.0  0.52367  0.37739  0.93580  1.0000
  C   C1698     1.0  0.72904  0.48383  0.39349  1.0000
  C   C1699     1.0  0.55714  0.40789  0.85671  1.0000
  C   C1700     1.0  0.72238  0.27652  0.91457  1.0000
  P   P55       1.0  0.55334  0.30917  0.10222  1.0000
  H   H1356     1.0  0.55484  0.31948  0.89577  1.0000
  C   C1701     1.0  0.50342  0.30725  0.11062  1.0000
  H   H1357     1.0  0.54974  0.34966  0.89295  1.0000
  H   H1358     1.0  0.69737  0.27571  0.32117  1.0000
  C   C1702     1.0  0.73406  0.30777  0.38542  1.0000
  H   H1359     1.0  0.51235  0.26767  0.14022  1.0000
  H   H1360     1.0  0.53674  0.37904  0.93336  1.0000
  H   H1361     1.0  0.52263  0.38175  0.00071  1.0000
  C   C1703     1.0  0.73895  0.27245  0.92124  1.0000
  C   C1704     1.0  0.51931  0.31267  0.10355  1.0000
  H   H1362     1.0  0.62584  0.42368  0.23565  1.0000
  C   C1705     1.0  0.52120  0.44740  0.42911  1.0000
  C   C1706     1.0  0.73242  0.30053  0.54665  1.0000
  C   C1707     1.0  0.61655  0.43026  0.25357  1.0000
  H   H1363     1.0  0.55694  0.42041  0.86731  1.0000
  H   H1364     1.0  0.66181  0.24747  0.03766  1.0000
  C   C1708     1.0  0.57199  0.26925  0.04060  1.0000
  H   H1365     1.0  0.52668  0.35512  0.05317  1.0000
  H   H1366     1.0  0.58245  0.37991  0.80918  1.0000
  C   C1709     1.0  0.51252  0.37784  0.81041  1.0000
  H   H1367     1.0  0.54052  0.27733  0.12956  1.0000
  C   C1710     1.0  0.49334  0.40714  0.41637  1.0000
  H   H1368     1.0  0.67108  0.28990  0.30834  1.0000
  H   H1369     1.0  0.52586  0.36337  0.76511  1.0000
  C   C1711     1.0  0.51599  0.37230  0.77070  1.0000
  C   C1712     1.0  0.55057  0.47169  0.34123  1.0000
  H   H1370     1.0  0.51280  0.47684  0.27071  1.0000
  C   C1713     1.0  0.58614  0.42657  0.39429  1.0000
  C   C1714     1.0  0.56125  0.28118  0.05727  1.0000
  C   C1715     1.0  0.73690  0.31149  0.51468  1.0000
  H   H1371     1.0  0.54045  0.42909  0.43807  1.0000
  C   C1716     1.0  0.50159  0.47972  0.57625  1.0000
  H   H1372     1.0  0.67397  0.25786  0.78747  1.0000
  C   C1717     1.0  0.59611  0.47618  0.40301  1.0000
  C   C1718     1.0  0.54259  0.44939  0.47851  1.0000
  C   C1719     1.0  0.50494  0.47489  0.33377  1.0000
  C   C1720     1.0  0.74273  0.48264  0.41827  1.0000
  H   H1373     1.0  0.51347  0.45585  0.56839  1.0000
  C   C1721     1.0  0.71694  0.26599  0.43924  1.0000
  H   H1374     1.0  0.69909  0.26219  0.83019  1.0000
  H   H1375     1.0  0.64158  0.27674  0.26300  1.0000
  H   H1376     1.0  0.54681  0.49284  0.25104  1.0000
  C   C1722     1.0  0.67873  0.30611  0.40043  1.0000
  C   C1723     1.0  0.67050  0.30310  0.36461  1.0000
  C   C1724     1.0  0.67735  0.29214  0.33630  1.0000
  C   C1725     1.0  0.69243  0.28415  0.34368  1.0000
  C   C1726     1.0  0.70085  0.28720  0.37949  1.0000
  C   C1727     1.0  0.69383  0.29817  0.40791  1.0000
  H   H1377     1.0  0.72730  0.47450  0.37104  1.0000
  C   C1728     1.0  0.72931  0.26778  0.31193  1.0000
  S   S235      1.0  0.73087  0.34129  0.30118  1.0000
  C   C1729     1.0  0.53526  0.44084  0.44769  1.0000
  C   C1730     1.0  0.73100  0.25720  0.98302  1.0000
  H   H1378     1.0  0.50902  0.37354  0.70748  1.0000
  H   H1379     1.0  0.52098  0.32527  0.09338  1.0000
  H   H1380     1.0  0.56739  0.26008  0.02069  1.0000
  H   H1381     1.0  0.55356  0.44432  0.49257  1.0000
  H   H1382     1.0  0.58892  0.30342  0.10682  1.0000
  C   C1731     1.0  0.50066  0.40618  0.48822  1.0000
  C   C1732     1.0  0.71459  0.26153  0.97672  1.0000
  H   H1383     1.0  0.62025  0.47542  0.31648  1.0000
  H   H1384     1.0  0.73293  0.33039  0.77703  1.0000
  C   C1733     1.0  0.71864  0.38309  0.53413  1.0000
  H   H1385     1.0  0.53757  0.30129  0.85720  1.0000
  C   C1734     1.0  0.57694  0.41772  0.42347  1.0000
  P   P56       1.0  0.72007  0.27669  0.39078  1.0000
  C   C1735     1.0  0.55286  0.48512  0.36680  1.0000
  H   H1386     1.0  0.67354  0.31472  0.42237  1.0000
  H   H1387     1.0  0.65883  0.30926  0.35878  1.0000
  C   C1736     1.0  0.56484  0.24909  0.89035  1.0000
  C   C1737     1.0  0.50003  0.38989  0.81640  1.0000
  H   H1388     1.0  0.70008  0.30065  0.43581  1.0000
  H   H1389     1.0  0.54922  0.34898  0.21358  1.0000
  C   C1738     1.0  0.54831  0.25270  0.88133  1.0000
  H   H1390     1.0  0.69756  0.27470  0.93799  1.0000
  C   C1739     1.0  0.49956  0.45479  0.28285  1.0000
  S   S236      1.0  0.70334  0.25599  0.73722  1.0000
  H   H1391     1.0  0.54846  0.28124  0.04912  1.0000
  H   H1392     1.0  0.54136  0.47106  0.51516  1.0000
  H   H1393     1.0  0.68375  0.28372  0.61425  1.0000
  C   C1740     1.0  0.73721  0.32066  0.79773  1.0000
  C   C1741     1.0  0.73387  0.32167  0.83974  1.0000
  C   C1742     1.0  0.73950  0.36476  0.50508  1.0000
  H   H1394     1.0  0.50999  0.40494  0.51105  1.0000
  H   H1395     1.0  0.72209  0.31297  0.37817  1.0000
  P   P57       1.0  0.61117  0.44783  0.36991  1.0000
  C   C1743     1.0  0.60737  0.44219  0.31798  1.0000
  C   C1744     1.0  0.60651  0.46967  0.37217  1.0000
  C   C1745     1.0  0.73685  0.31504  0.25051  1.0000
  S   S237      1.0  0.49818  0.40599  0.36302  1.0000
  C   C1746     1.0  0.68350  0.25441  0.88075  1.0000
  C   C1747     1.0  0.71030  0.27131  0.94269  1.0000
  C   C1748     1.0  0.50209  0.46250  0.57548  1.0000
  C   C1749     1.0  0.59246  0.44697  0.30010  1.0000
  C   C1750     1.0  0.58961  0.44327  0.25945  1.0000
  C   C1751     1.0  0.60158  0.43483  0.23628  1.0000
  C   C1752     1.0  0.63222  0.44274  0.38189  1.0000
  C   C1753     1.0  0.64398  0.45492  0.38339  1.0000
  C   C1754     1.0  0.66029  0.45054  0.39180  1.0000
  C   C1755     1.0  0.66493  0.43402  0.39884  1.0000
  C   C1756     1.0  0.65326  0.42189  0.39774  1.0000
  C   C1757     1.0  0.63697  0.42621  0.38938  1.0000
  H   H1396     1.0  0.59072  0.46835  0.42648  1.0000
  H   H1397     1.0  0.72704  0.40616  0.55496  1.0000
  H   H1398     1.0  0.54305  0.33866  0.14578  1.0000
  C   C1758     1.0  0.54830  0.49063  0.28346  1.0000
  H   H1399     1.0  0.52346  0.48916  0.20225  1.0000
  H   H1400     1.0  0.58299  0.45356  0.31753  1.0000
  H   H1401     1.0  0.57805  0.44689  0.24588  1.0000
  H   H1402     1.0  0.59920  0.43180  0.20496  1.0000
  H   H1403     1.0  0.64066  0.46774  0.37791  1.0000
  H   H1404     1.0  0.66941  0.45988  0.39250  1.0000
  H   H1405     1.0  0.67760  0.43055  0.40485  1.0000
  H   H1406     1.0  0.65689  0.40905  0.40267  1.0000
  H   H1407     1.0  0.62813  0.41658  0.38799  1.0000
  H   H1408     1.0  0.72900  0.28086  0.30463  1.0000
  H   H1409     1.0  0.53207  0.40402  0.87483  1.0000
  H   H1410     1.0  0.55472  0.48287  0.39910  1.0000
  H   H1411     1.0  0.51070  0.48617  0.34108  1.0000
  C   C1759     1.0  0.53571  0.46443  0.49122  1.0000
  H   H1412     1.0  0.68196  0.26975  0.54811  1.0000
  C   C1760     1.0  0.49697  0.46528  0.36397  1.0000
  H   H1413     1.0  0.60776  0.28216  0.07748  1.0000
  H   H1414     1.0  0.69558  0.25373  0.41907  1.0000
  C   C1761     1.0  0.59874  0.43651  0.40662  1.0000
  C   C1762     1.0  0.55134  0.33153  0.16510  1.0000
  H   H1415     1.0  0.58360  0.42519  0.36229  1.0000
  C   C1763     1.0  0.57151  0.38507  0.82397  1.0000
  H   H1416     1.0  0.51275  0.48612  0.56962  1.0000
  H   H1417     1.0  0.66283  0.27545  0.20742  1.0000
  C   C1764     1.0  0.72522  0.25873  0.50830  1.0000
  H   H1418     1.0  0.73337  0.26023  0.53347  1.0000
  S   S238      1.0  0.72579  0.25663  0.09919  1.0000
  C   C1765     1.0  0.52293  0.32125  0.83112  1.0000
  C   C1766     1.0  0.53284  0.30190  0.10945  1.0000
  C   C1767     1.0  0.70391  0.25521  0.44389  1.0000
  S   S239      1.0  0.71917  0.25363  0.62089  1.0000
  H   H1419     1.0  0.56752  0.40971  0.41370  1.0000
  C   C1768     1.0  0.52156  0.47097  0.47295  1.0000
  C   C1769     1.0  0.67961  0.26297  0.57649  1.0000
  H   H1420     1.0  0.61184  0.44482  0.45855  1.0000
  H   H1421     1.0  0.51632  0.48257  0.48344  1.0000
  H   H1422     1.0  0.71869  0.28359  0.88774  1.0000
  H   H1423     1.0  0.67844  0.26828  0.67936  1.0000
  C   C1770     1.0  0.67764  0.26219  0.65040  1.0000
  C   C1771     1.0  0.68059  0.27088  0.61373  1.0000
  C   C1772     1.0  0.72311  0.36824  0.51580  1.0000
  H   H1424     1.0  0.59704  0.26038  0.03473  1.0000
  H   H1425     1.0  0.74048  0.43075  0.48429  1.0000
  C   C1773     1.0  0.51576  0.37888  0.97403  1.0000
  C   C1774     1.0  0.49801  0.37042  0.90615  1.0000
  P   P58       1.0  0.49634  0.47126  0.41686  1.0000
  H   H1426     1.0  0.49604  0.48051  0.18252  1.0000
  C   C1775     1.0  0.72735  0.26801  0.47212  1.0000
  H   H1427     1.0  0.65905  0.48866  0.43035  1.0000
  H   H1428     1.0  0.73667  0.31000  0.89896  1.0000
  H   H1429     1.0  0.74163  0.29503  0.20885  1.0000
  C   C1776     1.0  0.73922  0.30902  0.86641  1.0000
  H   H1430     1.0  0.73517  0.26114  0.24989  1.0000
  C   C1777     1.0  0.70182  0.24596  0.48010  1.0000
  C   C1778     1.0  0.49390  0.38978  0.74436  1.0000
  C   C1779     1.0  0.71255  0.24763  0.51216  1.0000
  H   H1431     1.0  0.73912  0.26038  0.82438  1.0000
  H   H1432     1.0  0.73702  0.27677  0.47040  1.0000
  C   C1780     1.0  0.50089  0.29100  0.12342  1.0000
  C   C1781     1.0  0.72666  0.24503  0.36064  1.0000
  S   S240      1.0  0.49626  0.30348  0.00978  1.0000
  H   H1433     1.0  0.54223  0.24515  0.86002  1.0000
  H   H1434     1.0  0.67071  0.24386  0.93310  1.0000
  H   H1435     1.0  0.74266  0.35346  0.48957  1.0000
  C   C1782     1.0  0.74312  0.26260  0.95542  1.0000
  C   C1783     1.0  0.49793  0.49328  0.18927  1.0000
  C   C1784     1.0  0.50291  0.52636  0.20713  1.0000
  H   H1436     1.0  0.49590  0.54027  0.62904  1.0000
  H   H1437     1.0  0.71315  0.72868  0.94387  1.0000
  C   C1785     1.0  0.69992  0.69597  0.52791  1.0000
  H   H1438     1.0  0.69140  0.73369  0.46452  1.0000
  C   C1786     1.0  0.53328  0.52435  0.56897  1.0000
  C   C1787     1.0  0.73936  0.66540  0.91635  1.0000
  S   S241      1.0  0.51332  0.64871  0.04565  1.0000
  S   S242      1.0  0.71987  0.73350  0.28010  1.0000
  H   H1439     1.0  0.57399  0.55981  0.22244  1.0000
  Fe  Fe122     1.0  0.51267  0.67649  0.04778  1.0000
  S   S243      1.0  0.53715  0.68896  0.05706  1.0000
  C   C1788     1.0  0.50422  0.51911  0.56535  1.0000
  Fe  Fe123     1.0  0.53040  0.57186  0.41803  1.0000
  S   S244      1.0  0.55320  0.55833  0.43913  1.0000
  S   S245      1.0  0.50504  0.57285  0.45025  1.0000
  Fe  Fe124     1.0  0.54519  0.57898  0.33144  1.0000
  S   S246      1.0  0.56902  0.56519  0.34675  1.0000
  S   S247      1.0  0.54348  0.59171  0.26732  1.0000
  Fe  Fe125     1.0  0.55332  0.54594  0.37802  1.0000
  S   S248      1.0  0.55646  0.51780  0.38429  1.0000
  Fe  Fe126     1.0  0.56752  0.57830  0.40657  1.0000
  S   S249      1.0  0.58856  0.59302  0.43209  1.0000
  S   S250      1.0  0.52995  0.55853  0.35837  1.0000
  S   S251      1.0  0.54442  0.59300  0.38989  1.0000
  Fe  Fe127     1.0  0.68491  0.60400  0.47627  1.0000
  S   S252      1.0  0.70459  0.60498  0.42685  1.0000
  S   S253      1.0  0.66559  0.58445  0.46740  1.0000
  Fe  Fe128     1.0  0.70152  0.63095  0.52543  1.0000
  S   S254      1.0  0.72191  0.63362  0.47877  1.0000
  S   S255      1.0  0.69799  0.64724  0.58170  1.0000
  Fe  Fe129     1.0  0.70230  0.63239  0.43238  1.0000
  S   S256      1.0  0.69837  0.64904  0.37692  1.0000
  Fe  Fe130     1.0  0.72265  0.60578  0.47729  1.0000
  H   H1440     1.0  0.72673  0.57749  0.32274  1.0000
  S   S257      1.0  0.68156  0.63151  0.47870  1.0000
  S   S258      1.0  0.70335  0.60301  0.52716  1.0000
  C   C1789     1.0  0.52742  0.55165  0.21923  1.0000
  C   C1790     1.0  0.55036  0.50405  0.30911  1.0000
  C   C1791     1.0  0.55850  0.59735  0.94701  1.0000
  C   C1792     1.0  0.61006  0.59024  0.44083  1.0000
  C   C1793     1.0  0.61845  0.57503  0.43709  1.0000
  C   C1794     1.0  0.63535  0.57349  0.44556  1.0000
  C   C1795     1.0  0.64424  0.58715  0.45699  1.0000
  C   C1796     1.0  0.63590  0.60238  0.46016  1.0000
  C   C1797     1.0  0.61895  0.60387  0.45250  1.0000
  H   H1441     1.0  0.61184  0.56440  0.42849  1.0000
  H   H1442     1.0  0.64158  0.56161  0.44347  1.0000
  H   H1443     1.0  0.64246  0.61296  0.46927  1.0000
  H   H1444     1.0  0.61266  0.61568  0.45590  1.0000
  H   H1445     1.0  0.54370  0.53812  0.51807  1.0000
  H   H1446     1.0  0.63917  0.51026  0.40614  1.0000
  C   C1798     1.0  0.55281  0.50139  0.35091  1.0000
  H   H1447     1.0  0.73481  0.71396  0.38379  1.0000
  H   H1448     1.0  0.56059  0.54394  0.27874  1.0000
  H   H1449     1.0  0.55047  0.51640  0.29640  1.0000
  H   H1450     1.0  0.51960  0.51135  0.61567  1.0000
  C   C1799     1.0  0.49957  0.57374  0.50336  1.0000
  C   C1800     1.0  0.51125  0.57508  0.53354  1.0000
  C   C1801     1.0  0.51339  0.49817  0.20040  1.0000
  C   C1802     1.0  0.53513  0.56049  0.18715  1.0000
  H   H1451     1.0  0.52409  0.57549  0.52485  1.0000
  H   H1452     1.0  0.51052  0.57465  0.27348  1.0000
  C   C1803     1.0  0.50732  0.62249  0.18566  1.0000
  C   C1804     1.0  0.50018  0.58783  0.89867  1.0000
  C   C1805     1.0  0.51327  0.60786  0.25080  1.0000
  C   C1806     1.0  0.52930  0.60393  0.23727  1.0000
  C   C1807     1.0  0.53429  0.60965  0.19796  1.0000
  C   C1808     1.0  0.52349  0.61903  0.17260  1.0000
  C   C1809     1.0  0.50572  0.58815  0.85792  1.0000
  H   H1453     1.0  0.50925  0.60400  0.28115  1.0000
  H   H1454     1.0  0.54664  0.60686  0.18707  1.0000
  H   H1455     1.0  0.52762  0.62332  0.14264  1.0000
  C   C1810     1.0  0.54772  0.70674  0.03914  1.0000
  C   C1811     1.0  0.54235  0.71669  0.00631  1.0000
  C   C1812     1.0  0.57136  0.72446  0.04494  1.0000
  C   C1813     1.0  0.56224  0.71079  0.05839  1.0000
  H   H1456     1.0  0.53121  0.71383  0.99123  1.0000
  H   H1457     1.0  0.51322  0.68716  0.19508  1.0000
  H   H1458     1.0  0.56654  0.70322  0.08384  1.0000
  H   H1459     1.0  0.67116  0.73122  0.87147  1.0000
  H   H1460     1.0  0.54466  0.52332  0.58524  1.0000
  H   H1461     1.0  0.50059  0.54330  0.13107  1.0000
  C   C1814     1.0  0.51589  0.51461  0.20943  1.0000
  C   C1815     1.0  0.71092  0.66223  0.60202  1.0000
  C   C1816     1.0  0.70511  0.67159  0.63535  1.0000
  C   C1817     1.0  0.71520  0.68282  0.65426  1.0000
  C   C1818     1.0  0.69582  0.55649  0.52778  1.0000
  H   H1462     1.0  0.69275  0.66997  0.64705  1.0000
  H   H1463     1.0  0.71056  0.68969  0.68020  1.0000
  H   H1464     1.0  0.52873  0.66388  0.90422  1.0000
  C   C1819     1.0  0.72123  0.68592  0.31549  1.0000
  C   C1820     1.0  0.70941  0.67502  0.33067  1.0000
  C   C1821     1.0  0.71361  0.66249  0.35912  1.0000
  H   H1465     1.0  0.54295  0.57850  0.09363  1.0000
  H   H1466     1.0  0.59445  0.51639  0.37156  1.0000
  H   H1467     1.0  0.71787  0.69547  0.29339  1.0000
  H   H1468     1.0  0.69695  0.67632  0.32033  1.0000
  S   S259      1.0  0.72031  0.73858  0.69883  1.0000
  C   C1822     1.0  0.69789  0.55041  0.48837  1.0000
  C   C1823     1.0  0.69647  0.68153  0.50786  1.0000
  C   C1824     1.0  0.73714  0.67554  0.60668  1.0000
  H   H1469     1.0  0.69978  0.66776  0.45271  1.0000
  H   H1470     1.0  0.50982  0.61688  0.00639  1.0000
  C   C1825     1.0  0.68917  0.72497  0.64284  1.0000
  C   C1826     1.0  0.72234  0.73442  0.05052  1.0000
  C   C1827     1.0  0.49635  0.70698  0.17826  1.0000
  C   C1828     1.0  0.67706  0.74168  0.11671  1.0000
  H   H1471     1.0  0.52159  0.52567  0.40513  1.0000
  C   C1829     1.0  0.52468  0.70510  0.15529  1.0000
  C   C1830     1.0  0.72292  0.56749  0.34294  1.0000
  C   C1831     1.0  0.50148  0.62248  0.74121  1.0000
  C   C1832     1.0  0.67601  0.73616  0.63768  1.0000
  C   C1833     1.0  0.70395  0.53425  0.48252  1.0000
  H   H1472     1.0  0.49548  0.64260  0.78046  1.0000
  H   H1473     1.0  0.69421  0.70753  0.92373  1.0000
  C   C1834     1.0  0.72882  0.63954  0.89506  1.0000
  H   H1474     1.0  0.73657  0.51762  0.47171  1.0000
  C   C1835     1.0  0.53157  0.60104  0.00901  1.0000
  C   C1836     1.0  0.54087  0.59019  0.03401  1.0000
  H   H1475     1.0  0.69072  0.71849  0.67193  1.0000
  P   P59       1.0  0.50582  0.54775  0.21841  1.0000
  H   H1476     1.0  0.58251  0.72731  0.06006  1.0000
  H   H1477     1.0  0.71569  0.65644  0.93469  1.0000
  C   C1837     1.0  0.49586  0.52807  0.42060  1.0000
  C   C1838     1.0  0.57279  0.60651  0.94441  1.0000
  C   C1839     1.0  0.55158  0.73027  0.99254  1.0000
  H   H1478     1.0  0.57238  0.61963  0.94916  1.0000
  C   C1840     1.0  0.74230  0.74081  0.10079  1.0000
  C   C1841     1.0  0.68469  0.52093  0.42142  1.0000
  H   H1479     1.0  0.54865  0.57315  0.94122  1.0000
  C   C1842     1.0  0.73086  0.62146  0.60590  1.0000
  C   C1843     1.0  0.65186  0.51320  0.41023  1.0000
  C   C1844     1.0  0.50989  0.59383  0.92922  1.0000
  H   H1480     1.0  0.67674  0.54589  0.40492  1.0000
  C   C1845     1.0  0.72390  0.55334  0.40879  1.0000
  C   C1846     1.0  0.67322  0.53320  0.40908  1.0000
  C   C1847     1.0  0.53070  0.60062  0.87804  1.0000
  H   H1481     1.0  0.70850  0.52257  0.58259  1.0000
  C   C1848     1.0  0.51907  0.51761  0.58608  1.0000
  H   H1482     1.0  0.68059  0.73160  0.09706  1.0000
  H   H1483     1.0  0.71889  0.61808  0.59623  1.0000
  H   H1484     1.0  0.52516  0.59496  0.81593  1.0000
  H   H1485     1.0  0.53093  0.53920  0.27773  1.0000
  C   C1849     1.0  0.69986  0.54655  0.56170  1.0000
  C   C1850     1.0  0.52095  0.59460  0.84759  1.0000
  H   H1486     1.0  0.55772  0.57062  0.16423  1.0000
  C   C1851     1.0  0.72975  0.66086  0.37235  1.0000
  H   H1487     1.0  0.71667  0.68884  0.41748  1.0000
  C   C1852     1.0  0.49437  0.57099  0.32541  1.0000
  C   C1853     1.0  0.66844  0.72943  0.98672  1.0000
  Fe  Fe131     1.0  0.72128  0.73697  0.21149  1.0000
  H   H1488     1.0  0.73307  0.56516  0.51293  1.0000
  C   C1854     1.0  0.52528  0.60026  0.91916  1.0000
  S   S260      1.0  0.73756  0.72015  0.77673  1.0000
  C   C1855     1.0  0.70561  0.53036  0.55624  1.0000
  C   C1856     1.0  0.73739  0.68420  0.32825  1.0000
  H   H1489     1.0  0.70734  0.49787  0.37760  1.0000
  C   C1857     1.0  0.67391  0.71710  0.96021  1.0000
  H   H1490     1.0  0.51738  0.59171  0.12148  1.0000
  C   C1858     1.0  0.73401  0.50806  0.45058  1.0000
  H   H1491     1.0  0.51764  0.54114  0.48171  1.0000
  C   C1859     1.0  0.51704  0.60829  0.02500  1.0000
  H   H1492     1.0  0.49951  0.68576  0.84624  1.0000
  S   S261      1.0  0.69563  0.73734  0.80890  1.0000
  C   C1860     1.0  0.71252  0.54210  0.39618  1.0000
  H   H1493     1.0  0.51225  0.61864  0.75798  1.0000
  C   C1861     1.0  0.57470  0.57269  0.93042  1.0000
  H   H1494     1.0  0.64812  0.53885  0.39381  1.0000
  H   H1495     1.0  0.54251  0.60553  0.86958  1.0000
  H   H1496     1.0  0.60060  0.57590  0.92078  1.0000
  H   H1497     1.0  0.69081  0.56886  0.53190  1.0000
  C   C1862     1.0  0.65692  0.52929  0.40312  1.0000
  C   C1863     1.0  0.59338  0.62842  0.26684  1.0000
  C   C1864     1.0  0.58292  0.61873  0.29097  1.0000
  C   C1865     1.0  0.58675  0.61490  0.33151  1.0000
  C   C1866     1.0  0.60099  0.62078  0.34800  1.0000
  C   C1867     1.0  0.61156  0.63060  0.32414  1.0000
  C   C1868     1.0  0.60768  0.63429  0.28324  1.0000
  P   P60       1.0  0.63010  0.63787  0.34581  1.0000
  C   C1869     1.0  0.62609  0.64463  0.39743  1.0000
  C   C1870     1.0  0.64567  0.62156  0.34755  1.0000
  C   C1871     1.0  0.66233  0.62538  0.34612  1.0000
  C   C1872     1.0  0.67442  0.61292  0.34976  1.0000
  C   C1873     1.0  0.67002  0.59657  0.35552  1.0000
  C   C1874     1.0  0.65350  0.59264  0.35691  1.0000
  C   C1875     1.0  0.64136  0.60506  0.35306  1.0000
  C   C1876     1.0  0.63882  0.64459  0.42552  1.0000
  C   C1877     1.0  0.63573  0.64966  0.46558  1.0000
  C   C1878     1.0  0.61996  0.65493  0.47784  1.0000
  C   C1879     1.0  0.60730  0.65532  0.44989  1.0000
  C   C1880     1.0  0.61036  0.65032  0.40973  1.0000
  C   C1881     1.0  0.63761  0.65505  0.31544  1.0000
  C   C1882     1.0  0.63427  0.67131  0.32745  1.0000
  C   C1883     1.0  0.64035  0.68451  0.30409  1.0000
  C   C1884     1.0  0.64975  0.68160  0.26858  1.0000
  C   C1885     1.0  0.65299  0.66547  0.25622  1.0000
  C   C1886     1.0  0.64690  0.65224  0.27943  1.0000
  H   H1498     1.0  0.59034  0.63141  0.23542  1.0000
  H   H1499     1.0  0.57181  0.61418  0.27837  1.0000
  H   H1500     1.0  0.57867  0.60737  0.35031  1.0000
  H   H1501     1.0  0.60372  0.61768  0.37950  1.0000
  H   H1502     1.0  0.61556  0.64176  0.26393  1.0000
  H   H1503     1.0  0.66606  0.63804  0.34347  1.0000
  H   H1504     1.0  0.68720  0.61610  0.34934  1.0000
  H   H1505     1.0  0.67938  0.58701  0.36012  1.0000
  H   H1506     1.0  0.65006  0.58003  0.36265  1.0000
  H   H1507     1.0  0.62867  0.60172  0.35581  1.0000
  H   H1508     1.0  0.65112  0.64049  0.41685  1.0000
  H   H1509     1.0  0.64557  0.64933  0.48724  1.0000
  H   H1510     1.0  0.61756  0.65865  0.50905  1.0000
  H   H1511     1.0  0.59506  0.65937  0.45942  1.0000
  H   H1512     1.0  0.60039  0.65082  0.38851  1.0000
  H   H1513     1.0  0.62706  0.67386  0.35490  1.0000
  H   H1514     1.0  0.63784  0.69702  0.31364  1.0000
  H   H1515     1.0  0.65455  0.69184  0.25067  1.0000
  H   H1516     1.0  0.66032  0.66324  0.22874  1.0000
  H   H1517     1.0  0.64954  0.63981  0.26947  1.0000
  C   C1887     1.0  0.73265  0.72939  0.08227  1.0000
  C   C1888     1.0  0.53670  0.54581  0.25238  1.0000
  H   H1518     1.0  0.69826  0.55134  0.59220  1.0000
  C   C1889     1.0  0.71204  0.69081  0.44835  1.0000
  H   H1519     1.0  0.73164  0.65743  0.56183  1.0000
  C   C1890     1.0  0.73816  0.73783  0.58116  1.0000
  S   S262      1.0  0.49391  0.67732  0.09973  1.0000
  C   C1891     1.0  0.51037  0.51922  0.41160  1.0000
  H   H1520     1.0  0.72129  0.63334  0.65983  1.0000
  H   H1521     1.0  0.61283  0.50513  0.31675  1.0000
  H   H1522     1.0  0.70737  0.55705  0.29885  1.0000
  P   P61       1.0  0.71351  0.72716  0.53218  1.0000
  H   H1523     1.0  0.73741  0.67665  0.93301  1.0000
  C   C1892     1.0  0.50629  0.57615  0.57510  1.0000
  C   C1893     1.0  0.51162  0.69874  0.17828  1.0000
  H   H1524     1.0  0.50433  0.60304  0.69739  1.0000
  H   H1525     1.0  0.49587  0.54140  0.42117  1.0000
  H   H1526     1.0  0.52716  0.63377  0.90182  1.0000
  H   H1527     1.0  0.50100  0.61099  0.07797  1.0000
  C   C1894     1.0  0.53442  0.65624  0.92778  1.0000
  C   C1895     1.0  0.59812  0.50344  0.37207  1.0000
  H   H1528     1.0  0.52823  0.56548  0.16174  1.0000
  C   C1896     1.0  0.73137  0.68476  0.64035  1.0000
  C   C1897     1.0  0.70687  0.54326  0.35602  1.0000
  C   C1898     1.0  0.58888  0.58186  0.92814  1.0000
  H   H1529     1.0  0.55231  0.58469  0.02303  1.0000
  P   P62       1.0  0.70546  0.52630  0.43148  1.0000
  H   H1530     1.0  0.71484  0.72541  0.03695  1.0000
  H   H1531     1.0  0.71095  0.71402  0.61577  1.0000
  C   C1899     1.0  0.49708  0.55239  0.26837  1.0000
  C   C1900     1.0  0.71547  0.70527  0.46823  1.0000
  H   H1532     1.0  0.55300  0.62917  0.01525  1.0000
  C   C1901     1.0  0.70061  0.72245  0.61094  1.0000
  C   C1902     1.0  0.72695  0.66452  0.58732  1.0000
  H   H1533     1.0  0.73307  0.65121  0.39421  1.0000
  C   C1903     1.0  0.54801  0.63657  0.99026  1.0000
  S   S263      1.0  0.70279  0.73093  0.16389  1.0000
  C   C1904     1.0  0.55191  0.56332  0.18822  1.0000
  C   C1905     1.0  0.53564  0.58667  0.07427  1.0000
  C   C1906     1.0  0.67941  0.50489  0.42967  1.0000
  C   C1907     1.0  0.51194  0.60488  0.06537  1.0000
  C   C1908     1.0  0.66308  0.50102  0.42371  1.0000
  H   H1534     1.0  0.71132  0.51139  0.51341  1.0000
  H   H1535     1.0  0.72872  0.55237  0.43917  1.0000
  C   C1909     1.0  0.58791  0.59876  0.93510  1.0000
  Fe  Fe132     1.0  0.74053  0.71968  0.70790  1.0000
  H   H1536     1.0  0.69446  0.55831  0.46260  1.0000
  C   C1910     1.0  0.53360  0.63909  0.92649  1.0000
  C   C1911     1.0  0.53276  0.53268  0.53117  1.0000
  H   H1537     1.0  0.57543  0.55961  0.92479  1.0000
  C   C1912     1.0  0.71982  0.50897  0.42714  1.0000
  C   C1913     1.0  0.55956  0.58040  0.93973  1.0000
  C   C1914     1.0  0.52257  0.71979  0.13264  1.0000
  C   C1915     1.0  0.54211  0.66354  0.96010  1.0000
  H   H1538     1.0  0.68912  0.67229  0.52323  1.0000
  H   H1539     1.0  0.72286  0.71436  0.45266  1.0000
  H   H1540     1.0  0.53635  0.69838  0.15385  1.0000
  C   C1916     1.0  0.50377  0.52763  0.52754  1.0000
  H   H1541     1.0  0.55460  0.65945  0.01667  1.0000
  H   H1542     1.0  0.59888  0.60590  0.93307  1.0000
  P   P63       1.0  0.53870  0.60701  0.95816  1.0000
  H   H1543     1.0  0.66739  0.73835  0.66283  1.0000
  H   H1544     1.0  0.53280  0.72404  0.11428  1.0000
  C   C1917     1.0  0.51803  0.53431  0.51053  1.0000
  C   C1918     1.0  0.72693  0.65396  0.91728  1.0000
  H   H1545     1.0  0.54246  0.67684  0.96172  1.0000
  C   C1919     1.0  0.56110  0.55726  0.22108  1.0000
  C   C1920     1.0  0.70740  0.52412  0.51684  1.0000
  C   C1921     1.0  0.54031  0.62913  0.95787  1.0000
  C   C1922     1.0  0.70930  0.70806  0.50796  1.0000
  C   C1923     1.0  0.54900  0.65370  0.99115  1.0000
  C   C1924     1.0  0.52123  0.59407  0.08997  1.0000
  C   C1925     1.0  0.70251  0.67895  0.46814  1.0000
  H   H1546     1.0  0.69522  0.69753  0.55881  1.0000
  H   H1547     1.0  0.66554  0.70793  0.95087  1.0000
  C   C1926     1.0  0.69007  0.71684  0.94508  1.0000
  H   H1548     1.0  0.65586  0.72978  0.99812  1.0000
  C   C1927     1.0  0.50234  0.61681  0.22498  1.0000
  C   C1928     1.0  0.71199  0.55600  0.32958  1.0000
  C   C1929     1.0  0.55351  0.54843  0.25301  1.0000
  H   H1549     1.0  0.51545  0.57738  0.59803  1.0000
  C   C1930     1.0  0.69876  0.73083  0.57322  1.0000
  C   C1931     1.0  0.73358  0.72578  0.55410  1.0000
  C   C1932     1.0  0.50143  0.56679  0.28755  1.0000
  H   H1550     1.0  0.50522  0.59348  0.96036  1.0000
  C   C1933     1.0  0.50733  0.72830  0.13270  1.0000
  C   C1934     1.0  0.70074  0.72895  0.95630  1.0000
  H   H1551     1.0  0.71908  0.63080  0.89540  1.0000
  H   H1552     1.0  0.69840  0.53446  0.34528  1.0000
  H   H1553     1.0  0.73632  0.66036  0.01446  1.0000
  H   H1554     1.0  0.52193  0.49545  0.40421  1.0000
  C   C1935     1.0  0.56619  0.73423  0.01160  1.0000
  H   H1555     1.0  0.52800  0.51796  0.21803  1.0000
  C   C1936     1.0  0.72895  0.56608  0.38248  1.0000
  C   C1937     1.0  0.51050  0.50205  0.41120  1.0000
  H   H1556     1.0  0.49325  0.54923  0.69997  1.0000
  H   H1557     1.0  0.73741  0.57496  0.39312  1.0000
  H   H1558     1.0  0.49796  0.58206  0.34022  1.0000
  C   C1938     1.0  0.73223  0.62999  0.64208  1.0000
  C   C1939     1.0  0.49706  0.61370  0.70720  1.0000
  C   C1940     1.0  0.71770  0.49702  0.39759  1.0000
  C   C1941     1.0  0.49625  0.56075  0.17949  1.0000
  H   H1559     1.0  0.54740  0.73776  0.96686  1.0000
  H   H1560     1.0  0.68777  0.49544  0.44152  1.0000
  C   C1942     1.0  0.74163  0.67165  0.35671  1.0000
  H   H1561     1.0  0.73284  0.71673  0.09337  1.0000
  C   C1943     1.0  0.50148  0.73980  0.04968  1.0000
  Fe  Fe133     1.0  0.49396  0.64963  0.09551  1.0000
  H   H1562     1.0  0.49624  0.62677  0.85566  1.0000
  C   C1944     1.0  0.49555  0.55530  0.13915  1.0000
  Fe  Fe134     1.0  0.71859  0.74060  0.76757  1.0000
  C   C1945     1.0  0.49515  0.73002  0.97008  1.0000
  C   C1946     1.0  0.67902  0.74165  0.99766  1.0000
  C   C1947     1.0  0.69520  0.74163  0.98211  1.0000
  C   C1948     1.0  0.68544  0.74199  0.56813  1.0000
  C   C1949     1.0  0.60842  0.49708  0.34118  1.0000
  H   H1563     1.0  0.74137  0.70312  0.52472  1.0000
  H   H1564     1.0  0.49801  0.58371  0.83432  1.0000
  S   S264      1.0  0.49380  0.67893  0.99870  1.0000
  C   C1950     1.0  0.49415  0.72159  0.15529  1.0000
  C   C1951     1.0  0.74147  0.73918  0.38952  1.0000
  H   H1565     1.0  0.58365  0.49797  0.42614  1.0000
  C   C1952     1.0  0.49605  0.49352  0.41933  1.0000
  C   C1953     1.0  0.50537  0.74316  0.97606  1.0000
  C   C1954     1.0  0.74309  0.63660  0.87162  1.0000
  C   C1955     1.0  0.65362  0.93217  0.30067  1.0000
  C   C1956     1.0  0.68784  0.99093  0.31985  1.0000
  H   H1566     1.0  0.67971  0.95516  0.24174  1.0000
  C   C1957     1.0  0.68328  0.75105  0.83950  1.0000
  C   C1958     1.0  0.72760  0.92046  0.45787  1.0000
  Fe  Fe135     1.0  0.73447  0.75660  0.28163  1.0000
  Fe  Fe136     1.0  0.58760  0.91458  0.13758  1.0000
  S   S265      1.0  0.60181  0.93795  0.13685  1.0000
  S   S266      1.0  0.60035  0.88894  0.13793  1.0000
  Fe  Fe137     1.0  0.55421  0.93352  0.15178  1.0000
  S   S267      1.0  0.56618  0.95813  0.15356  1.0000
  S   S268      1.0  0.52739  0.92620  0.14589  1.0000
  Fe  Fe138     1.0  0.58138  0.94951  0.09877  1.0000
  S   S269      1.0  0.58177  0.96064  0.03323  1.0000
  Fe  Fe139     1.0  0.58600  0.94518  0.19182  1.0000
  S   S270      1.0  0.59571  0.95056  0.25610  1.0000
  S   S271      1.0  0.56863  0.92541  0.09598  1.0000
  S   S272      1.0  0.57263  0.92121  0.19357  1.0000
  Fe  Fe140     1.0  0.62726  0.77744  0.06400  1.0000
  S   S273      1.0  0.63291  0.79904  0.02273  1.0000
  S   S274      1.0  0.64116  0.77762  0.12328  1.0000
  Fe  Fe141     1.0  0.59986  0.76608  0.01012  1.0000
  S   S275      1.0  0.60433  0.78718  0.96523  1.0000
  S   S276      1.0  0.65153  0.98550  0.48485  1.0000
  Fe  Fe142     1.0  0.63130  0.78120  0.97152  1.0000
  S   S277      1.0  0.65047  0.78552  0.91998  1.0000
  Fe  Fe143     1.0  0.60578  0.80328  0.01999  1.0000
  S   S278      1.0  0.59239  0.82853  0.01912  1.0000
  S   S279      1.0  0.62706  0.75909  0.01316  1.0000
  S   S280      1.0  0.59989  0.78271  0.06441  1.0000
  H   H1567     1.0  0.49732  0.98988  0.02646  1.0000
  H   H1568     1.0  0.70552  0.82797  0.09389  1.0000
  H   H1569     1.0  0.56045  0.84797  0.10749  1.0000
  Fe  Fe144     1.0  0.67897  0.98080  0.48855  1.0000
  S   S281      1.0  0.68915  0.95641  0.51588  1.0000
  H   H1570     1.0  0.52860  0.93431  0.01722  1.0000
  C   C1959     1.0  0.70377  0.94269  0.49235  1.0000
  C   C1960     1.0  0.70774  0.92752  0.51196  1.0000
  C   C1961     1.0  0.71955  0.91644  0.49484  1.0000
  C   C1962     1.0  0.71168  0.94661  0.45514  1.0000
  H   H1571     1.0  0.70167  0.92432  0.54070  1.0000
  H   H1572     1.0  0.72240  0.90481  0.51021  1.0000
  H   H1573     1.0  0.70859  0.95811  0.43945  1.0000
  C   C1963     1.0  0.72364  0.93566  0.43834  1.0000
  C   C1964     1.0  0.60998  0.96224  0.28349  1.0000
  C   C1965     1.0  0.61890  0.97497  0.26509  1.0000
  H   H1574     1.0  0.51591  0.75870  0.01946  1.0000
  C   C1966     1.0  0.49486  0.95476  0.97998  1.0000
  C   C1967     1.0  0.62345  0.96737  0.34843  1.0000
  C   C1968     1.0  0.61240  0.95852  0.32533  1.0000
  C   C1969     1.0  0.70490  0.81842  0.11749  1.0000
  C   C1970     1.0  0.61502  0.96710  0.53913  1.0000
  H   H1575     1.0  0.62504  0.96436  0.38049  1.0000
  H   H1576     1.0  0.60567  0.94868  0.34000  1.0000
  C   C1971     1.0  0.59764  0.87225  0.10483  1.0000
  C   C1972     1.0  0.58884  0.87406  0.06884  1.0000
  C   C1973     1.0  0.58755  0.86064  0.04274  1.0000
  C   C1974     1.0  0.59472  0.84513  0.05269  1.0000
  C   C1975     1.0  0.60333  0.84324  0.08899  1.0000
  C   C1976     1.0  0.60492  0.85677  0.11461  1.0000
  H   H1577     1.0  0.58334  0.88591  0.06081  1.0000
  H   H1578     1.0  0.58102  0.86231  0.01458  1.0000
  H   H1579     1.0  0.60880  0.83137  0.09723  1.0000
  H   H1580     1.0  0.61169  0.85519  0.14239  1.0000
  C   C1977     1.0  0.53666  0.75511  0.08341  1.0000
  S   S282      1.0  0.73673  0.76079  0.76786  1.0000
  H   H1581     1.0  0.65628  0.74959  0.08048  1.0000
  H   H1582     1.0  0.57740  0.97235  0.95084  1.0000
  H   H1583     1.0  0.67762  0.90245  0.44241  1.0000
  C   C1978     1.0  0.50651  0.94800  0.18863  1.0000
  C   C1979     1.0  0.50803  0.93423  0.16388  1.0000
  H   H1584     1.0  0.50868  0.86700  0.12963  1.0000
  H   H1585     1.0  0.51738  0.95410  0.19761  1.0000
  H   H1586     1.0  0.50945  0.77893  0.13845  1.0000
  H   H1587     1.0  0.59862  0.97264  0.61741  1.0000
  C   C1980     1.0  0.67508  0.80154  0.03230  1.0000
  H   H1588     1.0  0.63079  0.94116  0.21695  1.0000
  C   C1981     1.0  0.71034  0.76850  0.43293  1.0000
  H   H1589     1.0  0.66403  0.75346  0.59655  1.0000
  C   C1982     1.0  0.66798  0.94033  0.28920  1.0000
  C   C1983     1.0  0.66302  0.77182  0.88988  1.0000
  C   C1984     1.0  0.67417  0.77846  0.86087  1.0000
  C   C1985     1.0  0.68420  0.76819  0.83579  1.0000
  C   C1986     1.0  0.73957  0.80123  0.37282  1.0000
  H   H1590     1.0  0.67496  0.79167  0.85747  1.0000
  H   H1591     1.0  0.69252  0.77354  0.81335  1.0000
  C   C1987     1.0  0.67969  0.79953  0.99130  1.0000
  H   H1592     1.0  0.68521  0.90920  0.37082  1.0000
  H   H1593     1.0  0.71251  0.92449  0.36614  1.0000
  C   C1988     1.0  0.65858  0.76477  0.13276  1.0000
  C   C1989     1.0  0.66776  0.76755  0.16743  1.0000
  H   H1594     1.0  0.70961  0.77804  0.40926  1.0000
  H   H1595     1.0  0.54251  0.94238  0.48917  1.0000
  H   H1596     1.0  0.67395  0.86339  0.84993  1.0000
  H   H1597     1.0  0.66413  0.77752  0.18708  1.0000
  C   C1990     1.0  0.54907  0.97724  0.89025  1.0000
  C   C1991     1.0  0.72244  0.76880  0.46229  1.0000
  H   H1598     1.0  0.50726  0.81258  0.05760  1.0000
  H   H1599     1.0  0.68380  0.74877  0.53962  1.0000
  C   C1992     1.0  0.73099  0.76245  0.05690  1.0000
  C   C1993     1.0  0.56487  0.86148  0.16098  1.0000
  H   H1600     1.0  0.73636  0.89590  0.27266  1.0000
  C   C1994     1.0  0.55476  0.96525  0.47926  1.0000
  C   C1995     1.0  0.70017  0.74341  0.46416  1.0000
  H   H1601     1.0  0.51385  0.88578  0.00551  1.0000
  P   P64       1.0  0.59716  0.98003  0.52896  1.0000
  H   H1602     1.0  0.68394  0.82021  0.32078  1.0000
  H   H1603     1.0  0.70312  0.83295  0.36694  1.0000
  H   H1604     1.0  0.65608  0.95550  0.19591  1.0000
  H   H1605     1.0  0.70185  0.75924  0.90816  1.0000
  H   H1606     1.0  0.50764  0.84223  0.07114  1.0000
  S   S283      1.0  0.57729  0.75155  0.99268  1.0000
  S   S284      1.0  0.73745  0.77544  0.64432  1.0000
  C   C1996     1.0  0.53431  0.78476  0.12478  1.0000
  H   H1607     1.0  0.69308  0.78480  0.94789  1.0000
  C   C1997     1.0  0.69923  0.75580  0.43383  1.0000
  C   C1998     1.0  0.66885  0.94861  0.25101  1.0000
  C   C1999     1.0  0.72118  0.83764  0.31949  1.0000
  H   H1608     1.0  0.66967  0.97344  0.30806  1.0000
  C   C2000     1.0  0.74059  0.76913  0.87977  1.0000
  H   H1609     1.0  0.73150  0.93934  0.57010  1.0000
  H   H1610     1.0  0.73038  0.77531  0.04759  1.0000
  C   C2001     1.0  0.51121  0.94927  0.98288  1.0000
  H   H1611     1.0  0.73077  0.79491  0.57189  1.0000
  C   C2002     1.0  0.74083  0.98234  0.45702  1.0000
  C   C2003     1.0  0.69641  0.77537  0.00989  1.0000
  C   C2004     1.0  0.50391  0.87386  0.10349  1.0000
  C   C2005     1.0  0.70327  0.79366  0.17815  1.0000
  H   H1612     1.0  0.63087  0.85618  0.19611  1.0000
  C   C2006     1.0  0.62978  0.98396  0.28831  1.0000
  S   S285      1.0  0.73360  0.76119  0.21367  1.0000
  H   H1613     1.0  0.54983  0.96600  0.07657  1.0000
  H   H1614     1.0  0.70398  0.78762  0.27681  1.0000
  H   H1615     1.0  0.67454  0.80767  0.96789  1.0000
  H   H1616     1.0  0.70293  0.78392  0.20107  1.0000
  P   P65       1.0  0.70885  0.75763  0.99523  1.0000
  H   H1617     1.0  0.67673  0.79154  0.09367  1.0000
  C   C2007     1.0  0.64036  0.93236  0.27442  1.0000
  C   C2008     1.0  0.67017  0.94692  0.39951  1.0000
  H   H1618     1.0  0.71583  0.90626  0.22271  1.0000
  C   C2009     1.0  0.67790  0.93503  0.37463  1.0000
  H   H1619     1.0  0.62523  0.98400  0.58075  1.0000
  H   H1620     1.0  0.66796  0.95941  0.38818  1.0000
  C   C2010     1.0  0.72543  0.83599  0.27815  1.0000
  H   H1621     1.0  0.65326  0.79816  0.24923  1.0000
  H   H1622     1.0  0.71869  0.80060  0.08192  1.0000
  C   C2011     1.0  0.51345  0.87559  0.06738  1.0000
  C   C2012     1.0  0.64145  0.96312  0.57107  1.0000
  C   C2013     1.0  0.64436  0.94867  0.54947  1.0000
  C   C2014     1.0  0.63273  0.94350  0.52233  1.0000
  C   C2015     1.0  0.61820  0.95278  0.51676  1.0000
  C   C2016     1.0  0.52072  0.77476  0.12357  1.0000
  H   H1623     1.0  0.50791  0.92448  0.06768  1.0000
  C   C2017     1.0  0.73782  0.76689  0.95355  1.0000
  C   C2018     1.0  0.62693  0.97240  0.56553  1.0000
  H   H1624     1.0  0.73726  0.84000  0.26684  1.0000
  C   C2019     1.0  0.64131  0.94067  0.23661  1.0000
  H   H1625     1.0  0.62908  0.92651  0.28376  1.0000
  C   C2020     1.0  0.50415  0.93263  0.04264  1.0000
  C   C2021     1.0  0.66539  0.94281  0.43967  1.0000
  C   C2022     1.0  0.70847  0.96389  0.33892  1.0000
  H   H1626     1.0  0.63459  0.82933  0.16190  1.0000
  H   H1627     1.0  0.72966  0.84304  0.33992  1.0000
  H   H1628     1.0  0.65356  0.74938  0.91559  1.0000
  C   C2023     1.0  0.69148  0.77732  0.05100  1.0000
  C   C2024     1.0  0.71454  0.76226  0.91150  1.0000
  H   H1629     1.0  0.55011  0.98601  0.01913  1.0000
  C   C2025     1.0  0.71238  0.80300  0.11076  1.0000
  C   C2026     1.0  0.58224  0.98240  0.96728  1.0000
  H   H1630     1.0  0.68992  0.75557  0.41087  1.0000
  H   H1631     1.0  0.61728  0.97803  0.23306  1.0000
  S   S286      1.0  0.72841  0.77514  0.33106  1.0000
  H   H1632     1.0  0.65073  0.96748  0.59090  1.0000
  H   H1633     1.0  0.65588  0.94182  0.55288  1.0000
  H   H1634     1.0  0.63516  0.93253  0.50481  1.0000
  H   H1635     1.0  0.73105  0.77866  0.46153  1.0000
  H   H1636     1.0  0.69538  0.76848  0.07441  1.0000
  H   H1637     1.0  0.59040  0.98886  0.67784  1.0000
  H   H1638     1.0  0.65836  0.81093  0.17770  1.0000
  C   C2027     1.0  0.53844  0.98239  0.03243  1.0000
  H   H1639     1.0  0.69113  0.83359  0.15962  1.0000
  C   C2028     1.0  0.71146  0.79060  0.14097  1.0000
  H   H1640     1.0  0.67433  0.84609  0.26409  1.0000
  H   H1641     1.0  0.72594  0.98187  0.35469  1.0000
  H   H1642     1.0  0.56163  0.76145  0.06945  1.0000
  C   C2029     1.0  0.63208  0.98035  0.33020  1.0000
  C   C2030     1.0  0.58557  0.98017  0.00913  1.0000
  C   C2031     1.0  0.66210  0.75470  0.89364  1.0000
  H   H1643     1.0  0.73454  0.90517  0.34444  1.0000
  C   C2032     1.0  0.72160  0.75098  0.03723  1.0000
  C   C2033     1.0  0.72573  0.90981  0.32233  1.0000
  H   H1644     1.0  0.68575  0.89075  0.85887  1.0000
  H   H1645     1.0  0.64577  0.77210  0.28288  1.0000
  H   H1646     1.0  0.52363  0.95860  0.11091  1.0000
  H   H1647     1.0  0.59744  0.97706  0.43940  1.0000
  C   C2034     1.0  0.70250  0.92137  0.26625  1.0000
  C   C2035     1.0  0.68084  0.79036  0.06208  1.0000
  C   C2036     1.0  0.67536  0.91481  0.43024  1.0000
  C   C2037     1.0  0.65554  0.94879  0.22490  1.0000
  C   C2038     1.0  0.54204  0.98233  0.92747  1.0000
  C   C2039     1.0  0.72129  0.76285  0.95042  1.0000
  H   H1648     1.0  0.52041  0.95396  0.96162  1.0000
  C   C2040     1.0  0.69026  0.78646  0.98004  1.0000
  H   H1649     1.0  0.60965  0.94898  0.49436  1.0000
  H   H1650     1.0  0.55195  0.98270  0.82566  1.0000
  C   C2041     1.0  0.54907  0.77992  0.10546  1.0000
  C   C2042     1.0  0.71395  0.97989  0.34283  1.0000
  S   S287      1.0  0.74211  0.90683  0.43353  1.0000
  C   C2043     1.0  0.55669  0.87900  0.95502  1.0000
  H   H1651     1.0  0.71838  0.82742  0.22006  1.0000
  C   C2044     1.0  0.71318  0.92082  0.33461  1.0000
  H   H1652     1.0  0.69361  0.92553  0.24407  1.0000
  C   C2045     1.0  0.52360  0.96705  0.08484  1.0000
  C   C2046     1.0  0.71512  0.91038  0.25395  1.0000
  C   C2047     1.0  0.67211  0.74442  0.86850  1.0000
  C   C2048     1.0  0.53836  0.97124  0.06557  1.0000
  H   H1653     1.0  0.55961  0.78767  0.10621  1.0000
  C   C2049     1.0  0.72671  0.90458  0.28200  1.0000
  H   H1654     1.0  0.54486  0.97521  0.95479  1.0000
  C   C2050     1.0  0.66828  0.92687  0.45530  1.0000
  C   C2051     1.0  0.68228  0.97497  0.31629  1.0000
  C   C2052     1.0  0.70138  0.92666  0.30681  1.0000
  C   C2053     1.0  0.50831  0.74823  0.01567  1.0000
  C   C2054     1.0  0.60901  0.91164  0.96415  1.0000
  C   C2055     1.0  0.60660  0.91562  0.00521  1.0000
  C   C2056     1.0  0.61278  0.90505  0.03580  1.0000
  C   C2057     1.0  0.62130  0.89046  0.02556  1.0000
  C   C2058     1.0  0.62386  0.88642  0.98437  1.0000
  C   C2059     1.0  0.61764  0.89713  0.95372  1.0000
  P   P66       1.0  0.63589  0.86827  0.97015  1.0000
  C   C2060     1.0  0.65179  0.87518  0.93472  1.0000
  C   C2061     1.0  0.64555  0.85904  0.01471  1.0000
  C   C2062     1.0  0.65966  0.86575  0.03030  1.0000
  C   C2063     1.0  0.66700  0.85865  0.06500  1.0000
  C   C2064     1.0  0.66027  0.84486  0.08446  1.0000
  C   C2065     1.0  0.64616  0.83821  0.06938  1.0000
  C   C2066     1.0  0.63879  0.84528  0.03480  1.0000
  C   C2067     1.0  0.65745  0.86541  0.90211  1.0000
  C   C2068     1.0  0.66967  0.87101  0.87500  1.0000
  C   C2069     1.0  0.67632  0.88642  0.88003  1.0000
  C   C2070     1.0  0.67076  0.89625  0.91225  1.0000
  C   C2071     1.0  0.65857  0.89067  0.93949  1.0000
  C   C2072     1.0  0.62346  0.85313  0.94714  1.0000
  C   C2073     1.0  0.60700  0.85673  0.93799  1.0000
  C   C2074     1.0  0.59755  0.84482  0.92056  1.0000
  C   C2075     1.0  0.60440  0.82924  0.91240  1.0000
  C   C2076     1.0  0.62068  0.82550  0.92180  1.0000
  C   C2077     1.0  0.63013  0.83731  0.93944  1.0000
  H   H1655     1.0  0.60435  0.91995  0.94046  1.0000
  H   H1656     1.0  0.60003  0.92694  0.01341  1.0000
  H   H1657     1.0  0.61088  0.90814  0.06765  1.0000
  H   H1658     1.0  0.62576  0.88240  0.04998  1.0000
  H   H1659     1.0  0.61963  0.89432  0.92174  1.0000
  H   H1660     1.0  0.66497  0.87651  0.01596  1.0000
  H   H1661     1.0  0.67784  0.86392  0.07692  1.0000
  H   H1662     1.0  0.66592  0.83936  0.11130  1.0000
  H   H1663     1.0  0.64085  0.82753  0.08440  1.0000
  H   H1664     1.0  0.62776  0.83999  0.02400  1.0000
  H   H1665     1.0  0.65250  0.85351  0.89709  1.0000
  H   H1666     1.0  0.67586  0.90823  0.91606  1.0000
  H   H1667     1.0  0.65443  0.89851  0.96425  1.0000
  H   H1668     1.0  0.60125  0.86846  0.94530  1.0000
  H   H1669     1.0  0.58476  0.84746  0.91465  1.0000
  H   H1670     1.0  0.59698  0.81987  0.89985  1.0000
  H   H1671     1.0  0.62591  0.81331  0.91618  1.0000
  H   H1672     1.0  0.64260  0.83398  0.94752  1.0000
  H   H1673     1.0  0.65995  0.95214  0.45920  1.0000
  H   H1674     1.0  0.66531  0.92397  0.48705  1.0000
  C   C2078     1.0  0.68142  0.75736  0.17709  1.0000
  H   H1675     1.0  0.57488  0.85330  0.17035  1.0000
  H   H1676     1.0  0.71704  0.77853  0.13571  1.0000
  P   P67       1.0  0.68497  0.94066  0.32360  1.0000
  P   P68       1.0  0.53390  0.86640  0.06416  1.0000
  C   C2079     1.0  0.54409  0.86948  0.11174  1.0000
  C   C2080     1.0  0.53328  0.84463  0.05403  1.0000
  C   C2081     1.0  0.54747  0.83605  0.04012  1.0000
  C   C2082     1.0  0.54717  0.81922  0.03259  1.0000
  C   C2083     1.0  0.53268  0.81078  0.03875  1.0000
  C   C2084     1.0  0.51849  0.81916  0.05269  1.0000
  C   C2085     1.0  0.51876  0.83602  0.06034  1.0000
  C   C2086     1.0  0.54002  0.88338  0.13501  1.0000
  C   C2087     1.0  0.54824  0.88624  0.17093  1.0000
  C   C2088     1.0  0.56076  0.87538  0.18375  1.0000
  H   H1677     1.0  0.65073  0.86437  0.24705  1.0000
  C   C2089     1.0  0.55661  0.85853  0.12508  1.0000
  C   C2090     1.0  0.54531  0.87723  0.02437  1.0000
  C   C2091     1.0  0.54757  0.87063  0.98525  1.0000
  H   H1678     1.0  0.73293  0.75696  0.51492  1.0000
  C   C2092     1.0  0.56334  0.89415  0.96334  1.0000
  C   C2093     1.0  0.56064  0.90106  0.00166  1.0000
  C   C2094     1.0  0.55159  0.89269  0.03199  1.0000
  H   H1679     1.0  0.65243  0.92590  0.33010  1.0000
  H   H1680     1.0  0.55717  0.96644  0.88946  1.0000
  H   H1681     1.0  0.72969  0.74781  0.58954  1.0000
  C   C2095     1.0  0.67990  0.91878  0.38981  1.0000
  C   C2096     1.0  0.50882  0.97382  0.07059  1.0000
  H   H1682     1.0  0.55883  0.84233  0.03514  1.0000
  H   H1683     1.0  0.55827  0.81276  0.02204  1.0000
  H   H1684     1.0  0.53250  0.79772  0.03284  1.0000
  C   C2097     1.0  0.56815  0.97454  0.48908  1.0000
  C   C2098     1.0  0.50884  0.98472  0.03683  1.0000
  H   H1685     1.0  0.53073  0.89228  0.12510  1.0000
  H   H1686     1.0  0.54510  0.89713  0.18828  1.0000
  H   H1687     1.0  0.56756  0.87796  0.21074  1.0000
  H   H1688     1.0  0.69615  0.76169  0.31130  1.0000
  C   C2099     1.0  0.69665  0.82150  0.15463  1.0000
  C   C2100     1.0  0.72416  0.76531  0.87641  1.0000
  C   C2101     1.0  0.57995  0.96805  0.51602  1.0000
  H   H1689     1.0  0.57055  0.90056  0.94012  1.0000
  H   H1690     1.0  0.56576  0.91283  0.00815  1.0000
  H   H1691     1.0  0.54972  0.89824  0.06154  1.0000
  H   H1692     1.0  0.56278  0.93115  0.53867  1.0000
  H   H1693     1.0  0.71647  0.95365  0.34778  1.0000
  C   C2102     1.0  0.70622  0.83195  0.33468  1.0000
  C   C2103     1.0  0.69543  0.82472  0.30847  1.0000
  C   C2104     1.0  0.69955  0.82310  0.26678  1.0000
  C   C2105     1.0  0.71467  0.82877  0.25178  1.0000
  P   P69       1.0  0.68548  0.81353  0.23360  1.0000
  C   C2106     1.0  0.67932  0.79474  0.25957  1.0000
  C   C2107     1.0  0.66804  0.82701  0.22255  1.0000
  C   C2108     1.0  0.65682  0.82255  0.19319  1.0000
  C   C2109     1.0  0.64338  0.83297  0.18399  1.0000
  C   C2110     1.0  0.64124  0.84805  0.20333  1.0000
  C   C2111     1.0  0.65245  0.85266  0.23213  1.0000
  C   C2112     1.0  0.66580  0.84220  0.24179  1.0000
  C   C2113     1.0  0.69121  0.78439  0.27804  1.0000
  C   C2114     1.0  0.68681  0.76967  0.29764  1.0000
  C   C2115     1.0  0.67046  0.76519  0.29922  1.0000
  C   C2116     1.0  0.65845  0.77560  0.28184  1.0000
  C   C2117     1.0  0.66281  0.79041  0.26247  1.0000
  C   C2118     1.0  0.69573  0.80911  0.18527  1.0000
  C   C2119     1.0  0.69264  0.96127  0.32506  1.0000
  C   C2120     1.0  0.52178  0.75972  0.10312  1.0000
  H   H1694     1.0  0.66659  0.81141  0.04078  1.0000
  H   H1695     1.0  0.73912  0.95930  0.51648  1.0000
  H   H1696     1.0  0.67438  0.75124  0.01757  1.0000
  C   C2121     1.0  0.66334  0.75187  0.10716  1.0000
  H   H1697     1.0  0.53342  0.79632  0.14055  1.0000
  P   P70       1.0  0.50420  0.74669  0.10103  1.0000
  C   C2122     1.0  0.55021  0.76513  0.08472  1.0000
  Fe  Fe145     1.0  0.74008  0.75740  0.69960  1.0000
  C   C2123     1.0  0.51585  0.93819  0.01415  1.0000
  C   C2124     1.0  0.67415  0.74467  0.60035  1.0000
  H   H1698     1.0  0.72985  0.93898  0.40994  1.0000
  C   C2125     1.0  0.50687  0.88442  0.03386  1.0000
  H   H1699     1.0  0.71889  0.76444  0.84654  1.0000
  C   C2126     1.0  0.52365  0.98902  0.01729  1.0000
  H   H1700     1.0  0.58641  0.94750  0.55645  1.0000
  H   H1701     1.0  0.73169  0.79707  0.39767  1.0000
  H   H1702     1.0  0.54242  0.85900  0.97802  1.0000
  H   H1703     1.0  0.72925  0.74412  0.38372  1.0000
  H   H1704     1.0  0.66711  0.75363  0.31378  1.0000
  C   C2127     1.0  0.56433  0.94322  0.52464  1.0000
  C   C2128     1.0  0.55289  0.94956  0.49687  1.0000
  H   H1705     1.0  0.55868  0.87369  0.92521  1.0000
  C   C2129     1.0  0.54613  0.98638  0.85429  1.0000
  C   C2130     1.0  0.72347  0.75638  0.49259  1.0000
  C   C2131     1.0  0.57776  0.95247  0.53445  1.0000
  H   H1706     1.0  0.51102  0.74945  0.95003  1.0000
  H   H1707     1.0  0.73501  0.97188  0.44445  1.0000
  H   H1708     1.0  0.56928  0.98677  0.47566  1.0000
  C   C2132     1.0  0.59280  0.98467  0.61299  1.0000
  H   H1709     1.0  0.49739  0.97054  0.08576  1.0000
  H   H1710     1.0  0.53779  0.74387  0.06642  1.0000
  H   H1711     1.0  0.49472  0.91574  0.13379  1.0000
  C   C2133     1.0  0.71235  0.74354  0.49372  1.0000
  H   H1712     1.0  0.54581  0.97023  0.45800  1.0000
  C   C2134     1.0  0.60234  0.98881  0.44668  1.0000
  C   C2135     1.0  0.49370  0.92648  0.15261  1.0000
  H   H1713     1.0  0.68807  0.75928  0.20460  1.0000
  C   C2136     1.0  0.74143  0.75733  0.08827  1.0000
  C   C2137     1.0  0.68610  0.74437  0.15180  1.0000
  C   C2138     1.0  0.74036  0.79268  0.33599  1.0000
  S   S288      1.0  0.64537  0.99287  0.35816  1.0000
  C   C2139     1.0  0.74151  0.79986  0.58511  1.0000
  S   S289      1.0  0.68394  0.98978  0.42447  1.0000
  H   H1714     1.0  0.59466  0.99181  0.06193  1.0000
  C   C2140     1.0  0.59047  0.99137  0.57349  1.0000
  C   C2141     1.0  0.59199  0.99327  0.02981  1.0000
  C   C2142     1.0  0.74317  0.93781  0.55388  1.0000
  S   S290      1.0  0.88822  0.23674  0.89092  1.0000
  H   H1715     1.0  0.83113  0.05952  0.29872  1.0000
  C   C2143     1.0  0.96902  0.01491  0.42828  1.0000
  C   C2144     1.0  0.92855  0.12061  0.60432  1.0000
  C   C2145     1.0  0.96573  0.01282  0.21806  1.0000
  H   H1716     1.0  0.77340  0.23053  0.94140  1.0000
  Fe  Fe146     1.0  0.77953  0.14363  0.45124  1.0000
  S   S291      1.0  0.75573  0.13709  0.42486  1.0000
  S   S292      1.0  0.78355  0.16288  0.49875  1.0000
  Fe  Fe147     1.0  0.79940  0.11733  0.40297  1.0000
  S   S293      1.0  0.77668  0.10871  0.37249  1.0000
  S   S294      1.0  0.82562  0.10609  0.40659  1.0000
  Fe  Fe148     1.0  0.76999  0.13593  0.36524  1.0000
  S   S295      1.0  0.75708  0.14647  0.30899  1.0000
  Fe  Fe149     1.0  0.76375  0.11050  0.43386  1.0000
  H   H1717     1.0  0.96854  0.12572  0.81558  1.0000
  S   S296      1.0  0.79350  0.14430  0.39103  1.0000
  S   S297      1.0  0.78672  0.11730  0.46510  1.0000
  Fe  Fe150     1.0  0.97402  0.18658  0.95595  1.0000
  S   S298      1.0  0.95944  0.21124  0.94862  1.0000
  H   H1718     1.0  0.74896  0.22961  0.46563  1.0000
  S   S299      1.0  0.96671  0.16015  0.95300  1.0000
  Fe  Fe151     1.0  0.91757  0.07920  0.31971  1.0000
  S   S300      1.0  0.93284  0.06796  0.26780  1.0000
  S   S301      1.0  0.89073  0.08555  0.30400  1.0000
  Fe  Fe152     1.0  0.94750  0.07988  0.37524  1.0000
  S   S302      1.0  0.96413  0.06955  0.32644  1.0000
  S   S303      1.0  0.95560  0.08307  0.44116  1.0000
  Fe  Fe153     1.0  0.95133  0.08692  0.28159  1.0000
  S   S304      1.0  0.96745  0.10237  0.23674  1.0000
  Fe  Fe154     1.0  0.94427  0.05156  0.31679  1.0000
  S   S305      1.0  0.95460  0.02500  0.31764  1.0000
  S   S306      1.0  0.93579  0.09868  0.33179  1.0000
  S   S307      1.0  0.92786  0.06139  0.36723  1.0000
  C   C2146     1.0  0.94540  0.00546  0.31866  1.0000
  H   H1719     1.0  0.95536  0.07468  0.19291  1.0000
  H   H1720     1.0  0.92136  0.01429  0.30187  1.0000
  C   C2147     1.0  0.96566  0.12940  0.10937  1.0000
  C   C2148     1.0  0.97911  0.13057  0.13471  1.0000
  C   C2149     1.0  0.97942  0.12219  0.17322  1.0000
  C   C2150     1.0  0.96631  0.11253  0.18734  1.0000
  C   C2151     1.0  0.95291  0.11125  0.16185  1.0000
  H   H1721     1.0  0.76582  0.22705  0.33346  1.0000
  C   C2152     1.0  0.97225  0.22715  0.72157  1.0000
  C   C2153     1.0  0.84684  0.99556  0.33109  1.0000
  S   S308      1.0  0.76585  0.21832  0.22995  1.0000
  H   H1722     1.0  0.95659  0.17468  0.87249  1.0000
  H   H1723     1.0  0.95580  0.20485  0.86350  1.0000
  H   H1724     1.0  0.96790  0.07898  0.52234  1.0000
  C   C2154     1.0  0.90771  0.22980  0.90959  1.0000
  C   C2155     1.0  0.75064  0.15046  0.58196  1.0000
  C   C2156     1.0  0.77695  0.07362  0.28083  1.0000
  C   C2157     1.0  0.93919  0.21779  0.93453  1.0000
  C   C2158     1.0  0.92790  0.20700  0.91956  1.0000
  C   C2159     1.0  0.91233  0.21299  0.90699  1.0000
  C   C2160     1.0  0.93455  0.23458  0.93729  1.0000
  H   H1725     1.0  0.94223  0.11840  0.10394  1.0000
  H   H1726     1.0  0.93122  0.19407  0.91713  1.0000
  C   C2161     1.0  0.86479  0.23365  0.00515  1.0000
  H   H1727     1.0  0.90507  0.10985  0.59724  1.0000
  C   C2162     1.0  0.97218  0.06839  0.62423  1.0000
  C   C2163     1.0  0.84383  0.10138  0.37723  1.0000
  C   C2164     1.0  0.85782  0.09532  0.39774  1.0000
  C   C2165     1.0  0.87244  0.09097  0.37609  1.0000
  C   C2166     1.0  0.87318  0.09231  0.33338  1.0000
  C   C2167     1.0  0.85921  0.09839  0.31281  1.0000
  C   C2168     1.0  0.84470  0.10309  0.33454  1.0000
  H   H1728     1.0  0.85734  0.09396  0.43072  1.0000
  H   H1729     1.0  0.88300  0.08623  0.39240  1.0000
  H   H1730     1.0  0.85961  0.09946  0.27978  1.0000
  H   H1731     1.0  0.83415  0.10783  0.31823  1.0000
  C   C2169     1.0  0.75941  0.16671  0.28847  1.0000
  C   C2170     1.0  0.77135  0.23329  0.81343  1.0000
  C   C2171     1.0  0.75062  0.18836  0.23956  1.0000
  C   C2172     1.0  0.76288  0.19851  0.25238  1.0000
  C   C2173     1.0  0.87582  0.99618  0.34415  1.0000
  C   C2174     1.0  0.77152  0.17697  0.30173  1.0000
  H   H1732     1.0  0.76073  0.02021  0.50267  1.0000
  H   H1733     1.0  0.92283  0.19090  0.08836  1.0000
  C   C2175     1.0  0.85066  0.19661  0.05583  1.0000
  H   H1734     1.0  0.77969  0.17264  0.32549  1.0000
  C   C2176     1.0  0.76823  0.17710  0.51596  1.0000
  H   H1735     1.0  0.88708  0.00288  0.34491  1.0000
  C   C2177     1.0  0.92964  0.16787  0.11803  1.0000
  H   H1736     1.0  0.90384  0.20456  0.89482  1.0000
  C   C2178     1.0  0.76051  0.19991  0.56048  1.0000
  C   C2179     1.0  0.77246  0.18900  0.54388  1.0000
  C   C2180     1.0  0.99204  0.22968  0.01938  1.0000
  H   H1737     1.0  0.94331  0.99987  0.21274  1.0000
  H   H1738     1.0  0.76393  0.20885  0.58237  1.0000
  H   H1739     1.0  0.78503  0.18959  0.55326  1.0000
  H   H1740     1.0  0.82544  0.18842  0.00143  1.0000
  C   C2181     1.0  0.97263  0.05480  0.20595  1.0000
  C   C2182     1.0  0.80215  0.07543  0.47235  1.0000
  C   C2183     1.0  0.78619  0.07193  0.48528  1.0000
  C   C2184     1.0  0.77680  0.06175  0.46214  1.0000
  C   C2185     1.0  0.78323  0.05529  0.42574  1.0000
  C   C2186     1.0  0.79946  0.05828  0.41326  1.0000
  C   C2187     1.0  0.80875  0.06868  0.43644  1.0000
  C   C2188     1.0  0.80141  0.03028  0.35562  1.0000
  C   C2189     1.0  0.76442  0.99490  0.48516  1.0000
  C   C2190     1.0  0.98527  0.06096  0.12703  1.0000
  C   C2191     1.0  0.99165  0.05565  0.68733  1.0000
  H   H1741     1.0  0.77547  0.22311  0.79462  1.0000
  H   H1742     1.0  0.96510  0.07329  0.59891  1.0000
  H   H1743     1.0  0.80922  0.08392  0.48922  1.0000
  H   H1744     1.0  0.78085  0.07760  0.51235  1.0000
  H   H1745     1.0  0.76427  0.05945  0.47164  1.0000
  H   H1746     1.0  0.77539  0.04826  0.40704  1.0000
  C   C2192     1.0  0.78169  0.23939  0.84245  1.0000
  C   C2193     1.0  0.96852  0.12100  0.78485  1.0000
  H   H1747     1.0  0.96774  0.05273  0.23671  1.0000
  C   C2194     1.0  0.96353  0.18035  0.84758  1.0000
  C   C2195     1.0  0.81644  0.21882  0.15555  1.0000
  H   H1748     1.0  0.83227  0.04105  0.42355  1.0000
  C   C2196     1.0  0.85500  0.14624  0.21379  1.0000
  C   C2197     1.0  0.85149  0.14258  0.25500  1.0000
  C   C2198     1.0  0.86423  0.13881  0.28166  1.0000
  C   C2199     1.0  0.88049  0.13886  0.26729  1.0000
  C   C2200     1.0  0.88417  0.14312  0.22624  1.0000
  C   C2201     1.0  0.87127  0.14628  0.19930  1.0000
  P   P71       1.0  0.90507  0.14169  0.20695  1.0000
  C   C2202     1.0  0.91898  0.14444  0.24797  1.0000
  C   C2203     1.0  0.90731  0.12134  0.18643  1.0000
  C   C2204     1.0  0.90886  0.11896  0.14409  1.0000
  C   C2205     1.0  0.90986  0.10303  0.12881  1.0000
  C   C2206     1.0  0.90887  0.08941  0.15554  1.0000
  C   C2207     1.0  0.90686  0.09172  0.19754  1.0000
  C   C2208     1.0  0.90619  0.10760  0.21298  1.0000
  C   C2209     1.0  0.91619  0.15748  0.27488  1.0000
  C   C2210     1.0  0.92710  0.15999  0.30623  1.0000
  C   C2211     1.0  0.94100  0.14969  0.31043  1.0000
  C   C2212     1.0  0.94403  0.13693  0.28319  1.0000
  C   C2213     1.0  0.93307  0.13428  0.25208  1.0000
  C   C2214     1.0  0.91032  0.15744  0.16940  1.0000
  C   C2215     1.0  0.92527  0.15595  0.14745  1.0000
  C   C2216     1.0  0.90028  0.17160  0.16330  1.0000
  H   H1749     1.0  0.84507  0.14877  0.19299  1.0000
  H   H1750     1.0  0.83890  0.14230  0.26620  1.0000
  H   H1751     1.0  0.86151  0.13541  0.31333  1.0000
  H   H1752     1.0  0.89010  0.13516  0.28814  1.0000
  H   H1753     1.0  0.87378  0.14852  0.16703  1.0000
  H   H1754     1.0  0.90932  0.12929  0.12268  1.0000
  H   H1755     1.0  0.91142  0.10126  0.09621  1.0000
  H   H1756     1.0  0.90959  0.07707  0.14376  1.0000
  H   H1757     1.0  0.90568  0.08121  0.21832  1.0000
  H   H1758     1.0  0.90464  0.10915  0.24567  1.0000
  H   H1759     1.0  0.90556  0.16568  0.27164  1.0000
  H   H1760     1.0  0.92481  0.16995  0.32720  1.0000
  H   H1761     1.0  0.94949  0.15157  0.33467  1.0000
  H   H1762     1.0  0.95490  0.12902  0.28621  1.0000
  H   H1763     1.0  0.93572  0.12435  0.23132  1.0000
  H   H1764     1.0  0.93358  0.14553  0.15303  1.0000
  H   H1765     1.0  0.88918  0.17356  0.18141  1.0000
  C   C2217     1.0  0.81232  0.21304  0.92274  1.0000
  C   C2218     1.0  0.82938  0.05066  0.36175  1.0000
  H   H1766     1.0  0.97405  0.15740  0.82652  1.0000
  H   H1767     1.0  0.76147  0.15536  0.59501  1.0000
  H   H1768     1.0  0.80379  0.10438  0.28955  1.0000
  Fe  Fe155     1.0  0.99155  0.15498  0.92255  1.0000
  C   C2219     1.0  0.97334  0.17062  0.82156  1.0000
  C   C2220     1.0  0.94935  0.10306  0.63673  1.0000
  H   H1769     1.0  0.76519  0.18815  0.80724  1.0000
  C   C2221     1.0  0.91934  0.18165  0.11112  1.0000
  C   C2222     1.0  0.95621  0.99882  0.21954  1.0000
  H   H1770     1.0  0.81057  0.18716  0.93710  1.0000
  H   H1771     1.0  0.81602  0.23914  0.91663  1.0000
  C   C2223     1.0  0.80240  0.02421  0.31582  1.0000
  H   H1772     1.0  0.76424  0.13193  0.54820  1.0000
  P   P72       1.0  0.96989  0.10003  0.65505  1.0000
  H   H1773     1.0  0.79587  0.02405  0.41924  1.0000
  C   C2224     1.0  0.98626  0.07215  0.68749  1.0000
  H   H1774     1.0  0.87454  0.20413  0.03303  1.0000
  C   C2225     1.0  0.91736  0.10800  0.60858  1.0000
  C   C2226     1.0  0.85402  0.23254  0.03922  1.0000
  C   C2227     1.0  0.97463  0.13042  0.75194  1.0000
  C   C2228     1.0  0.96272  0.03102  0.43175  1.0000
  H   H1775     1.0  0.97957  0.13181  0.68737  1.0000
  C   C2229     1.0  0.92900  0.00355  0.30903  1.0000
  H   H1776     1.0  0.78281  0.20052  0.29375  1.0000
  C   C2230     1.0  0.87565  0.17949  0.05708  1.0000
  C   C2231     1.0  0.96556  0.06721  0.18122  1.0000
  C   C2232     1.0  0.79621  0.01991  0.38804  1.0000
  H   H1777     1.0  0.77795  0.05053  0.31396  1.0000
  H   H1778     1.0  0.86128  0.06011  0.29682  1.0000
  H   H1779     1.0  0.82089  0.07212  0.42621  1.0000
  C   C2233     1.0  0.90475  0.18360  0.13401  1.0000
  H   H1780     1.0  0.95797  0.09809  0.80388  1.0000
  H   H1781     1.0  0.95294  0.12815  0.61548  1.0000
  H   H1782     1.0  0.74991  0.19274  0.74323  1.0000
  P   P73       1.0  0.80724  0.05107  0.36459  1.0000
  C   C2234     1.0  0.83844  0.04511  0.39560  1.0000
  H   H1783     1.0  0.86121  0.01729  0.32445  1.0000
  C   C2235     1.0  0.80548  0.08086  0.32117  1.0000
  S   S309      1.0  0.78356  0.23689  0.70795  1.0000
  C   C2236     1.0  0.98964  0.08406  0.43347  1.0000
  H   H1784     1.0  0.80669  0.03194  0.29054  1.0000
  C   C2237     1.0  0.98598  0.04519  0.19117  1.0000
  C   C2238     1.0  0.74756  0.21992  0.44414  1.0000
  C   C2239     1.0  0.82829  0.21612  0.12459  1.0000
  H   H1785     1.0  0.98925  0.13804  0.12478  1.0000
  Fe  Fe156     1.0  0.74986  0.23073  0.18103  1.0000
  C   C2240     1.0  0.95266  0.23699  0.81586  1.0000
  C   C2241     1.0  0.86127  0.00428  0.33256  1.0000
  H   H1786     1.0  0.97036  0.10759  0.56647  1.0000
  C   C2242     1.0  0.95939  0.03750  0.47031  1.0000
  C   C2243     1.0  0.93821  0.22852  0.81029  1.0000
  C   C2244     1.0  0.82474  0.22002  0.08359  1.0000
  C   C2245     1.0  0.92294  0.23652  0.81599  1.0000
  C   C2246     1.0  0.85557  0.04530  0.39403  1.0000
  C   C2247     1.0  0.97196  0.07042  0.14197  1.0000
  C   C2248     1.0  0.75526  0.00959  0.48987  1.0000
  H   H1787     1.0  0.74503  0.07494  0.39125  1.0000
  C   C2249     1.0  0.97498  0.12421  0.71244  1.0000
  H   H1788     1.0  0.94276  0.10383  0.17183  1.0000
  S   S310      1.0  0.96406  0.14022  0.06091  1.0000
  C   C2250     1.0  0.96221  0.02781  0.50546  1.0000
  C   C2251     1.0  0.74896  0.17252  0.25741  1.0000
  C   C2252     1.0  0.79767  0.00820  0.30834  1.0000
  C   C2253     1.0  0.98465  0.10967  0.62103  1.0000
  P   P74       1.0  0.83991  0.21589  0.04359  1.0000
  H   H1789     1.0  0.74808  0.23623  0.78427  1.0000
  C   C2254     1.0  0.75197  0.17646  0.50388  1.0000
  H   H1790     1.0  0.79182  0.22763  0.16980  1.0000
  C   C2255     1.0  0.75286  0.19346  0.80845  1.0000
  Fe  Fe157     1.0  0.97906  0.15594  0.01381  1.0000
  C   C2256     1.0  0.97596  0.08223  0.45956  1.0000
  H   H1791     1.0  0.96369  0.21727  0.72503  1.0000
  C   C2257     1.0  0.76188  0.22515  0.95063  1.0000
  H   H1792     1.0  0.79825  0.00367  0.27744  1.0000
  C   C2258     1.0  0.98723  0.04550  0.65589  1.0000
  C   C2259     1.0  0.80933  0.22709  0.07427  1.0000
  H   H1793     1.0  0.80632  0.23066  0.04321  1.0000
  C   C2260     1.0  0.79120  0.00403  0.38037  1.0000
  C   C2261     1.0  0.79411  0.22787  0.49244  1.0000
  C   C2262     1.0  0.97623  0.07856  0.65627  1.0000
  C   C2263     1.0  0.79756  0.22978  0.10533  1.0000
  H   H1794     1.0  0.78570  0.23524  0.09798  1.0000
  H   H1795     1.0  0.97448  0.04409  0.59945  1.0000
  H   H1796     1.0  0.97073  0.00995  0.39802  1.0000
  C   C2264     1.0  0.98178  0.23755  0.88302  1.0000
  C   C2265     1.0  0.82664  0.22883  0.97152  1.0000
  C   C2266     1.0  0.78293  0.23484  0.46447  1.0000
  H   H1797     1.0  0.81403  0.23311  0.74945  1.0000
  H   H1798     1.0  0.95995  0.02449  0.20957  1.0000
  H   H1799     1.0  0.82906  0.18486  0.08091  1.0000
  C   C2267     1.0  0.75809  0.20211  0.39069  1.0000
  C   C2268     1.0  0.76041  0.21509  0.41725  1.0000
  C   C2269     1.0  0.77983  0.24098  0.37532  1.0000
  P   P75       1.0  0.77969  0.22545  0.41580  1.0000
  H   H1800     1.0  0.97936  0.14243  0.75721  1.0000
  C   C2270     1.0  0.79571  0.21020  0.40503  1.0000
  C   C2271     1.0  0.79600  0.19517  0.42699  1.0000
  C   C2272     1.0  0.80824  0.18321  0.41895  1.0000
  C   C2273     1.0  0.82005  0.18596  0.38818  1.0000
  C   C2274     1.0  0.81975  0.20082  0.36575  1.0000
  C   C2275     1.0  0.80767  0.21295  0.37420  1.0000
  C   C2276     1.0  0.96869  0.01174  0.50212  1.0000
  H   H1801     1.0  0.91177  0.22985  0.81301  1.0000
  C   C2277     1.0  0.77327  0.19277  0.28365  1.0000
  H   H1802     1.0  0.95431  0.04993  0.47282  1.0000
  C   C2278     1.0  0.79195  0.99815  0.34057  1.0000
  C   C2279     1.0  0.98165  0.11157  0.57905  1.0000
  H   H1803     1.0  0.76561  0.07105  0.26614  1.0000
  C   C2280     1.0  0.81808  0.22806  0.93517  1.0000
  H   H1804     1.0  0.91327  0.08336  0.63130  1.0000
  C   C2281     1.0  0.85028  0.16865  0.08421  1.0000
  C   C2282     1.0  0.82949  0.21458  0.99577  1.0000
  C   C2283     1.0  0.80105  0.22558  0.14588  1.0000
  C   C2284     1.0  0.86705  0.16662  0.07560  1.0000
  S   S311      1.0  0.98524  0.18273  0.01796  1.0000
  H   H1805     1.0  0.76781  0.19811  0.36981  1.0000
  H   H1806     1.0  0.84357  0.15864  0.09831  1.0000
  H   H1807     1.0  0.78678  0.19274  0.45052  1.0000
  H   H1808     1.0  0.80846  0.17172  0.43653  1.0000
  H   H1809     1.0  0.82935  0.17652  0.38170  1.0000
  H   H1810     1.0  0.82884  0.20291  0.34168  1.0000
  H   H1811     1.0  0.80768  0.22432  0.35634  1.0000
  C   C2285     1.0  0.86753  0.19443  0.04731  1.0000
  C   C2286     1.0  0.81504  0.19880  0.94676  1.0000
  H   H1812     1.0  0.93862  0.21576  0.80167  1.0000
  H   H1813     1.0  0.83559  0.00188  0.32194  1.0000
  H   H1814     1.0  0.80073  0.21645  0.48632  1.0000
  H   H1815     1.0  0.96008  0.03840  0.40443  1.0000
  H   H1816     1.0  0.80582  0.21241  0.89441  1.0000
  H   H1817     1.0  0.81606  0.08413  0.33811  1.0000
  H   H1818     1.0  0.84020  0.21098  0.13263  1.0000
  H   H1819     1.0  0.99150  0.11880  0.51977  1.0000
  H   H1820     1.0  0.76770  0.22387  0.01459  1.0000
  C   C2287     1.0  0.94445  0.11821  0.61868  1.0000
  C   C2288     1.0  0.97885  0.23411  0.75611  1.0000
  H   H1821     1.0  0.81911  0.21566  0.18710  1.0000
  H   H1822     1.0  0.83097  0.24059  0.98079  1.0000
  C   C2289     1.0  0.86376  0.05074  0.35845  1.0000
  H   H1823     1.0  0.87339  0.15504  0.08294  1.0000
  H   H1824     1.0  0.79383  0.23390  0.84611  1.0000
  H   H1825     1.0  0.94123  0.07906  0.65717  1.0000
  S   S312      1.0  0.75080  0.22462  0.11456  1.0000
  P   P76       1.0  0.97246  0.22711  0.80656  1.0000
  C   C2290     1.0  0.83774  0.05551  0.32560  1.0000
  H   H1826     1.0  0.92491  0.13223  0.58978  1.0000
  C   C2291     1.0  0.98243  0.17800  0.78975  1.0000
  C   C2292     1.0  0.98170  0.19511  0.78398  1.0000
  C   C2293     1.0  0.98708  0.23226  0.84426  1.0000
  H   H1827     1.0  0.98798  0.08560  0.40088  1.0000
  C   C2294     1.0  0.84210  0.18355  0.07428  1.0000
  C   C2295     1.0  0.97838  0.08040  0.50192  1.0000
  C   C2296     1.0  0.74422  0.19595  0.77240  1.0000
  C   C2297     1.0  0.96300  0.19745  0.84224  1.0000
  H   H1828     1.0  0.95843  0.08696  0.73424  1.0000
  C   C2298     1.0  0.75868  0.22145  0.99191  1.0000
  H   H1829     1.0  0.96673  0.08041  0.12340  1.0000
  C   C2299     1.0  0.77220  0.23827  0.33823  1.0000
  C   C2300     1.0  0.96266  0.10538  0.77827  1.0000
  C   C2301     1.0  0.96307  0.09908  0.73885  1.0000
  C   C2302     1.0  0.96966  0.10827  0.70581  1.0000
  H   H1830     1.0  0.80534  0.23009  0.55086  1.0000
  C   C2303     1.0  0.75221  0.13727  0.55547  1.0000
  H   H1831     1.0  0.86251  0.04161  0.42069  1.0000
  C   C2304     1.0  0.95265  0.11954  0.12324  1.0000
  C   C2305     1.0  0.93791  0.09062  0.64199  1.0000
  C   C2306     1.0  0.92201  0.09306  0.62765  1.0000
  H   H1832     1.0  0.96885  0.23878  0.89090  1.0000
  C   C2307     1.0  0.79855  0.06543  0.32759  1.0000
  C   C2308     1.0  0.78405  0.06198  0.30781  1.0000
  C   C2309     1.0  0.97653  0.23300  0.68231  1.0000
  H   H1833     1.0  0.95924  0.03275  0.53526  1.0000
  H   H1834     1.0  0.87700  0.05147  0.35756  1.0000
  H   H1835     1.0  0.86453  0.22483  0.98087  1.0000
  C   C2310     1.0  0.75005  0.22237  0.92161  1.0000
  C   C2311     1.0  0.82356  0.19956  0.98321  1.0000
  H   H1836     1.0  0.89695  0.19447  0.12920  1.0000
  C   C2312     1.0  0.97194  0.20496  0.81021  1.0000
  H   H1837     1.0  0.88863  0.17787  0.05002  1.0000
  H   H1838     1.0  0.94110  0.16638  0.10073  1.0000
  C   C2313     1.0  0.85485  0.05565  0.32414  1.0000
  H   H1839     1.0  0.97048  0.00426  0.52961  1.0000
  H   H1840     1.0  0.77850  0.09797  0.25360  1.0000
  C   C2314     1.0  0.75595  0.24078  0.80736  1.0000
  H   H1841     1.0  0.98211  0.22237  0.00926  1.0000
  C   C2315     1.0  0.78421  0.08879  0.27372  1.0000
  C   C2316     1.0  0.98233  0.01164  0.22822  1.0000
  C   C2317     1.0  0.97252  0.00530  0.46350  1.0000
  S   S313      1.0  0.74638  0.09296  0.46823  1.0000
  C   C2318     1.0  0.79850  0.09239  0.29382  1.0000
  H   H1842     1.0  0.99027  0.06356  0.09666  1.0000
  C   C2319     1.0  0.74558  0.19777  0.84600  1.0000
  H   H1843     1.0  0.75253  0.22569  0.88995  1.0000
  H   H1844     1.0  0.74857  0.16730  0.48252  1.0000
  H   H1845     1.0  0.77701  0.99440  0.49457  1.0000
  H   H1846     1.0  0.75230  0.19530  0.87367  1.0000
  H   H1847     1.0  0.99026  0.17044  0.77009  1.0000
  C   C2320     1.0  0.91891  0.24054  0.92526  1.0000
  H   H1848     1.0  0.98990  0.12330  0.19238  1.0000
  C   C2321     1.0  0.79686  0.23564  0.52919  1.0000
  H   H1849     1.0  0.99012  0.04618  0.52899  1.0000
  H   H1850     1.0  0.99043  0.07996  0.71120  1.0000
  C   C2322     1.0  0.97754  0.05188  0.62429  1.0000
  H   H1851     1.0  0.97145  0.22753  0.65575  1.0000
  C   C2323     1.0  0.74357  0.21520  0.00421  1.0000
  C   C2324     1.0  0.74417  0.19892  0.54949  1.0000
  H   H1852     1.0  0.99067  0.01670  0.30884  1.0000
  C   C2325     1.0  0.98917  0.99625  0.24030  1.0000
  H   H1853     1.0  0.99180  0.03283  0.65550  1.0000
  H   H1854     1.0  0.98898  0.20061  0.75960  1.0000
  C   C2326     1.0  0.99225  0.04834  0.15142  1.0000
  C   C2327     1.0  0.74330  0.19397  0.39123  1.0000
  H   H1855     1.0  0.94316  0.24309  0.94863  1.0000
  H   H1856     1.0  0.78659  0.99640  0.40538  1.0000
  C   C2328     1.0  0.99318  0.24079  0.91268  1.0000
  C   C2329     1.0  0.74612  0.30710  0.78244  1.0000
  P   P77       1.0  0.97395  0.47181  0.98810  1.0000
  H   H1857     1.0  0.85956  0.48759  0.58322  1.0000
  H   H1858     1.0  0.93989  0.47628  0.02053  1.0000
  C   C2330     1.0  0.75256  0.28451  0.39893  1.0000
  S   S314      1.0  0.75428  0.25774  0.16853  1.0000
  Fe  Fe158     1.0  0.84402  0.28062  0.85750  1.0000
  S   S315      1.0  0.84687  0.30199  0.89907  1.0000
  S   S316      1.0  0.82146  0.28538  0.81888  1.0000
  Fe  Fe159     1.0  0.87434  0.26186  0.89276  1.0000
  S   S317      1.0  0.87883  0.28208  0.93634  1.0000
  H   H1859     1.0  0.90440  0.45228  0.60101  1.0000
  Fe  Fe160     1.0  0.85145  0.28254  0.94770  1.0000
  S   S318      1.0  0.83978  0.28388  0.01136  1.0000
  Fe  Fe161     1.0  0.87366  0.29974  0.88333  1.0000
  S   S319      1.0  0.89093  0.32077  0.86722  1.0000
  S   S320      1.0  0.84712  0.26137  0.90739  1.0000
  S   S321      1.0  0.87077  0.27939  0.83853  1.0000
  Fe  Fe162     1.0  0.80103  0.47106  0.43986  1.0000
  H   H1860     1.0  0.81565  0.46350  0.72981  1.0000
  S   S322      1.0  0.78872  0.45083  0.40462  1.0000
  Fe  Fe163     1.0  0.82322  0.47875  0.51240  1.0000
  S   S323      1.0  0.83361  0.46414  0.56846  1.0000
  S   S324      1.0  0.82854  0.47083  0.44743  1.0000
  Fe  Fe164     1.0  0.89351  0.41951  0.81431  1.0000
  S   S325      1.0  0.91079  0.42476  0.76111  1.0000
  S   S326      1.0  0.87688  0.39719  0.82244  1.0000
  Fe  Fe165     1.0  0.89966  0.45346  0.85274  1.0000
  S   S327      1.0  0.91711  0.46082  0.80154  1.0000
  S   S328      1.0  0.89115  0.46695  0.91082  1.0000
  Fe  Fe166     1.0  0.89878  0.45023  0.75848  1.0000
  S   S329      1.0  0.89164  0.46459  0.69881  1.0000
  Fe  Fe167     1.0  0.92759  0.43487  0.80801  1.0000
  S   S330      1.0  0.95417  0.42503  0.81416  1.0000
  S   S331      1.0  0.88083  0.44461  0.80978  1.0000
  S   S332      1.0  0.91077  0.42802  0.86095  1.0000
  C   C2331     1.0  0.97337  0.43368  0.82496  1.0000
  H   H1861     1.0  0.79523  0.34341  0.37493  1.0000
  C   C2332     1.0  0.97561  0.45068  0.82526  1.0000
  C   C2333     1.0  0.89201  0.48644  0.97833  1.0000
  H   H1862     1.0  0.96533  0.45907  0.81969  1.0000
  C   C2334     1.0  0.84955  0.46489  0.60521  1.0000
  C   C2335     1.0  0.85109  0.45214  0.63506  1.0000
  C   C2336     1.0  0.86364  0.45195  0.66420  1.0000
  C   C2337     1.0  0.87489  0.46458  0.66418  1.0000
  C   C2338     1.0  0.87319  0.47746  0.63472  1.0000
  C   C2339     1.0  0.86064  0.47765  0.60557  1.0000
  H   H1863     1.0  0.84262  0.44219  0.63533  1.0000
  H   H1864     1.0  0.86484  0.44183  0.68611  1.0000
  C   C2340     1.0  0.87601  0.24624  0.00196  1.0000
  H   H1865     1.0  0.75304  0.37534  0.35673  1.0000
  H   H1866     1.0  0.77014  0.31949  0.58180  1.0000
  C   C2341     1.0  0.89977  0.48234  0.94086  1.0000
  H   H1867     1.0  0.88120  0.48002  0.98848  1.0000
  P   P78       1.0  0.83608  0.47960  0.78851  1.0000
  C   C2342     1.0  0.88666  0.34206  0.85587  1.0000
  C   C2343     1.0  0.87074  0.34898  0.85662  1.0000
  C   C2344     1.0  0.86801  0.36583  0.84639  1.0000
  C   C2345     1.0  0.88112  0.37603  0.83543  1.0000
  C   C2346     1.0  0.89701  0.36908  0.83459  1.0000
  C   C2347     1.0  0.89974  0.35227  0.84493  1.0000
  H   H1868     1.0  0.86052  0.34132  0.86475  1.0000
  H   H1869     1.0  0.85565  0.37099  0.84690  1.0000
  H   H1870     1.0  0.90717  0.37657  0.82512  1.0000
  H   H1871     1.0  0.91210  0.34708  0.84398  1.0000
  C   C2348     1.0  0.75359  0.41664  0.39201  1.0000
  C   C2349     1.0  0.76726  0.42671  0.38577  1.0000
  C   C2350     1.0  0.77136  0.43834  0.41475  1.0000
  C   C2351     1.0  0.76164  0.43960  0.45048  1.0000
  C   C2352     1.0  0.78169  0.26430  0.31065  1.0000
  H   H1872     1.0  0.77467  0.42556  0.35805  1.0000
  H   H1873     1.0  0.76464  0.44836  0.47326  1.0000
  H   H1874     1.0  0.80638  0.36100  0.51687  1.0000
  C   C2353     1.0  0.78839  0.26400  0.03688  1.0000
  H   H1875     1.0  0.74878  0.30630  0.74989  1.0000
  C   C2354     1.0  0.81146  0.26889  0.98964  1.0000
  C   C2355     1.0  0.82030  0.27545  0.02106  1.0000
  C   C2356     1.0  0.81329  0.27581  0.06073  1.0000
  C   C2357     1.0  0.79738  0.27009  0.06868  1.0000
  C   C2358     1.0  0.80878  0.24511  0.75665  1.0000
  C   C2359     1.0  0.94686  0.45945  0.95029  1.0000
  H   H1876     1.0  0.82006  0.28083  0.08525  1.0000
  H   H1877     1.0  0.79195  0.27076  0.09912  1.0000
  C   C2360     1.0  0.81074  0.27117  0.79058  1.0000
  C   C2361     1.0  0.79547  0.27614  0.77483  1.0000
  C   C2362     1.0  0.78693  0.26569  0.74989  1.0000
  C   C2363     1.0  0.79503  0.32691  0.57131  1.0000
  C   C2364     1.0  0.88894  0.36527  0.98808  1.0000
  H   H1878     1.0  0.79040  0.28826  0.78125  1.0000
  H   H1879     1.0  0.77529  0.26971  0.73760  1.0000
  H   H1880     1.0  0.90951  0.37165  0.05332  1.0000
  C   C2365     1.0  0.91864  0.38095  0.05477  1.0000
  H   H1881     1.0  0.88614  0.38799  0.91782  1.0000
  C   C2366     1.0  0.86412  0.32172  0.77783  1.0000
  C   C2367     1.0  0.95899  0.38185  0.90931  1.0000
  C   C2368     1.0  0.92358  0.38986  0.01952  1.0000
  C   C2369     1.0  0.74717  0.31834  0.38729  1.0000
  C   C2370     1.0  0.88898  0.33659  0.96978  1.0000
  C   C2371     1.0  0.74778  0.29514  0.85114  1.0000
  H   H1882     1.0  0.88102  0.43415  0.59333  1.0000
  H   H1883     1.0  0.88614  0.33474  0.76393  1.0000
  H   H1884     1.0  0.75593  0.40008  0.53722  1.0000
  H   H1885     1.0  0.75870  0.28427  0.79652  1.0000
  C   C2372     1.0  0.89417  0.46828  0.35039  1.0000
  C   C2373     1.0  0.74794  0.42955  0.45668  1.0000
  S   S333      1.0  0.74791  0.28935  0.57352  1.0000
  C   C2374     1.0  0.75165  0.37590  0.51357  1.0000
  C   C2375     1.0  0.80001  0.37808  0.70990  1.0000
  H   H1886     1.0  0.79561  0.38883  0.72630  1.0000
  H   H1887     1.0  0.78491  0.25747  0.88775  1.0000
  H   H1888     1.0  0.95013  0.37795  0.97092  1.0000
  C   C2376     1.0  0.79367  0.25022  0.74020  1.0000
  H   H1889     1.0  0.75801  0.34322  0.54514  1.0000
  C   C2377     1.0  0.83747  0.45783  0.80056  1.0000
  C   C2378     1.0  0.84198  0.44652  0.77025  1.0000
  C   C2379     1.0  0.84385  0.42975  0.78028  1.0000
  C   C2380     1.0  0.84149  0.42420  0.82070  1.0000
  C   C2381     1.0  0.83737  0.43543  0.85122  1.0000
  C   C2382     1.0  0.83547  0.45221  0.84127  1.0000
  C   C2383     1.0  0.90483  0.36667  0.97121  1.0000
  C   C2384     1.0  0.77719  0.25731  0.51106  1.0000
  H   H1890     1.0  0.78233  0.27326  0.28561  1.0000
  C   C2385     1.0  0.88706  0.39977  0.93225  1.0000
  C   C2386     1.0  0.87569  0.41239  0.92250  1.0000
  H   H1891     1.0  0.77414  0.35582  0.32916  1.0000
  H   H1892     1.0  0.89043  0.44281  0.97915  1.0000
  C   C2387     1.0  0.76142  0.26091  0.85863  1.0000
  H   H1893     1.0  0.84465  0.45067  0.73922  1.0000
  H   H1894     1.0  0.84784  0.42110  0.75709  1.0000
  H   H1895     1.0  0.84345  0.41127  0.82855  1.0000
  H   H1896     1.0  0.83610  0.43118  0.88273  1.0000
  H   H1897     1.0  0.83283  0.46082  0.86548  1.0000
  H   H1898     1.0  0.93546  0.27443  0.84022  1.0000
  C   C2388     1.0  0.87748  0.46977  0.34219  1.0000
  H   H1899     1.0  0.99300  0.46994  0.83059  1.0000
  H   H1900     1.0  0.81835  0.33712  0.55497  1.0000
  H   H1901     1.0  0.86623  0.41029  0.90080  1.0000
  H   H1902     1.0  0.92154  0.37715  0.11964  1.0000
  H   H1903     1.0  0.77768  0.29031  0.40857  1.0000
  C   C2389     1.0  0.77437  0.24953  0.47438  1.0000
  C   C2390     1.0  0.78968  0.26691  0.34705  1.0000
  C   C2391     1.0  0.98714  0.24609  0.67732  1.0000
  H   H1904     1.0  0.87001  0.31331  0.79947  1.0000
  C   C2392     1.0  0.79833  0.35219  0.53152  1.0000
  C   C2393     1.0  0.86562  0.34492  0.73041  1.0000
  H   H1905     1.0  0.98154  0.43661  0.97148  1.0000
  H   H1906     1.0  0.92494  0.35352  0.94049  1.0000
  C   C2394     1.0  0.91369  0.49084  0.92816  1.0000
  H   H1907     1.0  0.96691  0.41618  0.93403  1.0000
  H   H1908     1.0  0.93958  0.42287  0.90704  1.0000
  C   C2395     1.0  0.79250  0.48856  0.84959  1.0000
  C   C2396     1.0  0.77670  0.25303  0.86538  1.0000
  C   C2397     1.0  0.80091  0.37856  0.66718  1.0000
  C   C2398     1.0  0.94828  0.47992  0.04334  1.0000
  C   C2399     1.0  0.81173  0.35046  0.66765  1.0000
  C   C2400     1.0  0.98698  0.42300  0.83213  1.0000
  H   H1909     1.0  0.88429  0.24700  0.97563  1.0000
  Fe  Fe168     1.0  0.75308  0.25169  0.10176  1.0000
  C   C2401     1.0  0.87182  0.47807  0.41180  1.0000
  H   H1910     1.0  0.91085  0.47317  0.54761  1.0000
  H   H1911     1.0  0.80767  0.36521  0.61300  1.0000
  C   C2402     1.0  0.83169  0.48397  0.73543  1.0000
  H   H1912     1.0  0.92655  0.45063  0.91743  1.0000
  C   C2403     1.0  0.94221  0.40494  0.06044  1.0000
  H   H1913     1.0  0.75056  0.40795  0.36911  1.0000
  H   H1914     1.0  0.97606  0.24796  0.04707  1.0000
  H   H1915     1.0  0.79548  0.25731  0.40676  1.0000
  C   C2404     1.0  0.81071  0.34982  0.71060  1.0000
  C   C2405     1.0  0.83955  0.33192  0.74389  1.0000
  H   H1916     1.0  0.81649  0.33994  0.65090  1.0000
  P   P79       1.0  0.81758  0.33146  0.73826  1.0000
  C   C2406     1.0  0.81152  0.31365  0.71078  1.0000
  C   C2407     1.0  0.80799  0.33152  0.78870  1.0000
  C   C2408     1.0  0.79234  0.32519  0.79532  1.0000
  C   C2409     1.0  0.78467  0.32598  0.83395  1.0000
  C   C2410     1.0  0.79256  0.33302  0.86628  1.0000
  C   C2411     1.0  0.80817  0.33924  0.86007  1.0000
  C   C2412     1.0  0.81583  0.33863  0.82141  1.0000
  C   C2413     1.0  0.79641  0.31395  0.69099  1.0000
  C   C2414     1.0  0.79144  0.30014  0.67043  1.0000
  C   C2415     1.0  0.80150  0.28594  0.66937  1.0000
  C   C2416     1.0  0.81653  0.28553  0.68884  1.0000
  C   C2417     1.0  0.82152  0.29929  0.70954  1.0000
  C   C2418     1.0  0.89972  0.47169  0.38932  1.0000
  H   H1917     1.0  0.79063  0.25636  0.56691  1.0000
  H   H1918     1.0  0.75156  0.47245  0.41502  1.0000
  H   H1919     1.0  0.86864  0.34931  0.99937  1.0000
  H   H1920     1.0  0.95401  0.46466  0.47057  1.0000
  C   C2419     1.0  0.91734  0.48589  0.46661  1.0000
  H   H1921     1.0  0.84326  0.35289  0.70259  1.0000
  C   C2420     1.0  0.96941  0.43986  0.96096  1.0000
  H   H1922     1.0  0.88179  0.48730  0.63416  1.0000
  C   C2421     1.0  0.78174  0.30068  0.97327  1.0000
  H   H1923     1.0  0.91980  0.48790  0.89942  1.0000
  H   H1924     1.0  0.78603  0.31959  0.77087  1.0000
  H   H1925     1.0  0.77269  0.32094  0.83902  1.0000
  H   H1926     1.0  0.78670  0.33335  0.89635  1.0000
  H   H1927     1.0  0.81443  0.34445  0.88530  1.0000
  H   H1928     1.0  0.82785  0.34373  0.81725  1.0000
  H   H1929     1.0  0.78833  0.32476  0.69200  1.0000
  H   H1930     1.0  0.77964  0.30029  0.65592  1.0000
  H   H1931     1.0  0.79743  0.27503  0.65466  1.0000
  H   H1932     1.0  0.91402  0.39305  0.88245  1.0000
  P   P80       1.0  0.89561  0.48253  0.46977  1.0000
  H   H1933     1.0  0.74523  0.33140  0.38129  1.0000
  C   C2422     1.0  0.76215  0.36981  0.37681  1.0000
  H   H1934     1.0  0.93557  0.39362  0.82860  1.0000
  C   C2423     1.0  0.76282  0.31208  0.39618  1.0000
  H   H1935     1.0  0.80434  0.36378  0.76468  1.0000
  C   C2424     1.0  0.79912  0.29781  0.91283  1.0000
  C   C2425     1.0  0.79682  0.30284  0.95311  1.0000
  C   C2426     1.0  0.74375  0.41804  0.42747  1.0000
  C   C2427     1.0  0.76901  0.29336  0.95331  1.0000
  C   C2428     1.0  0.77139  0.28788  0.91309  1.0000
  C   C2429     1.0  0.78641  0.29058  0.89269  1.0000
  C   C2430     1.0  0.77805  0.32873  0.56821  1.0000
  C   C2431     1.0  0.74704  0.39086  0.53189  1.0000
  C   C2432     1.0  0.80517  0.33864  0.55296  1.0000
  H   H1936     1.0  0.86844  0.43784  0.93090  1.0000
  H   H1937     1.0  0.94148  0.47176  0.95209  1.0000
  H   H1938     1.0  0.94240  0.39846  0.12469  1.0000
  C   C2433     1.0  0.76184  0.37360  0.41828  1.0000
  C   C2434     1.0  0.93721  0.39603  0.09537  1.0000
  H   H1939     1.0  0.85340  0.47596  0.36653  1.0000
  C   C2435     1.0  0.89728  0.45320  0.57343  1.0000
  H   H1940     1.0  0.75485  0.27138  0.40208  1.0000
  C   C2436     1.0  0.81760  0.47749  0.67357  1.0000
  H   H1941     1.0  0.81662  0.26870  0.95892  1.0000
  C   C2437     1.0  0.80547  0.48077  0.82817  1.0000
  C   C2438     1.0  0.76553  0.29516  0.40197  1.0000
  C   C2439     1.0  0.75097  0.25449  0.83001  1.0000
  C   C2440     1.0  0.92857  0.47251  0.47030  1.0000
  H   H1942     1.0  0.89444  0.49119  0.76379  1.0000
  C   C2441     1.0  0.94541  0.47502  0.46744  1.0000
  H   H1943     1.0  0.81079  0.29945  0.89711  1.0000
  H   H1944     1.0  0.80687  0.30799  0.96905  1.0000
  P   P81       1.0  0.75492  0.27909  0.88601  1.0000
  C   C2442     1.0  0.79560  0.26320  0.99752  1.0000
  H   H1945     1.0  0.78839  0.28700  0.86125  1.0000
  H   H1946     1.0  0.88466  0.26810  0.02896  1.0000
  H   H1947     1.0  0.87268  0.35448  0.71542  1.0000
  H   H1948     1.0  0.75256  0.38223  0.42963  1.0000
  H   H1949     1.0  0.84043  0.31172  0.78829  1.0000
  C   C2443     1.0  0.84886  0.34395  0.72332  1.0000
  H   H1950     1.0  0.74924  0.31934  0.24819  1.0000
  H   H1951     1.0  0.93933  0.40898  0.99593  1.0000
  H   H1952     1.0  0.88273  0.32507  0.96798  1.0000
  C   C2444     1.0  0.80679  0.36477  0.64607  1.0000
  C   C2445     1.0  0.84736  0.32083  0.77124  1.0000
  H   H1953     1.0  0.80994  0.46946  0.65696  1.0000
  H   H1954     1.0  0.75580  0.25926  0.96108  1.0000
  C   C2446     1.0  0.78855  0.25043  0.53827  1.0000
  H   H1955     1.0  0.97159  0.37862  0.91639  1.0000
  C   C2447     1.0  0.86632  0.47450  0.37301  1.0000
  H   H1956     1.0  0.82906  0.25161  0.79378  1.0000
  C   C2448     1.0  0.78585  0.35176  0.38719  1.0000
  C   C2449     1.0  0.77315  0.24991  0.30614  1.0000
  C   C2450     1.0  0.92545  0.38403  0.09252  1.0000
  C   C2451     1.0  0.88406  0.44298  0.56919  1.0000
  C   C2452     1.0  0.89128  0.46668  0.50800  1.0000
  H   H1957     1.0  0.86303  0.48235  0.43480  1.0000
  H   H1958     1.0  0.77285  0.32034  0.39800  1.0000
  C   C2453     1.0  0.96112  0.42810  0.93981  1.0000
  C   C2454     1.0  0.78546  0.35539  0.42884  1.0000
  H   H1959     1.0  0.92429  0.46012  0.47524  1.0000
  C   C2455     1.0  0.85439  0.24447  0.06947  1.0000
  C   C2456     1.0  0.92197  0.25303  0.82683  1.0000
  H   H1960     1.0  0.80442  0.46805  0.81979  1.0000
  H   H1961     1.0  0.82404  0.27429  0.68934  1.0000
  H   H1962     1.0  0.97627  0.47351  0.89886  1.0000
  C   C2457     1.0  0.95158  0.25370  0.82589  1.0000
  C   C2458     1.0  0.91279  0.35280  0.95417  1.0000
  C   C2459     1.0  0.97316  0.48890  0.95173  1.0000
  C   C2460     1.0  0.77117  0.34229  0.54695  1.0000
  H   H1963     1.0  0.95125  0.41431  0.06260  1.0000
  C   C2461     1.0  0.87789  0.45647  0.50428  1.0000
  C   C2462     1.0  0.88103  0.35028  0.98718  1.0000
  H   H1964     1.0  0.86531  0.26672  0.08837  1.0000
  H   H1965     1.0  0.76542  0.25491  0.45389  1.0000
  C   C2463     1.0  0.77407  0.35882  0.36129  1.0000
  S   S334      1.0  0.79583  0.47741  0.50518  1.0000
  H   H1966     1.0  0.96436  0.38680  0.84529  1.0000
  C   C2464     1.0  0.85563  0.48712  0.80260  1.0000
  H   H1967     1.0  0.88256  0.37581  0.00135  1.0000
  H   H1968     1.0  0.86733  0.48229  0.74392  1.0000
  C   C2465     1.0  0.78125  0.35420  0.52843  1.0000
  H   H1969     1.0  0.96256  0.26058  0.82940  1.0000
  P   P82       1.0  0.77273  0.37131  0.49833  1.0000
  H   H1970     1.0  0.77041  0.26855  0.51876  1.0000
  C   C2466     1.0  0.78469  0.38927  0.50566  1.0000
  C   C2467     1.0  0.78815  0.40020  0.47288  1.0000
  C   C2468     1.0  0.79728  0.41414  0.47907  1.0000
  C   C2469     1.0  0.80279  0.41744  0.51799  1.0000
  C   C2470     1.0  0.79923  0.40674  0.55088  1.0000
  C   C2471     1.0  0.79019  0.39271  0.54480  1.0000
  H   H1971     1.0  0.98873  0.48467  0.06124  1.0000
  C   C2472     1.0  0.94172  0.48663  0.07940  1.0000
  C   C2473     1.0  0.87632  0.25804  0.03217  1.0000
  H   H1972     1.0  0.75749  0.29183  0.96974  1.0000
  S   S335      1.0  0.76786  0.25802  0.04376  1.0000
  H   H1973     1.0  0.78368  0.39820  0.44259  1.0000
  H   H1974     1.0  0.79990  0.42255  0.45368  1.0000
  H   H1975     1.0  0.80966  0.42842  0.52264  1.0000
  H   H1976     1.0  0.80339  0.40947  0.58106  1.0000
  H   H1977     1.0  0.78725  0.38468  0.57064  1.0000
  H   H1978     1.0  0.86365  0.43723  0.53238  1.0000
  H   H1979     1.0  0.91566  0.25350  0.92721  1.0000
  H   H1980     1.0  0.91043  0.42086  0.99676  1.0000
  C   C2474     1.0  0.97563  0.48455  0.06645  1.0000
  H   H1981     1.0  0.78167  0.48180  0.85805  1.0000
  H   H1982     1.0  0.80031  0.31631  0.58754  1.0000
  C   C2475     1.0  0.97435  0.48593  0.90964  1.0000
  C   C2476     1.0  0.80494  0.36379  0.73159  1.0000
  C   C2477     1.0  0.75153  0.29446  0.80903  1.0000
  C   C2478     1.0  0.86883  0.48680  0.77438  1.0000
  C   C2479     1.0  0.93845  0.44753  0.93000  1.0000
  C   C2480     1.0  0.86548  0.25719  0.06582  1.0000
  C   C2481     1.0  0.90489  0.33783  0.95365  1.0000
  C   C2482     1.0  0.81964  0.48938  0.81762  1.0000
  C   C2483     1.0  0.77333  0.36625  0.44478  1.0000
  C   C2484     1.0  0.87432  0.44468  0.53477  1.0000
  C   C2485     1.0  0.81729  0.25553  0.78188  1.0000
  C   C2486     1.0  0.96903  0.49089  0.10287  1.0000
  C   C2487     1.0  0.90085  0.46504  0.54309  1.0000
  C   C2488     1.0  0.94567  0.43191  0.92440  1.0000
  H   H1983     1.0  0.84850  0.49156  0.86578  1.0000
  H   H1984     1.0  0.86991  0.45773  0.47848  1.0000
  C   C2489     1.0  0.85820  0.49207  0.84270  1.0000
  H   H1985     1.0  0.78008  0.30420  0.00489  1.0000
  C   C2490     1.0  0.87689  0.42787  0.93950  1.0000
  C   C2491     1.0  0.96238  0.45573  0.96623  1.0000
  H   H1986     1.0  0.83297  0.29840  0.72538  1.0000
  H   H1987     1.0  0.91087  0.32727  0.93937  1.0000
  H   H1988     1.0  0.79465  0.34975  0.44829  1.0000
  C   C2492     1.0  0.93545  0.40186  0.02267  1.0000
  C   C2493     1.0  0.90078  0.41812  0.97636  1.0000
  C   C2494     1.0  0.87324  0.33381  0.75766  1.0000
  H   H1989     1.0  0.79717  0.38967  0.65050  1.0000
  C   C2495     1.0  0.98866  0.24411  0.04071  1.0000
  C   C2496     1.0  0.96533  0.47868  0.03661  1.0000
  C   C2497     1.0  0.88937  0.43068  0.96660  1.0000
  C   C2498     1.0  0.93869  0.39017  0.85977  1.0000
  C   C2499     1.0  0.95494  0.38628  0.86920  1.0000
  H   H1990     1.0  0.79665  0.27789  0.35008  1.0000
  C   C2500     1.0  0.94681  0.38167  0.94017  1.0000
  C   C2501     1.0  0.93054  0.38630  0.93115  1.0000
  C   C2502     1.0  0.92652  0.39005  0.89052  1.0000
  P   P83       1.0  0.91469  0.38623  0.97063  1.0000
  C   C2503     1.0  0.89973  0.40251  0.95928  1.0000
  H   H1991     1.0  0.91008  0.25904  0.83218  1.0000
  H   H1992     1.0  0.99035  0.25071  0.64690  1.0000
  C   C2504     1.0  0.88424  0.49183  0.78563  1.0000
  C   C2505     1.0  0.78885  0.25527  0.37922  1.0000
  C   C2506     1.0  0.82109  0.47403  0.71459  1.0000
  H   H1993     1.0  0.87320  0.46753  0.31179  1.0000
  H   H1994     1.0  0.99019  0.45312  0.05409  1.0000
  H   H1995     1.0  0.98547  0.40985  0.83181  1.0000
  H   H1996     1.0  0.74969  0.31259  0.50599  1.0000
  H   H1997     1.0  0.92855  0.48810  0.08369  1.0000
  H   H1998     1.0  0.78871  0.25858  0.97270  1.0000
  Fe  Fe169     1.0  0.75974  0.24434  0.67738  1.0000
  C   C2507     1.0  0.82435  0.49110  0.65338  1.0000
  S   S336      1.0  0.75860  0.24562  0.60883  1.0000
  C   C2508     1.0  0.88856  0.47672  0.42033  1.0000
  H   H1999     1.0  0.84591  0.24431  0.09536  1.0000
  C   C2509     1.0  0.93628  0.26164  0.83168  1.0000
  H   H2000     1.0  0.76742  0.24766  0.27737  1.0000
  C   C2510     1.0  0.98907  0.24759  0.75092  1.0000
  C   C2511     1.0  0.99134  0.45681  0.83152  1.0000
  H   H2001     1.0  0.90283  0.46479  0.32627  1.0000
  S   S337      1.0  0.74505  0.26783  0.68584  1.0000
  C   C2512     1.0  0.95210  0.49200  0.10925  1.0000
  H   H2002     1.0  0.91271  0.47069  0.39467  1.0000
  H   H2003     1.0  0.98893  0.24484  0.94249  1.0000
  H   H2004     1.0  0.96421  0.49281  0.45816  1.0000
  C   C2513     1.0  0.95116  0.49087  0.46046  1.0000
  C   C2514     1.0  0.77072  0.58412  0.57532  1.0000
  H   H2005     1.0  0.88231  0.51091  0.42245  1.0000
  C   C2515     1.0  0.96809  0.51797  0.93614  1.0000
  H   H2006     1.0  0.76632  0.62480  0.31738  1.0000
  H   H2007     1.0  0.75828  0.58809  0.58242  1.0000
  C   C2516     1.0  0.81721  0.62913  0.63114  1.0000
  Fe  Fe170     1.0  0.93428  0.54151  0.15446  1.0000
  S   S338      1.0  0.91822  0.52058  0.13916  1.0000
  S   S339      1.0  0.95990  0.53195  0.17407  1.0000
  Fe  Fe171     1.0  0.90748  0.56741  0.12829  1.0000
  S   S340      1.0  0.89039  0.54774  0.10982  1.0000
  S   S341      1.0  0.90046  0.59525  0.13116  1.0000
  Fe  Fe172     1.0  0.89713  0.53467  0.16966  1.0000
  S   S342      1.0  0.87715  0.52092  0.20807  1.0000
  Fe  Fe173     1.0  0.91280  0.53488  0.08130  1.0000
  S   S343      1.0  0.91935  0.52406  0.01818  1.0000
  S   S344      1.0  0.91354  0.55467  0.18911  1.0000
  S   S345      1.0  0.92942  0.55557  0.09584  1.0000
  Fe  Fe174     1.0  0.87073  0.68214  0.01687  1.0000
  S   S346      1.0  0.87661  0.69806  0.06875  1.0000
  S   S347      1.0  0.87928  0.65507  0.00865  1.0000
  Fe  Fe175     1.0  0.85141  0.71109  0.97329  1.0000
  S   S348      1.0  0.85639  0.72907  0.02329  1.0000
  S   S349      1.0  0.83906  0.71479  0.91077  1.0000
  Fe  Fe176     1.0  0.88233  0.71834  0.02282  1.0000
  S   S350      1.0  0.90727  0.72959  0.03582  1.0000
  Fe  Fe177     1.0  0.85062  0.70766  0.06587  1.0000
  S   S351      1.0  0.83720  0.70716  0.12725  1.0000
  S   S352      1.0  0.87781  0.70175  0.97020  1.0000
  S   S353      1.0  0.84415  0.69039  0.01647  1.0000
  H   H2008     1.0  0.78976  0.60575  0.48199  1.0000
  S   S354      1.0  0.82313  0.50585  0.49515  1.0000
  C   C2517     1.0  0.74906  0.65676  0.01879  1.0000
  Fe  Fe178     1.0  0.79615  0.50398  0.48335  1.0000
  S   S355      1.0  0.77435  0.51975  0.50778  1.0000
  H   H2009     1.0  0.97627  0.63157  0.13655  1.0000
  C   C2518     1.0  0.77706  0.55175  0.47623  1.0000
  C   C2519     1.0  0.76723  0.54025  0.49657  1.0000
  C   C2520     1.0  0.75139  0.54529  0.51012  1.0000
  H   H2010     1.0  0.77868  0.57678  0.45346  1.0000
  H   H2011     1.0  0.78950  0.54832  0.46733  1.0000
  H   H2012     1.0  0.74449  0.51816  0.36179  1.0000
  C   C2521     1.0  0.88485  0.50131  0.48455  1.0000
  C   C2522     1.0  0.86896  0.51870  0.25947  1.0000
  C   C2523     1.0  0.87451  0.52762  0.29223  1.0000
  C   C2524     1.0  0.86738  0.52558  0.33193  1.0000
  C   C2525     1.0  0.85458  0.51460  0.33981  1.0000
  C   C2526     1.0  0.76028  0.62229  0.59411  1.0000
  H   H2013     1.0  0.74380  0.53665  0.52684  1.0000
  H   H2014     1.0  0.88428  0.53613  0.28693  1.0000
  H   H2015     1.0  0.87185  0.53257  0.35674  1.0000
  H   H2016     1.0  0.75265  0.67520  0.06333  1.0000
  S   S356      1.0  0.75258  0.69733  0.30860  1.0000
  C   C2527     1.0  0.89431  0.61160  0.09641  1.0000
  C   C2528     1.0  0.88950  0.62708  0.11213  1.0000
  C   C2529     1.0  0.88484  0.64049  0.08600  1.0000
  C   C2530     1.0  0.88502  0.63866  0.04353  1.0000
  C   C2531     1.0  0.88992  0.62323  0.02782  1.0000
  C   C2532     1.0  0.89450  0.60981  0.05395  1.0000
  H   H2017     1.0  0.88938  0.62870  0.14485  1.0000
  H   H2018     1.0  0.88114  0.65223  0.09869  1.0000
  H   H2019     1.0  0.89014  0.62162  0.99510  1.0000
  H   H2020     1.0  0.89821  0.59808  0.04119  1.0000
  C   C2533     1.0  0.91172  0.50761  0.98979  1.0000
  H   H2021     1.0  0.86769  0.53635  0.44259  1.0000
  C   C2534     1.0  0.86845  0.53068  0.50735  1.0000
  H   H2022     1.0  0.77689  0.69205  0.22878  1.0000
  C   C2535     1.0  0.74996  0.72345  0.91580  1.0000
  C   C2536     1.0  0.76458  0.63880  0.50380  1.0000
  C   C2537     1.0  0.79027  0.73400  0.85409  1.0000
  C   C2538     1.0  0.98170  0.55765  0.16337  1.0000
  C   C2539     1.0  0.97961  0.54084  0.17127  1.0000
  C   C2540     1.0  0.78891  0.69124  0.06626  1.0000
  H   H2023     1.0  0.97111  0.56561  0.15759  1.0000
  C   C2541     1.0  0.75711  0.70969  0.97959  1.0000
  C   C2542     1.0  0.74529  0.56149  0.50250  1.0000
  C   C2543     1.0  0.82045  0.66951  0.09617  1.0000
  Fe  Fe179     1.0  0.82701  0.49788  0.42921  1.0000
  H   H2024     1.0  0.75858  0.64517  0.52902  1.0000
  C   C2544     1.0  0.75461  0.52639  0.35858  1.0000
  H   H2025     1.0  0.96762  0.52491  0.87218  1.0000
  C   C2545     1.0  0.80194  0.72497  0.83120  1.0000
  C   C2546     1.0  0.81666  0.71913  0.84919  1.0000
  C   C2547     1.0  0.82000  0.72223  0.89032  1.0000
  H   H2026     1.0  0.93943  0.73844  0.05913  1.0000
  C   C2548     1.0  0.92321  0.50175  0.45920  1.0000
  H   H2027     1.0  0.79979  0.72283  0.79935  1.0000
  H   H2028     1.0  0.82564  0.71233  0.83091  1.0000
  C   C2549     1.0  0.75057  0.72341  0.95845  1.0000
  C   C2550     1.0  0.74520  0.49475  0.44679  1.0000
  H   H2029     1.0  0.95746  0.60824  0.13534  1.0000
  H   H2030     1.0  0.74541  0.53869  0.30448  1.0000
  C   C2551     1.0  0.79355  0.73703  0.89530  1.0000
  C   C2552     1.0  0.82027  0.72054  0.13709  1.0000
  C   C2553     1.0  0.81025  0.71751  0.17176  1.0000
  C   C2554     1.0  0.79651  0.72780  0.18041  1.0000
  H   H2031     1.0  0.89173  0.50202  0.03122  1.0000
  C   C2555     1.0  0.78221  0.61677  0.47752  1.0000
  H   H2032     1.0  0.81307  0.70709  0.19184  1.0000
  H   H2033     1.0  0.78874  0.72528  0.20695  1.0000
  C   C2556     1.0  0.94006  0.50421  0.45621  1.0000
  H   H2034     1.0  0.85162  0.50083  0.24247  1.0000
  C   C2557     1.0  0.80071  0.64265  0.56369  1.0000
  C   C2558     1.0  0.77335  0.72651  0.39997  1.0000
  H   H2035     1.0  0.75270  0.67511  0.24359  1.0000
  C   C2559     1.0  0.80249  0.57259  0.55589  1.0000
  C   C2560     1.0  0.80668  0.64395  0.10924  1.0000
  C   C2561     1.0  0.83557  0.66141  0.10241  1.0000
  C   C2562     1.0  0.98194  0.54875  0.00674  1.0000
  C   C2563     1.0  0.74475  0.61790  0.58153  1.0000
  H   H2036     1.0  0.81782  0.66221  0.56547  1.0000
  C   C2564     1.0  0.75516  0.53794  0.32629  1.0000
  H   H2037     1.0  0.77828  0.62932  0.98464  1.0000
  C   C2565     1.0  0.75924  0.67411  0.21450  1.0000
  H   H2038     1.0  0.93029  0.50998  0.94215  1.0000
  H   H2039     1.0  0.75413  0.67028  0.36664  1.0000
  H   H2040     1.0  0.84808  0.63827  0.11587  1.0000
  C   C2566     1.0  0.78625  0.60825  0.29938  1.0000
  C   C2567     1.0  0.85613  0.50776  0.26738  1.0000
  H   H2041     1.0  0.75005  0.68457  0.74682  1.0000
  H   H2042     1.0  0.79487  0.73419  0.01391  1.0000
  H   H2043     1.0  0.79439  0.64820  0.53788  1.0000
  C   C2568     1.0  0.76466  0.72410  0.58878  1.0000
  C   C2569     1.0  0.77289  0.68365  0.20607  1.0000
  P   P84       1.0  0.77822  0.61743  0.56265  1.0000
  H   H2044     1.0  0.74847  0.64205  0.68148  1.0000
  C   C2570     1.0  0.97594  0.53075  0.06469  1.0000
  C   C2571     1.0  0.79043  0.56147  0.56716  1.0000
  C   C2572     1.0  0.84898  0.50574  0.30705  1.0000
  H   H2045     1.0  0.76683  0.51656  0.41192  1.0000
  C   C2573     1.0  0.76231  0.66211  0.14764  1.0000
  C   C2574     1.0  0.78273  0.72067  0.06271  1.0000
  H   H2046     1.0  0.74901  0.63715  0.97564  1.0000
  C   C2575     1.0  0.80098  0.70824  0.01207  1.0000
  H   H2047     1.0  0.93226  0.71958  0.97191  1.0000
  H   H2048     1.0  0.84588  0.50603  0.73091  1.0000
  H   H2049     1.0  0.79558  0.63709  0.11256  1.0000
  C   C2576     1.0  0.80829  0.73125  0.91326  1.0000
  C   C2577     1.0  0.96941  0.51492  0.89432  1.0000
  H   H2050     1.0  0.80516  0.68215  0.01813  1.0000
  H   H2051     1.0  0.75820  0.65344  0.12593  1.0000
  C   C2578     1.0  0.89796  0.49893  0.00273  1.0000
  C   C2579     1.0  0.77475  0.66035  0.05280  1.0000
  H   H2052     1.0  0.87564  0.50071  0.88499  1.0000
  H   H2053     1.0  0.84673  0.66828  0.10022  1.0000
  C   C2580     1.0  0.78905  0.69049  0.77562  1.0000
  C   C2581     1.0  0.77566  0.68956  0.75012  1.0000
  C   C2582     1.0  0.76050  0.68501  0.76650  1.0000
  C   C2583     1.0  0.75860  0.68165  0.80840  1.0000
  C   C2584     1.0  0.77204  0.68231  0.83422  1.0000
  C   C2585     1.0  0.78727  0.68689  0.81753  1.0000
  P   P85       1.0  0.76933  0.67784  0.88833  1.0000
  C   C2586     1.0  0.75386  0.66245  0.89324  1.0000
  C   C2587     1.0  0.78858  0.67073  0.90976  1.0000
  C   C2588     1.0  0.79208  0.65394  0.91780  1.0000
  C   C2589     1.0  0.80711  0.64882  0.93431  1.0000
  C   C2590     1.0  0.81876  0.66038  0.94271  1.0000
  C   C2591     1.0  0.81538  0.67706  0.93465  1.0000
  C   C2592     1.0  0.80033  0.68225  0.91862  1.0000
  H   H2054     1.0  0.97805  0.55841  0.98540  1.0000
  H   H2055     1.0  0.82020  0.68261  0.08977  1.0000
  C   C2593     1.0  0.76251  0.69599  0.91523  1.0000
  C   C2594     1.0  0.75587  0.70979  0.89420  1.0000
  H   H2056     1.0  0.91483  0.51223  0.45547  1.0000
  H   H2057     1.0  0.86189  0.54187  0.51607  1.0000
  C   C2595     1.0  0.80393  0.62107  0.61561  1.0000
  C   C2596     1.0  0.78063  0.70526  0.08174  1.0000
  H   H2058     1.0  0.80074  0.69434  0.76309  1.0000
  H   H2059     1.0  0.77689  0.69267  0.71778  1.0000
  H   H2060     1.0  0.94452  0.51648  0.45043  1.0000
  S   S357      1.0  0.74801  0.59328  0.46942  1.0000
  H   H2061     1.0  0.79775  0.68797  0.83666  1.0000
  H   H2062     1.0  0.78333  0.64475  0.91159  1.0000
  H   H2063     1.0  0.80983  0.63587  0.94034  1.0000
  H   H2064     1.0  0.83049  0.65648  0.95516  1.0000
  H   H2065     1.0  0.82450  0.68599  0.94063  1.0000
  H   H2066     1.0  0.79799  0.69528  0.91258  1.0000
  H   H2067     1.0  0.95916  0.73058  0.95303  1.0000
  C   C2597     1.0  0.97259  0.49890  0.88109  1.0000
  H   H2068     1.0  0.75539  0.71021  0.86114  1.0000
  H   H2069     1.0  0.95841  0.54790  0.03809  1.0000
  S   S358      1.0  0.84620  0.51254  0.39103  1.0000
  H   H2070     1.0  0.83248  0.65021  0.62521  1.0000
  C   C2598     1.0  0.95409  0.68501  0.06739  1.0000
  C   C2599     1.0  0.81865  0.57666  0.45062  1.0000
  C   C2600     1.0  0.82822  0.56280  0.46190  1.0000
  C   C2601     1.0  0.82839  0.54880  0.43806  1.0000
  C   C2602     1.0  0.81908  0.54863  0.40286  1.0000
  C   C2603     1.0  0.80919  0.56237  0.39167  1.0000
  C   C2604     1.0  0.80921  0.57649  0.41557  1.0000
  P   P86       1.0  0.79743  0.56191  0.34569  1.0000
  C   C2605     1.0  0.78098  0.54762  0.35049  1.0000
  C   C2606     1.0  0.78777  0.58190  0.33600  1.0000
  C   C2607     1.0  0.79399  0.59282  0.30602  1.0000
  S   S359      1.0  0.74515  0.69763  0.66539  1.0000
  H   H2071     1.0  0.74612  0.73404  0.97509  1.0000
  C   C2608     1.0  0.78038  0.53586  0.38251  1.0000
  H   H2072     1.0  0.96856  0.50772  0.99695  1.0000
  Fe  Fe180     1.0  0.74439  0.72044  0.27347  1.0000
  C   C2609     1.0  0.95944  0.69288  0.10215  1.0000
  C   C2610     1.0  0.76825  0.54858  0.32233  1.0000
  C   C2611     1.0  0.81181  0.55607  0.30525  1.0000
  C   C2612     1.0  0.80831  0.54357  0.27820  1.0000
  C   C2613     1.0  0.82002  0.53845  0.24883  1.0000
  C   C2614     1.0  0.83528  0.54572  0.24627  1.0000
  C   C2615     1.0  0.83889  0.55807  0.27319  1.0000
  C   C2616     1.0  0.82724  0.56323  0.30261  1.0000
  H   H2073     1.0  0.81857  0.58755  0.46896  1.0000
  H   H2074     1.0  0.83558  0.56290  0.48893  1.0000
  H   H2075     1.0  0.83581  0.53803  0.44661  1.0000
  H   H2076     1.0  0.81959  0.53774  0.38432  1.0000
  H   H2077     1.0  0.80198  0.58738  0.40740  1.0000
  H   H2078     1.0  0.80474  0.58949  0.28768  1.0000
  H   H2079     1.0  0.75529  0.60558  0.37076  1.0000
  H   H2080     1.0  0.78994  0.53466  0.40457  1.0000
  H   H2081     1.0  0.83987  0.51176  0.65835  1.0000
  H   H2082     1.0  0.76623  0.64592  0.85086  1.0000
  C   C2617     1.0  0.79881  0.69282  0.03080  1.0000
  H   H2083     1.0  0.76847  0.55755  0.29731  1.0000
  H   H2084     1.0  0.79678  0.53742  0.28020  1.0000
  H   H2085     1.0  0.81747  0.52857  0.22855  1.0000
  H   H2086     1.0  0.84446  0.54154  0.22395  1.0000
  H   H2087     1.0  0.85091  0.56335  0.27168  1.0000
  H   H2088     1.0  0.83040  0.57257  0.32381  1.0000
  C   C2618     1.0  0.76319  0.69607  0.95809  1.0000
  H   H2089     1.0  0.74338  0.61171  0.55287  1.0000
  H   H2090     1.0  0.79110  0.61666  0.27623  1.0000
  H   H2091     1.0  0.76837  0.68558  0.97484  1.0000
  H   H2092     1.0  0.78579  0.61674  0.41209  1.0000
  H   H2093     1.0  0.79184  0.68986  0.16217  1.0000
  C   C2619     1.0  0.77442  0.62456  0.51088  1.0000
  C   C2620     1.0  0.81400  0.73455  0.48852  1.0000
  H   H2094     1.0  0.80813  0.73791  0.34287  1.0000
  H   H2095     1.0  0.88580  0.49601  0.54972  1.0000
  C   C2621     1.0  0.77229  0.61284  0.32252  1.0000
  H   H2096     1.0  0.80001  0.60973  0.63036  1.0000
  C   C2622     1.0  0.88000  0.51306  0.45469  1.0000
  C   C2623     1.0  0.82184  0.63583  0.11533  1.0000
  H   H2097     1.0  0.74963  0.67683  0.59574  1.0000
  C   C2624     1.0  0.79563  0.62773  0.58163  1.0000
  C   C2625     1.0  0.79870  0.58950  0.55428  1.0000
  H   H2098     1.0  0.97583  0.71045  0.12544  1.0000
  C   C2626     1.0  0.75372  0.73710  0.59792  1.0000
  H   H2099     1.0  0.76792  0.64156  0.39998  1.0000
  H   H2100     1.0  0.78570  0.72140  0.40180  1.0000
  C   C2627     1.0  0.76991  0.63694  0.43087  1.0000
  H   H2101     1.0  0.83914  0.49731  0.31219  1.0000
  H   H2102     1.0  0.99218  0.51770  0.18480  1.0000
  H   H2103     1.0  0.75440  0.65568  0.45863  1.0000
  C   C2628     1.0  0.97088  0.54292  0.03651  1.0000
  C   C2629     1.0  0.87359  0.51923  0.53732  1.0000
  C   C2630     1.0  0.77268  0.63928  0.00201  1.0000
  H   H2104     1.0  0.77262  0.70449  0.10848  1.0000
  H   H2105     1.0  0.79489  0.64436  0.03197  1.0000
  H   H2106     1.0  0.97329  0.49642  0.84868  1.0000
  H   H2107     1.0  0.96506  0.53028  0.94644  1.0000
  H   H2108     1.0  0.87108  0.52156  0.56937  1.0000
  C   C2631     1.0  0.83453  0.50132  0.67421  1.0000
  C   C2632     1.0  0.81399  0.65068  0.57933  1.0000
  H   H2109     1.0  0.76875  0.57842  0.38255  1.0000
  C   C2633     1.0  0.80593  0.66077  0.09836  1.0000
  C   C2634     1.0  0.75403  0.66326  0.18546  1.0000
  C   C2635     1.0  0.76015  0.71195  0.56214  1.0000
  C   C2636     1.0  0.77573  0.67204  0.13843  1.0000
  C   C2637     1.0  0.90779  0.70531  0.13217  1.0000
  C   C2638     1.0  0.89777  0.69558  0.15732  1.0000
  C   C2639     1.0  0.89959  0.67845  0.15661  1.0000
  C   C2640     1.0  0.91148  0.67103  0.13096  1.0000
  C   C2641     1.0  0.92173  0.68072  0.10577  1.0000
  C   C2642     1.0  0.91961  0.69794  0.10633  1.0000
  P   P87       1.0  0.93697  0.67141  0.07157  1.0000
  H   H2110     1.0  0.89868  0.50046  0.83453  1.0000
  C   C2643     1.0  0.94361  0.65136  0.09166  1.0000
  C   C2644     1.0  0.95925  0.64891  0.10816  1.0000
  C   C2645     1.0  0.96423  0.63341  0.12381  1.0000
  C   C2646     1.0  0.95367  0.62025  0.12312  1.0000
  C   C2647     1.0  0.93815  0.62256  0.10669  1.0000
  C   C2648     1.0  0.93312  0.63801  0.09107  1.0000
  H   H2111     1.0  0.95803  0.68231  0.00204  1.0000
  H   H2112     1.0  0.75599  0.49398  0.46551  1.0000
  H   H2113     1.0  0.76286  0.70270  0.39450  1.0000
  C   C2649     1.0  0.76045  0.71586  0.39572  1.0000
  C   C2650     1.0  0.80732  0.51386  0.84839  1.0000
  C   C2651     1.0  0.92833  0.67016  0.02141  1.0000
  C   C2652     1.0  0.92160  0.68446  0.00263  1.0000
  C   C2653     1.0  0.91610  0.68412  0.96258  1.0000
  C   C2654     1.0  0.91659  0.66939  0.94153  1.0000
  C   C2655     1.0  0.92327  0.65511  0.95988  1.0000
  C   C2656     1.0  0.92946  0.65554  0.99929  1.0000
  H   H2114     1.0  0.90597  0.71858  0.13133  1.0000
  H   H2115     1.0  0.88823  0.70130  0.17628  1.0000
  H   H2116     1.0  0.89154  0.67087  0.17531  1.0000
  H   H2117     1.0  0.91239  0.65778  0.13083  1.0000
  H   H2118     1.0  0.92689  0.70578  0.08634  1.0000
  H   H2119     1.0  0.96766  0.65886  0.10903  1.0000
  H   H2120     1.0  0.82353  0.62396  0.65747  1.0000
  C   C2657     1.0  0.78276  0.59544  0.56399  1.0000
  H   H2121     1.0  0.92995  0.61234  0.10617  1.0000
  H   H2122     1.0  0.92102  0.63948  0.07836  1.0000
  H   H2123     1.0  0.80802  0.52671  0.85601  1.0000
  C   C2658     1.0  0.76603  0.60201  0.35238  1.0000
  H   H2124     1.0  0.81474  0.56804  0.54817  1.0000
  H   H2125     1.0  0.75758  0.70970  0.01261  1.0000
  H   H2126     1.0  0.95374  0.69045  0.13186  1.0000
  H   H2127     1.0  0.92075  0.69594  0.01866  1.0000
  H   H2128     1.0  0.91119  0.69526  0.94809  1.0000
  H   H2129     1.0  0.91166  0.66903  0.91116  1.0000
  H   H2130     1.0  0.92357  0.64365  0.94368  1.0000
  H   H2131     1.0  0.93507  0.64442  0.01196  1.0000
  H   H2132     1.0  0.82245  0.62279  0.12298  1.0000
  H   H2133     1.0  0.77644  0.72324  0.60323  1.0000
  C   C2659     1.0  0.77459  0.56725  0.57702  1.0000
  C   C2660     1.0  0.77095  0.56792  0.46867  1.0000
  C   C2661     1.0  0.77995  0.62295  0.43770  1.0000
  H   H2134     1.0  0.80819  0.59794  0.54533  1.0000
  C   C2662     1.0  0.74755  0.63489  0.65418  1.0000
  S   S360      1.0  0.76057  0.73832  0.70728  1.0000
  C   C2663     1.0  0.79299  0.72218  0.02808  1.0000
  C   C2664     1.0  0.75832  0.66511  0.04651  1.0000
  H   H2135     1.0  0.74513  0.73414  0.89912  1.0000
  H   H2136     1.0  0.80908  0.70940  0.98550  1.0000
  H   H2137     1.0  0.81079  0.73419  0.94445  1.0000
  C   C2665     1.0  0.97427  0.69968  0.02589  1.0000
  H   H2138     1.0  0.96738  0.52656  0.08828  1.0000
  C   C2666     1.0  0.75499  0.57283  0.48112  1.0000
  C   C2667     1.0  0.76230  0.64491  0.46393  1.0000
  C   C2668     1.0  0.77373  0.58662  0.35911  1.0000
  C   C2669     1.0  0.97195  0.70421  0.09864  1.0000
  C   C2670     1.0  0.78202  0.64771  0.02939  1.0000
  C   C2671     1.0  0.76718  0.52542  0.38670  1.0000
  C   C2672     1.0  0.78123  0.68248  0.16833  1.0000
  C   C2673     1.0  0.83630  0.64454  0.11152  1.0000
  H   H2139     1.0  0.77668  0.73154  0.07533  1.0000
  P   P88       1.0  0.78635  0.67106  0.08943  1.0000
  C   C2674     1.0  0.82224  0.64392  0.61300  1.0000
  C   C2675     1.0  0.87175  0.52762  0.46608  1.0000
  H   H2140     1.0  0.76845  0.70163  0.55597  1.0000
  H   H2141     1.0  0.74351  0.65582  0.19233  1.0000
  S   S361      1.0  0.79994  0.49756  0.41712  1.0000
  C   C2676     1.0  0.76156  0.63097  0.63051  1.0000
  C   C2677     1.0  0.75549  0.64806  0.87038  1.0000
  C   C2678     1.0  0.91961  0.50338  0.95249  1.0000
  H   H2142     1.0  0.77323  0.63504  0.64049  1.0000
  C   C2679     1.0  0.96177  0.68832  0.02928  1.0000
  C   C2680     1.0  0.75620  0.64374  0.99685  1.0000
  C   C2681     1.0  0.97004  0.50506  0.96480  1.0000
  H   H2143     1.0  0.79320  0.54832  0.56739  1.0000
  H   H2144     1.0  0.74655  0.67878  0.82055  1.0000
  H   H2145     1.0  0.94703  0.49744  0.13695  1.0000
  C   C2682     1.0  0.88189  0.50467  0.52602  1.0000
  H   H2146     1.0  0.98000  0.70237  0.99635  1.0000
  H   H2147     1.0  0.76517  0.55857  0.58494  1.0000
  H   H2148     1.0  0.82452  0.73668  0.08507  1.0000
  C   C2683     1.0  0.93320  0.72910  0.94831  1.0000
  H   H2149     1.0  0.81404  0.74042  0.26847  1.0000
  S   S362      1.0  0.74480  0.72199  0.20496  1.0000
  H   H2150     1.0  0.74439  0.62560  0.85363  1.0000
  H   H2151     1.0  0.81160  0.72757  0.51657  1.0000
  C   C2684     1.0  0.97929  0.70769  0.06049  1.0000
  C   C2685     1.0  0.81677  0.73420  0.11166  1.0000
  Fe  Fe181     1.0  0.75592  0.74019  0.77565  1.0000
  H   H2152     1.0  0.84018  0.73373  0.49527  1.0000
  C   C2686     1.0  0.83008  0.73805  0.47658  1.0000
  H   H2153     1.0  0.83084  0.51315  0.81759  1.0000
  C   C2687     1.0  0.74470  0.71281  0.54464  1.0000
  H   H2154     1.0  0.97695  0.49555  0.12571  1.0000
  H   H2155     1.0  0.90721  0.73067  0.93882  1.0000
  H   H2156     1.0  0.78853  0.73765  0.47458  1.0000
  H   H2157     1.0  0.75032  0.73693  0.12526  1.0000
  C   C2688     1.0  0.80095  0.74019  0.46450  1.0000
  C   C2689     1.0  0.98148  0.72119  0.80845  1.0000
  C   C2690     1.0  0.99197  0.52419  0.06287  1.0000
  C   C2691     1.0  0.83808  0.49788  0.71521  1.0000
  C   C2692     1.0  0.91905  0.73535  0.92959  1.0000
  H   H2158     1.0  0.97837  0.72211  0.87377  1.0000
  C   C2693     1.0  0.94841  0.73557  0.93789  1.0000
  C   C2694     1.0  0.79309  0.74151  0.15513  1.0000
  C   C2695     1.0  0.82029  0.50611  0.82689  1.0000
  C   C2696     1.0  0.98081  0.73005  0.77132  1.0000
  H   H2159     1.0  0.98457  0.70814  0.80872  1.0000
  H   H2160     1.0  0.98886  0.71662  0.05771  1.0000
  C   C2697     1.0  0.88663  0.49705  0.82534  1.0000
  H   H2161     1.0  0.78343  0.51109  0.87660  1.0000
  H   H2162     1.0  0.82192  0.49349  0.62129  1.0000
  C   C2698     1.0  0.74458  0.72220  0.38981  1.0000
  S   S363      1.0  0.77177  0.74240  0.83266  1.0000
  H   H2163     1.0  0.98346  0.72388  0.74281  1.0000
  C   C2699     1.0  0.97805  0.72916  0.84523  1.0000
  C   C2700     1.0  0.87358  0.49725  0.85377  1.0000
  C   C2701     1.0  0.79347  0.50507  0.85992  1.0000
  S   S364      1.0  0.75892  0.74326  0.27948  1.0000
  H   H2164     1.0  0.86081  0.80314  0.52150  1.0000
  P   P89       1.0  0.84447  0.82070  0.45424  1.0000
  H   H2165     1.0  0.83830  0.79829  0.38831  1.0000
  C   C2702     1.0  0.82392  0.83682  0.51017  1.0000
  H   H2166     1.0  0.82085  0.80091  0.32750  1.0000
  C   C2703     1.0  0.90294  0.77877  0.11615  1.0000
  H   H2167     1.0  0.98648  0.79771  0.16731  1.0000
  S   S365      1.0  0.97818  0.83147  0.00202  1.0000
  C   C2704     1.0  0.74893  0.81363  0.56606  1.0000
  Fe  Fe182     1.0  0.97396  0.80455  0.01590  1.0000
  S   S366      1.0  0.94761  0.79575  0.00824  1.0000
  P   P90       1.0  0.76882  0.96197  0.46226  1.0000
  Fe  Fe183     1.0  0.94826  0.89331  0.31860  1.0000
  S   S367      1.0  0.92383  0.90533  0.30426  1.0000
  S   S368      1.0  0.96005  0.87223  0.28017  1.0000
  Fe  Fe184     1.0  0.94806  0.90853  0.40458  1.0000
  S   S369      1.0  0.92309  0.92073  0.39522  1.0000
  S   S370      1.0  0.95884  0.91571  0.46600  1.0000
  Fe  Fe185     1.0  0.91530  0.89728  0.36746  1.0000
  S   S371      1.0  0.89067  0.88390  0.36797  1.0000
  Fe  Fe186     1.0  0.93299  0.92818  0.33321  1.0000
  S   S372      1.0  0.92411  0.95378  0.31009  1.0000
  S   S373      1.0  0.93947  0.88436  0.38141  1.0000
  S   S374      1.0  0.95830  0.91691  0.34293  1.0000
  Fe  Fe187     1.0  0.75761  0.88378  0.45161  1.0000
  S   S375      1.0  0.77597  0.88060  0.50174  1.0000
  C   C2705     1.0  0.76102  0.96530  0.37960  1.0000
  Fe  Fe188     1.0  0.77118  0.85298  0.40896  1.0000
  S   S376      1.0  0.79045  0.84796  0.45582  1.0000
  S   S377      1.0  0.77084  0.83855  0.35036  1.0000
  Fe  Fe189     1.0  0.77029  0.85350  0.50184  1.0000
  S   S378      1.0  0.77242  0.83801  0.56130  1.0000
  Fe  Fe190     1.0  0.79504  0.87501  0.45251  1.0000
  S   S379      1.0  0.81985  0.88733  0.45833  1.0000
  C   C2706     1.0  0.87002  0.83582  0.41209  1.0000
  S   S380      1.0  0.77713  0.87974  0.40251  1.0000
  C   C2707     1.0  0.87102  0.88535  0.39329  1.0000
  C   C2708     1.0  0.85755  0.87819  0.37532  1.0000
  C   C2709     1.0  0.84183  0.87866  0.39452  1.0000
  C   C2710     1.0  0.83935  0.88626  0.43220  1.0000
  C   C2711     1.0  0.85278  0.89353  0.44997  1.0000
  C   C2712     1.0  0.86850  0.89294  0.43093  1.0000
  H   H2168     1.0  0.85927  0.87223  0.34627  1.0000
  H   H2169     1.0  0.83164  0.87327  0.37995  1.0000
  H   H2170     1.0  0.85108  0.89944  0.47908  1.0000
  H   H2171     1.0  0.87875  0.89801  0.44586  1.0000
  H   H2172     1.0  0.76024  0.77268  0.92065  1.0000
  C   C2713     1.0  0.94879  0.97542  0.32612  1.0000
  C   C2714     1.0  0.93251  0.97350  0.31558  1.0000
  C   C2715     1.0  0.99235  0.75337  0.00203  1.0000
  H   H2173     1.0  0.86144  0.84611  0.40765  1.0000
  H   H2174     1.0  0.95655  0.96466  0.33226  1.0000
  H   H2175     1.0  0.76007  0.78966  0.50855  1.0000
  H   H2176     1.0  0.84488  0.93569  0.44229  1.0000
  H   H2177     1.0  0.94705  0.78228  0.92480  1.0000
  C   C2716     1.0  0.83997  0.80188  0.48230  1.0000
  H   H2178     1.0  0.88961  0.84805  0.37966  1.0000
  C   C2717     1.0  0.97698  0.91058  0.49370  1.0000
  C   C2718     1.0  0.98074  0.75617  0.97180  1.0000
  C   C2719     1.0  0.84991  0.79657  0.51474  1.0000
  C   C2720     1.0  0.94959  0.74836  0.90843  1.0000
  C   C2721     1.0  0.86525  0.82169  0.43428  1.0000
  C   C2722     1.0  0.97951  0.85894  0.14967  1.0000
  C   C2723     1.0  0.80628  0.74961  0.28358  1.0000
  C   C2724     1.0  0.96818  0.87953  0.19772  1.0000
  C   C2725     1.0  0.96742  0.86765  0.22939  1.0000
  C   C2726     1.0  0.97276  0.85139  0.22074  1.0000
  H   H2179     1.0  0.96928  0.76258  0.97947  1.0000
  C   C2727     1.0  0.78110  0.77623  0.42363  1.0000
  H   H2180     1.0  0.96424  0.89209  0.20364  1.0000
  C   C2728     1.0  0.82009  0.75303  0.41680  1.0000
  P   P91       1.0  0.96930  0.75604  0.89284  1.0000
  C   C2729     1.0  0.93656  0.77729  0.01729  1.0000
  C   C2730     1.0  0.92046  0.77660  0.00311  1.0000
  C   C2731     1.0  0.89239  0.80940  0.42177  1.0000
  C   C2732     1.0  0.88595  0.83691  0.39590  1.0000
  H   H2181     1.0  0.91511  0.78721  0.98726  1.0000
  C   C2733     1.0  0.84695  0.97872  0.34113  1.0000
  H   H2182     1.0  0.89732  0.76900  0.09999  1.0000
  H   H2183     1.0  0.78443  0.93155  0.49435  1.0000
  H   H2184     1.0  0.80138  0.76326  0.22764  1.0000
  C   C2734     1.0  0.76267  0.82036  0.58312  1.0000
  H   H2185     1.0  0.81662  0.79860  0.45400  1.0000
  C   C2735     1.0  0.94324  0.76344  0.03789  1.0000
  H   H2186     1.0  0.80479  0.82682  0.31381  1.0000
  C   C2736     1.0  0.98489  0.87439  0.85252  1.0000
  C   C2737     1.0  0.91123  0.76228  0.00885  1.0000
  C   C2738     1.0  0.98888  0.90113  0.81953  1.0000
  C   C2739     1.0  0.75918  0.82078  0.34586  1.0000
  C   C2740     1.0  0.75991  0.81230  0.30892  1.0000
  C   C2741     1.0  0.91582  0.77505  0.14244  1.0000
  H   H2187     1.0  0.92012  0.76239  0.14656  1.0000
  C   C2742     1.0  0.82366  0.97126  0.47772  1.0000
  H   H2188     1.0  0.81532  0.82728  0.50497  1.0000
  H   H2189     1.0  0.76770  0.81663  0.28395  1.0000
  H   H2190     1.0  0.96942  0.76774  0.80660  1.0000
  H   H2191     1.0  0.80908  0.77498  0.49775  1.0000
  H   H2192     1.0  0.80686  0.85035  0.35962  1.0000
  C   C2743     1.0  0.89755  0.79511  0.11000  1.0000
  C   C2744     1.0  0.92348  0.78767  0.16224  1.0000
  C   C2745     1.0  0.91837  0.80417  0.15556  1.0000
  C   C2746     1.0  0.90522  0.80776  0.12960  1.0000
  P   P92       1.0  0.92984  0.82081  0.17524  1.0000
  C   C2747     1.0  0.91837  0.83255  0.21344  1.0000
  C   C2748     1.0  0.94856  0.81242  0.19685  1.0000
  C   C2749     1.0  0.96175  0.80767  0.17103  1.0000
  C   C2750     1.0  0.97654  0.74683  0.77094  1.0000
  H   H2193     1.0  0.75436  0.96778  0.31631  1.0000
  C   C2751     1.0  0.96447  0.80351  0.25567  1.0000
  C   C2752     1.0  0.94990  0.80996  0.23932  1.0000
  C   C2753     1.0  0.92645  0.84366  0.23759  1.0000
  C   C2754     1.0  0.91781  0.85283  0.26709  1.0000
  C   C2755     1.0  0.90099  0.85095  0.27304  1.0000
  C   C2756     1.0  0.89283  0.83982  0.24951  1.0000
  C   C2757     1.0  0.90146  0.83064  0.21983  1.0000
  C   C2758     1.0  0.93541  0.83385  0.13172  1.0000
  C   C2759     1.0  0.93824  0.85064  0.13637  1.0000
  C   C2760     1.0  0.94265  0.86050  0.10249  1.0000
  C   C2761     1.0  0.94433  0.85372  0.06377  1.0000
  C   C2762     1.0  0.94146  0.83707  0.05880  1.0000
  C   C2763     1.0  0.93723  0.82713  0.09257  1.0000
  H   H2194     1.0  0.88774  0.79798  0.08908  1.0000
  H   H2195     1.0  0.93370  0.78448  0.18159  1.0000
  H   H2196     1.0  0.90134  0.82042  0.12323  1.0000
  H   H2197     1.0  0.96094  0.80927  0.13821  1.0000
  H   H2198     1.0  0.98485  0.97042  0.25114  1.0000
  H   H2199     1.0  0.79641  0.96559  0.40304  1.0000
  H   H2200     1.0  0.98903  0.79433  0.24241  1.0000
  H   H2201     1.0  0.93979  0.81312  0.25995  1.0000
  H   H2202     1.0  0.93950  0.84528  0.23374  1.0000
  H   H2203     1.0  0.92421  0.86146  0.28525  1.0000
  H   H2204     1.0  0.89435  0.85816  0.29591  1.0000
  H   H2205     1.0  0.87979  0.83836  0.25422  1.0000
  H   H2206     1.0  0.89489  0.82209  0.20213  1.0000
  H   H2207     1.0  0.93751  0.85619  0.16600  1.0000
  H   H2208     1.0  0.94535  0.87330  0.10651  1.0000
  H   H2209     1.0  0.94827  0.86126  0.03783  1.0000
  H   H2210     1.0  0.94290  0.83171  0.02887  1.0000
  H   H2211     1.0  0.93566  0.81415  0.08784  1.0000
  C   C2764     1.0  0.75934  0.94246  0.33389  1.0000
  H   H2212     1.0  0.98087  0.87954  0.78900  1.0000
  Fe  Fe191     1.0  0.75705  0.74598  0.21128  1.0000
  C   C2765     1.0  0.86150  0.97051  0.35328  1.0000
  P   P93       1.0  0.86196  0.94888  0.36792  1.0000
  C   C2766     1.0  0.87150  0.93665  0.32795  1.0000
  C   C2767     1.0  0.87330  0.94664  0.41448  1.0000
  C   C2768     1.0  0.88298  0.93243  0.42242  1.0000
  C   C2769     1.0  0.89084  0.93034  0.45978  1.0000
  C   C2770     1.0  0.88922  0.94246  0.48924  1.0000
  C   C2771     1.0  0.87971  0.95673  0.48141  1.0000
  C   C2772     1.0  0.87170  0.95878  0.44427  1.0000
  C   C2773     1.0  0.88295  0.94340  0.30013  1.0000
  C   C2774     1.0  0.89025  0.93373  0.26952  1.0000
  C   C2775     1.0  0.88616  0.91728  0.26633  1.0000
  C   C2776     1.0  0.87484  0.91044  0.29395  1.0000
  C   C2777     1.0  0.86758  0.92004  0.32473  1.0000
  C   C2778     1.0  0.84169  0.94106  0.37745  1.0000
  C   C2779     1.0  0.83686  0.93523  0.41660  1.0000
  C   C2780     1.0  0.81591  0.93214  0.35114  1.0000
  C   C2781     1.0  0.83112  0.93935  0.34471  1.0000
  C   C2782     1.0  0.98423  0.90047  0.65602  1.0000
  H   H2213     1.0  0.88740  0.97330  0.36333  1.0000
  H   H2214     1.0  0.88442  0.92288  0.39997  1.0000
  H   H2215     1.0  0.89830  0.91931  0.46576  1.0000
  H   H2216     1.0  0.89543  0.94080  0.51801  1.0000
  H   H2217     1.0  0.87855  0.96616  0.50418  1.0000
  H   H2218     1.0  0.86421  0.96980  0.43889  1.0000
  H   H2219     1.0  0.88667  0.95596  0.30226  1.0000
  H   H2220     1.0  0.89952  0.93888  0.24913  1.0000
  H   H2221     1.0  0.89218  0.90969  0.24333  1.0000
  H   H2222     1.0  0.87213  0.89752  0.29251  1.0000
  H   H2223     1.0  0.85919  0.91432  0.34650  1.0000
  H   H2224     1.0  0.77947  0.81813  0.63287  1.0000
  H   H2225     1.0  0.83488  0.94312  0.31397  1.0000
  H   H2226     1.0  0.82434  0.84808  0.42000  1.0000
  C   C2783     1.0  0.98228  0.78585  0.86759  1.0000
  H   H2227     1.0  0.78755  0.81733  0.41840  1.0000
  C   C2784     1.0  0.87595  0.97939  0.35453  1.0000
  C   C2785     1.0  0.76250  0.94711  0.50118  1.0000
  H   H2228     1.0  0.83651  0.97356  0.48152  1.0000
  H   H2229     1.0  0.77627  0.78107  0.33515  1.0000
  H   H2230     1.0  0.99144  0.95099  0.33662  1.0000
  C   C2786     1.0  0.77341  0.80515  0.46607  1.0000
  C   C2787     1.0  0.76753  0.79012  0.48070  1.0000
  H   H2231     1.0  0.75177  0.76301  0.39219  1.0000
  C   C2788     1.0  0.76513  0.95435  0.41196  1.0000
  C   C2789     1.0  0.75724  0.98111  0.46876  1.0000
  C   C2790     1.0  0.77031  0.74360  0.39979  1.0000
  C   C2791     1.0  0.95887  0.96218  0.50056  1.0000
  H   H2232     1.0  0.98294  0.83464  0.17547  1.0000
  C   C2792     1.0  0.98029  0.91948  0.52889  1.0000
  P   P94       1.0  0.78709  0.75739  0.39862  1.0000
  H   H2233     1.0  0.75987  0.97842  0.38436  1.0000
  C   C2793     1.0  0.96316  0.98354  0.23104  1.0000
  C   C2794     1.0  0.78512  0.77260  0.32139  1.0000
  C   C2795     1.0  0.95522  0.99131  0.32730  1.0000
  C   C2796     1.0  0.93626  0.96303  0.43758  1.0000
  H   H2234     1.0  0.98203  0.86151  0.85068  1.0000
  H   H2235     1.0  0.83567  0.97226  0.33948  1.0000
  H   H2236     1.0  0.95565  0.97278  0.23299  1.0000
  Fe  Fe192     1.0  0.99241  0.83123  0.06032  1.0000
  C   C2797     1.0  0.97623  0.80103  0.18744  1.0000
  H   H2237     1.0  0.74884  0.76612  0.10323  1.0000
  H   H2238     1.0  0.97505  0.88461  0.13446  1.0000
  C   C2798     1.0  0.96158  0.97218  0.46563  1.0000
  C   C2799     1.0  0.94515  0.95233  0.50333  1.0000
  H   H2239     1.0  0.80078  0.75547  0.10155  1.0000
  H   H2240     1.0  0.97851  0.95618  0.40383  1.0000
  P   P95       1.0  0.97970  0.98415  0.45930  1.0000
  H   H2241     1.0  0.78471  0.74413  0.91330  1.0000
  C   C2800     1.0  0.79673  0.96640  0.50722  1.0000
  H   H2242     1.0  0.82548  0.97146  0.41204  1.0000
  H   H2243     1.0  0.82261  0.76055  0.38971  1.0000
  H   H2244     1.0  0.97196  0.92935  0.53811  1.0000
  C   C2801     1.0  0.97073  0.81259  0.88541  1.0000
  H   H2245     1.0  0.79516  0.79204  0.38277  1.0000
  H   H2246     1.0  0.89896  0.76196  0.99733  1.0000
  C   C2802     1.0  0.93404  0.95252  0.47152  1.0000
  C   C2803     1.0  0.83919  0.83692  0.48947  1.0000
  C   C2804     1.0  0.85007  0.84942  0.49739  1.0000
  C   C2805     1.0  0.84551  0.86182  0.52469  1.0000
  C   C2806     1.0  0.83016  0.86179  0.54448  1.0000
  C   C2807     1.0  0.81941  0.84923  0.53742  1.0000
  C   C2808     1.0  0.83211  0.82279  0.40941  1.0000
  C   C2809     1.0  0.82362  0.83763  0.40031  1.0000
  C   C2810     1.0  0.81384  0.83903  0.36586  1.0000
  C   C2811     1.0  0.81270  0.82574  0.33994  1.0000
  C   C2812     1.0  0.82163  0.81112  0.34793  1.0000
  C   C2813     1.0  0.83141  0.80967  0.38243  1.0000
  H   H2247     1.0  0.86203  0.84981  0.48267  1.0000
  H   H2248     1.0  0.85376  0.87167  0.52984  1.0000
  H   H2249     1.0  0.82647  0.87162  0.56480  1.0000
  H   H2250     1.0  0.80744  0.84923  0.55260  1.0000
  C   C2814     1.0  0.81123  0.92643  0.39019  1.0000
  C   C2815     1.0  0.98945  0.88060  0.88983  1.0000
  H   H2251     1.0  0.74989  0.91530  0.58622  1.0000
  C   C2816     1.0  0.97962  0.98226  0.24158  1.0000
  H   H2252     1.0  0.85319  0.77918  0.56491  1.0000
  C   C2817     1.0  0.82514  0.79405  0.47666  1.0000
  H   H2253     1.0  0.77639  0.91164  0.54853  1.0000
  C   C2818     1.0  0.75351  0.92427  0.56293  1.0000
  C   C2819     1.0  0.98906  0.98017  0.40983  1.0000
  C   C2820     1.0  0.94984  0.97303  0.43502  1.0000
  C   C2821     1.0  0.87645  0.80830  0.43817  1.0000
  C   C2822     1.0  0.98789  0.89778  0.48244  1.0000
  C   C2823     1.0  0.89716  0.82374  0.40090  1.0000
  H   H2254     1.0  0.90107  0.79913  0.42519  1.0000
  C   C2824     1.0  0.82165  0.92809  0.42288  1.0000
  H   H2255     1.0  0.98989  0.75764  0.03278  1.0000
  C   C2825     1.0  0.97766  0.79912  0.22975  1.0000
  C   C2826     1.0  0.78724  0.79130  0.40965  1.0000
  H   H2256     1.0  0.97781  0.90456  0.62884  1.0000
  H   H2257     1.0  0.90953  0.82469  0.38846  1.0000
  H   H2258     1.0  0.87296  0.79696  0.45338  1.0000
  H   H2259     1.0  0.82731  0.76505  0.55323  1.0000
  H   H2260     1.0  0.81813  0.97020  0.54247  1.0000
  C   C2827     1.0  0.84553  0.78311  0.53969  1.0000
  C   C2828     1.0  0.99015  0.90350  0.72785  1.0000
  H   H2261     1.0  0.81818  0.92322  0.45293  1.0000
  C   C2829     1.0  0.77133  0.77570  0.45956  1.0000
  C   C2830     1.0  0.82070  0.78071  0.50185  1.0000
  S   S381      1.0  0.75051  0.85701  0.45470  1.0000
  C   C2831     1.0  0.76150  0.79923  0.63824  1.0000
  C   C2832     1.0  0.76890  0.81302  0.61923  1.0000
  H   H2262     1.0  0.80798  0.93048  0.32565  1.0000
  H   H2263     1.0  0.96559  0.80210  0.28850  1.0000
  H   H2264     1.0  0.78255  0.78357  0.26110  1.0000
  C   C2833     1.0  0.83093  0.77518  0.53322  1.0000
  C   C2834     1.0  0.79914  0.76248  0.26046  1.0000
  H   H2265     1.0  0.76638  0.79388  0.66615  1.0000
  C   C2835     1.0  0.93652  0.93957  0.78820  1.0000
  C   C2836     1.0  0.81743  0.97008  0.43856  1.0000
  H   H2266     1.0  0.79977  0.92022  0.39504  1.0000
  H   H2267     1.0  0.94853  0.81239  0.92235  1.0000
  C   C2837     1.0  0.98451  0.88461  0.81751  1.0000
  C   C2838     1.0  0.96587  0.94019  0.79648  1.0000
  H   H2268     1.0  0.97345  0.91941  0.69337  1.0000
  C   C2839     1.0  0.95391  0.91651  0.76678  1.0000
  H   H2269     1.0  0.91011  0.98628  0.29845  1.0000
  S   S382      1.0  0.77619  0.75484  0.16564  1.0000
  H   H2270     1.0  0.94355  0.94389  0.52916  1.0000
  H   H2271     1.0  0.74813  0.77119  0.85246  1.0000
  H   H2272     1.0  0.92443  0.94531  0.79190  1.0000
  C   C2840     1.0  0.77289  0.93351  0.51077  1.0000
  H   H2273     1.0  0.96797  0.99260  0.33412  1.0000
  C   C2841     1.0  0.95767  0.80502  0.90584  1.0000
  C   C2842     1.0  0.78319  0.80571  0.43041  1.0000
  H   H2274     1.0  0.76673  0.76415  0.47151  1.0000
  C   C2843     1.0  0.79039  0.96517  0.46794  1.0000
  H   H2275     1.0  0.95511  0.90427  0.75445  1.0000
  C   C2844     1.0  0.95684  0.78786  0.90701  1.0000
  C   C2845     1.0  0.95028  0.94763  0.80095  1.0000
  H   H2276     1.0  0.92765  0.91759  0.76205  1.0000
  H   H2277     1.0  0.78805  0.98584  0.33464  1.0000
  H   H2278     1.0  0.77037  0.81634  0.48240  1.0000
  C   C2846     1.0  0.83312  0.74735  0.44083  1.0000
  C   C2847     1.0  0.96900  0.77816  0.88726  1.0000
  C   C2848     1.0  0.96782  0.92474  0.77841  1.0000
  C   C2849     1.0  0.91797  0.74836  0.02898  1.0000
  C   C2850     1.0  0.98299  0.80300  0.86616  1.0000
  C   C2851     1.0  0.78856  0.77397  0.27936  1.0000
  C   C2852     1.0  0.93833  0.92398  0.77130  1.0000
  C   C2853     1.0  0.80335  0.74481  0.12106  1.0000
  C   C2854     1.0  0.97433  0.87523  0.15840  1.0000
  H   H2279     1.0  0.94886  0.95959  0.81472  1.0000
  C   C2855     1.0  0.80395  0.74922  0.42809  1.0000
  C   C2856     1.0  0.98416  0.75135  0.93152  1.0000
  C   C2857     1.0  0.76397  0.93158  0.36552  1.0000
  H   H2280     1.0  0.92774  0.96308  0.41266  1.0000
  C   C2858     1.0  0.93403  0.74910  0.04355  1.0000
  H   H2281     1.0  0.98558  0.89077  0.45563  1.0000
  C   C2859     1.0  0.97865  0.84706  0.18126  1.0000
  C   C2860     1.0  0.74741  0.76995  0.91831  1.0000
  C   C2861     1.0  0.98172  0.90876  0.69273  1.0000
  H   H2282     1.0  0.97171  0.82584  0.88578  1.0000
  C   C2862     1.0  0.81332  0.96936  0.51204  1.0000
  H   H2283     1.0  0.95550  0.76378  0.04946  1.0000
  H   H2284     1.0  0.96746  0.96158  0.52519  1.0000
  C   C2863     1.0  0.79258  0.75999  0.34507  1.0000
  H   H2285     1.0  0.95143  0.98113  0.40863  1.0000
  H   H2286     1.0  0.92400  0.94418  0.47267  1.0000
  H   H2287     1.0  0.93608  0.76397  0.86566  1.0000
  P   P96       1.0  0.98772  0.91459  0.77484  1.0000
  C   C2864     1.0  0.76839  0.92217  0.54152  1.0000
  C   C2865     1.0  0.98631  0.96542  0.38996  1.0000
  H   H2288     1.0  0.99232  0.77861  0.85429  1.0000
  H   H2289     1.0  0.99101  0.94577  0.72929  1.0000
  H   H2290     1.0  0.75107  0.79192  0.27530  1.0000
  S   S383      1.0  0.98705  0.80468  0.07551  1.0000
  C   C2866     1.0  0.76695  0.93749  0.40431  1.0000
  H   H2291     1.0  0.97636  0.94643  0.80745  1.0000
  H   H2292     1.0  0.90914  0.75284  0.88563  1.0000
  H   H2293     1.0  0.97241  0.84207  0.24486  1.0000
  C   C2867     1.0  0.74757  0.94915  0.52305  1.0000
  H   H2294     1.0  0.75667  0.93776  0.30415  1.0000
  H   H2295     1.0  0.75711  0.74651  0.61872  1.0000
  C   C2868     1.0  0.92266  0.98765  0.30712  1.0000
  C   C2869     1.0  0.93539  0.75432  0.88898  1.0000
  H   H2296     1.0  0.78881  0.96515  0.53414  1.0000
  C   C2870     1.0  0.80296  0.74830  0.32571  1.0000
  C   C2871     1.0  0.75049  0.79833  0.30392  1.0000
  C   C2872     1.0  0.92015  0.74794  0.89988  1.0000
  H   H2297     1.0  0.99016  0.87248  0.91663  1.0000
  C   C2873     1.0  0.75799  0.95934  0.34084  1.0000
  C   C2874     1.0  0.80091  0.96680  0.43361  1.0000
  H   H2298     1.0  0.77014  0.92873  0.42846  1.0000
  C   C2875     1.0  0.97309  0.75483  0.80769  1.0000
  H   H2299     1.0  0.74355  0.76739  0.98277  1.0000
  C   C2876     1.0  0.99297  0.90740  0.85743  1.0000
  H   H2300     1.0  0.76478  0.91843  0.36057  1.0000
  S   S384      1.0  0.98731  0.85432  0.09931  1.0000
  H   H2301     1.0  0.84557  0.75029  0.43192  1.0000
  H   H2302     1.0  0.74823  0.82168  0.40629  1.0000
  C   C2877     1.0  0.97418  0.74611  0.84517  1.0000
  C   C2878     1.0  0.75429  0.74986  0.39438  1.0000
  H   H2303     1.0  0.97580  0.75366  0.74213  1.0000
  C   C2879     1.0  0.74897  0.81519  0.37782  1.0000
  C   C2880     1.0  0.74766  0.79261  0.62145  1.0000
  H   H2304     1.0  0.74388  0.81916  0.53855  1.0000
