data_image0
_chemical_formula_structural       S2CFeSFeS2FeSFeS2FeSCHFeS2HCFeCSH2C2SHSCFeSHCHCHC2HC3H2C6H4C6H4C6H4SCH2C2H2SH2C2HCHCH4CHC10SH2CHFeC2H2FeH2CH3SHCH2C2HCHC2H3CH2C3H3CHCHC3H2C2SCHCH2CHC2HPHC2HC2H2CH4C2HCH3PCPC4H5C2H2CH3CHC2H2CHC2HC3PC14H2SC7HCHCH2C2HCHC4H2CHCHC2PHSH2CHC7H4CFeH4CH2C4H2C2HCH3CSC2H2C3H3C2HCHCSHCFeHC4H2C3HC4HC2HC4HCH2C4HCPH3CH3C3HC3H4C2H2CHSHC2HCH3C3HSHCH2SCHCHCHCHC2H2C2HCH2CHCH2CSC2FeSHFeSFeSCFeS2FeS2FeSFeS3CSHSC4HCH2C7HCH2C2HC6H4C6HCH2C6H4CPHC4H3FeCHC5H2C2HC2H3C2HC2H2C3HC2HCHCPC3H2C3H3CH2CHC2HC2FeHC2HCH2CHCHCH2CSHC6PC16HCH17C2HC2HC2H5SHC7HC2PSHPC2HCHC2H6CHCHCH2C2HSCHC2H4C3H7C2HC2H3C2HCHCFeSCH2SHCH2C2HCFeS2FeHCSHSFeSFeHSFeHSFeSC2S3FeC2H4C6H4C6H2C8H2C3H3CH2C2H2C2HC2HCHC4H4C3H2CHC2H5SC5HCHSC2H3C2HC2H4CHCHCHC2H2CHC5SC3HC3H5C2HCH2C5PC3H4CHCHPC5SHCHCPH2CH2CHSH3C2SC6H4C3HC2HC2H5C3SCFeCH2CH2SHSFeS2C4SHSHFeSHSHSHFeSFeSCSC3H5CHC5HCH2CHC4HCHC2HC6H3C6H4CHCH2CHSC2FePCH2C3H3FeC3H2FeCPCH2CH2CHC2H2C3H3C2HCH3C3H4C2HCH4C2SHC2HFeC5H2SCFeC2HCH4C2HC8HCHPCPC3H2C3HCHC3HC2HSC2HC3H2C5H4CHC5H3C2HCHC2H2CPH2CFeHC2H2C2HCHFeCSCSC2HSCFeS2FeHFeS5CH2C9H4C4H4CHC5H3CH7CH6FeH4C3HC2HCHC3H2CH3CH2C4PC10H3CH7C6PC8HC2HC3PH6C2HC3HC3H3CHSC4FeC2HC2HPC3H5C2HCH2C8HS2H3CHCFeC5HCH2CH7C3FeS2FeSHSPSCSFeSHSHCSFeSH3CH2C7H5CHC7H8CHSC6PC3HC3H7C2H2C4HFeHC2SCH2FeC3HC4H5CH2CH4CH3CFeHC2PC10HC7HCHCHC2HC2H3C2H4C3HCH3CPHCH2C3HCHCHCH2C3HC2HFeCH2C2HCHCHPCSC6H4CHCHC2HC2HSHCFeCHS2HSCFeSFeCSC2SHCFeHSHC7H4C6H4C6H2CH9FeC7SCH2CHC4H2CHCHC4HCH2C3PH2C2SHC2H3CS2CHC2HCHCSHC6PC4H2CHCH2C3HC3HC2H3C3HC3FeHSCH3CH2CHC3HCSH2C3H2PSCH4C2HCHCH3CHCH2CFeSC6PC2FeHCHC2HC7H5C2SHCH3CH2CH2CH2CSHPSCSCSHCSCFeS2C7H4C2H3C2FeHCPSCHC6H4C6H5CFeHCH3C4HC2H5C2HCH2CHC2HC2HCSCFeC3H4C2H3SHC2H2CHC2SHC6H2C7HCHC4H2CPH15C4HCHCH2CH2C7HFeHC7PHCH2C3H2C2HFeCHC3H2SHCPHC2SCFeS2FeS2FeS2FeSFeS3HCFeS2FeHSCFeS2FeCHCFeS2H2C2HC6H5SHC6H4C6H2C7H4C6H4SC6PC18H20C4HCPC7H2C5H4CH6CHC3HC3HC4H3C8PC15HCH17C2H3C2HSH3CH2C4H4CHC3H2CSC2FeHCH2C2FeHC3HCHSH3SFeHCH2FeHCH2SHC4H2PH2C3HC2H3CHCHCHCSHC2H5CHC2HFeC6H2FeS2CSC3HCH2C2H4C6FeH2CSH3SH2C2SHCH2C2H2CHSHCHSC7PC5SC12H6C3H8CH4C2SHC2H4CHC3FeCH2CS2H3FeS2CFeS2FeS2C4FeSHSCSFeS2FeSFeCSHCH2C2FeHCHC2PCSHC6H2C9H4C5HC3PH2CHC2HC2H2C3H2CH2C3H3CSH3C4HC2H3C2HC3SC2SC3H2PCH9CH2C2HC2HCHCHC4H3C3H3C5HC2H2C6H3CHC3HC5H5CFeC3H4C5HCHC2PHC2H7C2HC2H2CHCH3PC3H2C3H2C3H5C2PC3
_chemical_formula_sum              "S192 C1440 Fe96 H1152 P48"
_cell_length_a       31.9241
_cell_length_b       57.6944
_cell_length_c       55.4578
_cell_angle_alpha    90.1703
_cell_angle_beta     96.3059
_cell_angle_gamma    89.7053

_space_group_name_H-M_alt    "P 1"
_space_group_IT_number       1

loop_
  _space_group_symop_operation_xyz
  'x, y, z'

loop_
  _atom_site_type_symbol
  _atom_site_label
  _atom_site_symmetry_multiplicity
  _atom_site_fract_x
  _atom_site_fract_y
  _atom_site_fract_z
  _atom_site_occupancy
  S   S1        1.0  0.22867  0.03642  0.03429  1.0000
  S   S2        1.0  0.33999  0.04917  0.07114  1.0000
  C   C1        1.0  0.16348  0.11503  0.49601  1.0000
  Fe  Fe1       1.0  0.16373  0.03921  0.40407  1.0000
  S   S3        1.0  0.10511  0.05290  0.38218  1.0000
  Fe  Fe2       1.0  0.22153  0.07382  0.38036  1.0000
  S   S4        1.0  0.16650  0.08977  0.35749  1.0000
  S   S5        1.0  0.29162  0.08381  0.38278  1.0000
  Fe  Fe3       1.0  0.13129  0.08828  0.39061  1.0000
  S   S6        1.0  0.09470  0.11922  0.40362  1.0000
  Fe  Fe4       1.0  0.14445  0.05292  0.35073  1.0000
  S   S7        1.0  0.18784  0.07487  0.41378  1.0000
  S   S8        1.0  0.20159  0.03668  0.37197  1.0000
  Fe  Fe5       1.0  0.46703  0.22288  0.10730  1.0000
  S   S9        1.0  0.41745  0.20027  0.12081  1.0000
  C   C2        1.0  0.37795  0.17749  0.27946  1.0000
  H   H1        1.0  0.03436  0.03751  0.07281  1.0000
  Fe  Fe6       1.0  0.43531  0.17366  0.09401  1.0000
  S   S10       1.0  0.38867  0.15553  0.06651  1.0000
  S   S11       1.0  0.45992  0.26232  0.10279  1.0000
  H   H2        1.0  0.38522  0.30569  0.23549  1.0000
  C   C3        1.0  0.25196  0.06899  0.46882  1.0000
  Fe  Fe7       1.0  0.45745  0.18802  0.35520  1.0000
  C   C4        1.0  0.27861  0.12424  0.44521  1.0000
  S   S12       1.0  0.38929  0.17403  0.35092  1.0000
  H   H3        1.0  0.23683  0.23818  0.01880  1.0000
  H   H4        1.0  0.30386  0.03974  0.42743  1.0000
  C   C5        1.0  0.48086  0.18946  0.25628  1.0000
  C   C6        1.0  0.11302  0.03187  0.17629  1.0000
  S   S13       1.0  0.46369  0.22129  0.33442  1.0000
  H   H5        1.0  0.16367  0.06600  0.46145  1.0000
  S   S14       1.0  0.48435  0.15627  0.11993  1.0000
  C   C7        1.0  0.24073  0.04991  0.48244  1.0000
  Fe  Fe8       1.0  0.29915  0.03312  0.03944  1.0000
  S   S15       1.0  0.15708  0.01809  0.43834  1.0000
  H   H6        1.0  0.45302  0.31848  0.14840  1.0000
  C   C8        1.0  0.25729  0.22310  0.02064  1.0000
  H   H7        1.0  0.22206  0.05236  0.49740  1.0000
  C   C9        1.0  0.36462  0.25685  0.32513  1.0000
  H   H8        1.0  0.48551  0.03252  0.02819  1.0000
  C   C10       1.0  0.31415  0.03858  0.15239  1.0000
  C   C11       1.0  0.44703  0.14441  0.01572  1.0000
  H   H9        1.0  0.24916  0.15820  0.39614  1.0000
  C   C12       1.0  0.43623  0.08348  0.01836  1.0000
  C   C13       1.0  0.12267  0.01021  0.13201  1.0000
  C   C14       1.0  0.05349  0.11723  0.42263  1.0000
  H   H10       1.0  0.45970  0.12277  0.34131  1.0000
  H   H11       1.0  0.10813  0.03971  0.19346  1.0000
  C   C15       1.0  0.31787  0.10943  0.37442  1.0000
  C   C16       1.0  0.36196  0.11097  0.37976  1.0000
  C   C17       1.0  0.38429  0.13068  0.37319  1.0000
  C   C18       1.0  0.36285  0.14910  0.36086  1.0000
  C   C19       1.0  0.31873  0.14757  0.35556  1.0000
  C   C20       1.0  0.29635  0.12802  0.36246  1.0000
  H   H12       1.0  0.37905  0.09678  0.38906  1.0000
  H   H13       1.0  0.41811  0.13154  0.37753  1.0000
  H   H14       1.0  0.30171  0.16163  0.34598  1.0000
  H   H15       1.0  0.26249  0.12726  0.35835  1.0000
  C   C21       1.0  0.38640  0.30515  0.04145  1.0000
  C   C22       1.0  0.38377  0.28077  0.04133  1.0000
  C   C23       1.0  0.40623  0.26735  0.05978  1.0000
  C   C24       1.0  0.43151  0.27821  0.07870  1.0000
  C   C25       1.0  0.43410  0.30258  0.07882  1.0000
  C   C26       1.0  0.41184  0.31598  0.06030  1.0000
  H   H16       1.0  0.46241  0.31385  0.40091  1.0000
  H   H17       1.0  0.40388  0.24866  0.05944  1.0000
  H   H18       1.0  0.22566  0.01617  0.24568  1.0000
  H   H19       1.0  0.08881  0.06713  0.46741  1.0000
  C   C27       1.0  0.35470  0.07854  0.06940  1.0000
  C   C28       1.0  0.34134  0.09196  0.04903  1.0000
  C   C29       1.0  0.35339  0.11531  0.04816  1.0000
  C   C30       1.0  0.37782  0.12563  0.06782  1.0000
  C   C31       1.0  0.39149  0.11221  0.08814  1.0000
  C   C32       1.0  0.38016  0.08868  0.08885  1.0000
  H   H20       1.0  0.32137  0.08446  0.03406  1.0000
  H   H21       1.0  0.34303  0.12558  0.03239  1.0000
  H   H22       1.0  0.41015  0.12006  0.10345  1.0000
  H   H23       1.0  0.39069  0.07839  0.10465  1.0000
  S   S16       1.0  0.35667  0.32109  0.01787  1.0000
  C   C33       1.0  0.16106  0.06528  0.25049  1.0000
  H   H24       1.0  0.41732  0.25797  0.18068  1.0000
  H   H25       1.0  0.47622  0.24267  0.20894  1.0000
  C   C34       1.0  0.50518  0.18030  0.02518  1.0000
  C   C35       1.0  0.11516  0.01956  0.29508  1.0000
  H   H26       1.0  0.27943  0.15125  0.27280  1.0000
  H   H27       1.0  0.43408  0.32570  0.31710  1.0000
  S   S17       1.0  0.45301  0.17625  0.18410  1.0000
  H   H28       1.0  0.06032  0.09900  0.49111  1.0000
  H   H29       1.0  0.36430  0.27221  0.02682  1.0000
  C   C36       1.0  0.15770  0.01354  0.14912  1.0000
  C   C37       1.0  0.42751  0.27890  0.32045  1.0000
  H   H30       1.0  0.36251  0.22875  0.24960  1.0000
  C   C38       1.0  0.37873  0.20135  0.27525  1.0000
  H   H31       1.0  0.14058  0.06282  0.26466  1.0000
  C   C39       1.0  0.36055  0.21038  0.25318  1.0000
  H   H32       1.0  0.07277  0.03342  0.26564  1.0000
  H   H33       1.0  0.34072  0.04063  0.14194  1.0000
  H   H34       1.0  0.24240  0.01272  0.48639  1.0000
  H   H35       1.0  0.06952  0.03305  0.42522  1.0000
  C   C40       1.0  0.25232  0.02741  0.47634  1.0000
  H   H36       1.0  0.49838  0.25607  0.29856  1.0000
  C   C41       1.0  0.17983  0.09710  0.48256  1.0000
  C   C42       1.0  0.23865  0.11761  0.45108  1.0000
  C   C43       1.0  0.20251  0.12663  0.43747  1.0000
  C   C44       1.0  0.20634  0.14125  0.41778  1.0000
  C   C45       1.0  0.24619  0.14728  0.41172  1.0000
  C   C46       1.0  0.28231  0.13885  0.42548  1.0000
  C   C47       1.0  0.49956  0.29873  0.37467  1.0000
  C   C48       1.0  0.07801  0.02841  0.15915  1.0000
  C   C49       1.0  0.10978  0.08022  0.47591  1.0000
  C   C50       1.0  0.50109  0.09886  0.09456  1.0000
  S   S18       1.0  0.48073  0.19754  0.07852  1.0000
  H   H37       1.0  0.05089  0.08005  0.42257  1.0000
  H   H38       1.0  0.04676  0.03328  0.16333  1.0000
  C   C51       1.0  0.27644  0.05036  0.14541  1.0000
  H   H39       1.0  0.32367  0.16063  0.22591  1.0000
  Fe  Fe9       1.0  0.50377  0.23457  0.36742  1.0000
  C   C52       1.0  0.20268  0.10175  0.03953  1.0000
  C   C53       1.0  0.08282  0.01758  0.13705  1.0000
  H   H40       1.0  0.17119  0.12188  0.44139  1.0000
  H   H41       1.0  0.17820  0.14744  0.40692  1.0000
  Fe  Fe10      1.0  0.47030  0.18474  0.14612  1.0000
  H   H42       1.0  0.38274  0.06129  0.01768  1.0000
  H   H43       1.0  0.39116  0.11998  0.18082  1.0000
  C   C54       1.0  0.24439  0.03224  0.17842  1.0000
  H   H44       1.0  0.28423  0.07909  0.43792  1.0000
  H   H45       1.0  0.28549  0.00899  0.20083  1.0000
  H   H46       1.0  0.34651  0.01467  0.17783  1.0000
  S   S19       1.0  0.49229  0.26994  0.38495  1.0000
  H   H47       1.0  0.45643  0.28654  0.32863  1.0000
  C   C55       1.0  0.46911  0.01753  0.03403  1.0000
  H   H48       1.0  0.46708  0.18561  0.27276  1.0000
  H   H49       1.0  0.04791  0.15429  0.42635  1.0000
  C   C56       1.0  0.37870  0.26973  0.28526  1.0000
  C   C57       1.0  0.31733  0.02392  0.17255  1.0000
  H   H50       1.0  0.48888  0.10779  0.10949  1.0000
  C   C58       1.0  0.04938  0.01599  0.45634  1.0000
  H   H51       1.0  0.32115  0.08762  0.24882  1.0000
  C   C59       1.0  0.27509  0.02371  0.45656  1.0000
  C   C60       1.0  0.27570  0.06507  0.44926  1.0000
  H   H52       1.0  0.34529  0.24743  0.33664  1.0000
  H   H53       1.0  0.32451  0.24962  0.29226  1.0000
  H   H54       1.0  0.39449  0.21269  0.28897  1.0000
  C   C61       1.0  0.48094  0.31735  0.38614  1.0000
  H   H55       1.0  0.08122  0.01093  0.46313  1.0000
  H   H56       1.0  0.41081  0.26646  0.35469  1.0000
  C   C62       1.0  0.28260  0.02073  0.18554  1.0000
  C   C63       1.0  0.44008  0.28415  0.24565  1.0000
  C   C64       1.0  0.43843  0.32617  0.27828  1.0000
  H   H57       1.0  0.44795  0.12553  0.25149  1.0000
  H   H58       1.0  0.35620  0.20723  0.04425  1.0000
  H   H59       1.0  0.43136  0.17317  0.23289  1.0000
  C   C65       1.0  0.15330  0.02455  0.17139  1.0000
  H   H60       1.0  0.45200  0.20334  0.01820  1.0000
  C   C66       1.0  0.34036  0.19563  0.23560  1.0000
  H   H61       1.0  0.35135  0.08309  0.17551  1.0000
  C   C67       1.0  0.16416  0.04803  0.23301  1.0000
  C   C68       1.0  0.09377  0.09817  0.48921  1.0000
  C   C69       1.0  0.03760  0.09585  0.42907  1.0000
  H   H62       1.0  0.03839  0.02070  0.35330  1.0000
  H   H63       1.0  0.31688  0.06698  0.20976  1.0000
  C   C70       1.0  0.03588  0.13766  0.43125  1.0000
  C   C71       1.0  0.15250  0.07969  0.47252  1.0000
  S   S20       1.0  0.11464  0.04558  0.31215  1.0000
  C   C72       1.0  0.02920  0.02417  0.01745  1.0000
  H   H64       1.0  0.49081  0.25867  0.25004  1.0000
  C   C73       1.0  0.47879  0.18666  0.21204  1.0000
  H   H65       1.0  0.27398  0.06150  0.12959  1.0000
  H   H66       1.0  0.45357  0.31112  0.09332  1.0000
  C   C74       1.0  0.41637  0.28015  0.29531  1.0000
  H   H67       1.0  0.32644  0.20263  0.21844  1.0000
  C   C75       1.0  0.31032  0.18439  0.02549  1.0000
  C   C76       1.0  0.46088  0.18222  0.23363  1.0000
  H   H68       1.0  0.42380  0.13085  0.01262  1.0000
  P   P1        1.0  0.23417  0.09788  0.47600  1.0000
  H   H69       1.0  0.36901  0.27046  0.26600  1.0000
  C   C77       1.0  0.33921  0.17176  0.23983  1.0000
  C   C78       1.0  0.21493  0.07125  0.21448  1.0000
  H   H70       1.0  0.18126  0.08742  0.03530  1.0000
  C   C79       1.0  0.40154  0.26754  0.33530  1.0000
  C   C80       1.0  0.29823  0.22521  0.03227  1.0000
  H   H71       1.0  0.42842  0.03829  0.05422  1.0000
  H   H72       1.0  0.39014  0.12796  0.31832  1.0000
  C   C81       1.0  0.32467  0.20581  0.03478  1.0000
  H   H73       1.0  0.23029  0.10415  0.23177  1.0000
  H   H74       1.0  0.22211  0.13802  0.29583  1.0000
  H   H75       1.0  0.29540  0.07841  0.32041  1.0000
  H   H76       1.0  0.31319  0.14319  0.42042  1.0000
  C   C82       1.0  0.48924  0.12156  0.28425  1.0000
  C   C83       1.0  0.20931  0.11778  0.02150  1.0000
  H   H77       1.0  0.38815  0.00479  0.06678  1.0000
  C   C84       1.0  0.18492  0.08546  0.25006  1.0000
  H   H78       1.0  0.48747  0.12708  0.06973  1.0000
  H   H79       1.0  0.37166  0.28942  0.19404  1.0000
  H   H80       1.0  0.44650  0.33373  0.24079  1.0000
  P   P2        1.0  0.19850  0.02719  0.19408  1.0000
  C   C85       1.0  0.26013  0.13783  0.04968  1.0000
  P   P3        1.0  0.44958  0.29545  0.27626  1.0000
  C   C86       1.0  0.04280  0.02825  0.43456  1.0000
  C   C87       1.0  0.25340  0.12177  0.06769  1.0000
  C   C88       1.0  0.22496  0.10362  0.06257  1.0000
  C   C89       1.0  0.45682  0.12256  0.32165  1.0000
  H   H81       1.0  0.21251  0.05631  0.15257  1.0000
  H   H82       1.0  0.23612  0.07393  0.20084  1.0000
  H   H83       1.0  0.18339  0.12902  0.50335  1.0000
  H   H84       1.0  0.22985  0.10149  0.31944  1.0000
  H   H85       1.0  0.43172  0.09016  0.03621  1.0000
  C   C90       1.0  0.43356  0.16752  0.01420  1.0000
  C   C91       1.0  0.19144  0.05074  0.21497  1.0000
  H   H86       1.0  0.39631  0.14063  0.21964  1.0000
  H   H87       1.0  0.18272  0.09866  0.26382  1.0000
  C   C92       1.0  0.01524  0.01038  0.46911  1.0000
  H   H88       1.0  0.30941  0.24181  0.03958  1.0000
  H   H89       1.0  0.35278  0.09092  0.29700  1.0000
  H   H90       1.0  0.14605  0.03226  0.23400  1.0000
  C   C93       1.0  0.24171  0.04730  0.15841  1.0000
  H   H91       1.0  0.28351  0.15112  0.05400  1.0000
  C   C94       1.0  0.48987  0.13916  0.02180  1.0000
  C   C95       1.0  0.23858  0.13577  0.02628  1.0000
  H   H92       1.0  0.27151  0.12295  0.08537  1.0000
  H   H93       1.0  0.22084  0.09075  0.07629  1.0000
  C   C96       1.0  0.21172  0.08850  0.23201  1.0000
  H   H94       1.0  0.39285  0.17091  0.29659  1.0000
  C   C97       1.0  0.28692  0.04254  0.44311  1.0000
  C   C98       1.0  0.35311  0.25801  0.30011  1.0000
  H   H95       1.0  0.30694  0.11759  0.45546  1.0000
  C   C99       1.0  0.41724  0.12532  0.30847  1.0000
  C   C100      1.0  0.41313  0.12560  0.28298  1.0000
  C   C101      1.0  0.44962  0.12411  0.27099  1.0000
  P   P4        1.0  0.36246  0.13142  0.26606  1.0000
  C   C102      1.0  0.35879  0.11595  0.23734  1.0000
  C   C103      1.0  0.32038  0.12202  0.28306  1.0000
  C   C104      1.0  0.32431  0.10130  0.29640  1.0000
  C   C105      1.0  0.29170  0.09397  0.30943  1.0000
  C   C106      1.0  0.25472  0.10706  0.30897  1.0000
  C   C107      1.0  0.25047  0.12765  0.29569  1.0000
  C   C108      1.0  0.28314  0.13514  0.28276  1.0000
  C   C109      1.0  0.37857  0.12469  0.21785  1.0000
  C   C110      1.0  0.37573  0.11293  0.19567  1.0000
  C   C111      1.0  0.35334  0.09220  0.19272  1.0000
  C   C112      1.0  0.33383  0.08320  0.21199  1.0000
  C   C113      1.0  0.33645  0.09501  0.23421  1.0000
  C   C114      1.0  0.35922  0.16242  0.26150  1.0000
  C   C115      1.0  0.27120  0.13321  0.50532  1.0000
  H   H96       1.0  0.33117  0.16954  0.02769  1.0000
  H   H97       1.0  0.42443  0.33070  0.18632  1.0000
  S   S21       1.0  0.49402  0.20221  0.38918  1.0000
  C   C116      1.0  0.50464  0.29171  0.28725  1.0000
  C   C117      1.0  0.39794  0.28307  0.20631  1.0000
  C   C118      1.0  0.40598  0.29237  0.22971  1.0000
  C   C119      1.0  0.46262  0.18546  0.01870  1.0000
  C   C120      1.0  0.43304  0.33616  0.30090  1.0000
  C   C121      1.0  0.49282  0.12062  0.30955  1.0000
  C   C122      1.0  0.09101  0.01846  0.27232  1.0000
  H   H98       1.0  0.25504  0.14515  0.49236  1.0000
  C   C123      1.0  0.43652  0.02096  0.04860  1.0000
  H   H99       1.0  0.41417  0.33468  0.06068  1.0000
  C   C124      1.0  0.26712  0.10914  0.50196  1.0000
  H   H100      1.0  0.28279  0.00621  0.45137  1.0000
  H   H101      1.0  0.07532  0.03714  0.50057  1.0000
  C   C125      1.0  0.06969  0.01416  0.02073  1.0000
  C   C126      1.0  0.12063  0.11551  0.49932  1.0000
  H   H102      1.0  0.18801  0.00689  0.14512  1.0000
  C   C127      1.0  0.45688  0.25673  0.21467  1.0000
  H   H103      1.0  0.05538  0.01424  0.12420  1.0000
  C   C128      1.0  0.50064  0.10977  0.07201  1.0000
  C   C129      1.0  0.42350  0.26532  0.19877  1.0000
  C   C130      1.0  0.44816  0.33675  0.15208  1.0000
  C   C131      1.0  0.46515  0.26601  0.23802  1.0000
  H   H104      1.0  0.10791  0.12971  0.50914  1.0000
  H   H105      1.0  0.01536  0.06850  0.10048  1.0000
  C   C132      1.0  0.26926  0.18202  0.01381  1.0000
  H   H106      1.0  0.28528  0.33293  0.45391  1.0000
  C   C133      1.0  0.09128  0.02416  0.51234  1.0000
  H   H107      1.0  0.24264  0.02712  0.92971  1.0000
  C   C134      1.0  0.47056  0.09059  0.00648  1.0000
  C   C135      1.0  0.02251  0.04424  0.00322  1.0000
  P   P5        1.0  0.21731  0.28869  0.92528  1.0000
  H   H108      1.0  0.38568  0.10928  0.95947  1.0000
  S   S22       1.0  0.06739  0.07002  0.88419  1.0000
  H   H109      1.0  0.08086  0.29164  0.84984  1.0000
  H   H110      1.0  0.14407  0.07273  0.67062  1.0000
  C   C136      1.0  0.30100  0.02045  0.91479  1.0000
  H   H111      1.0  0.14480  0.04611  0.52235  1.0000
  C   C137      1.0  0.28819  0.09416  0.51923  1.0000
  C   C138      1.0  0.16440  0.07209  0.95160  1.0000
  C   C139      1.0  0.14153  0.09219  0.94421  1.0000
  C   C140      1.0  0.11087  0.09175  0.92392  1.0000
  C   C141      1.0  0.10334  0.07121  0.91074  1.0000
  C   C142      1.0  0.12581  0.05104  0.91837  1.0000
  C   C143      1.0  0.15599  0.05141  0.93886  1.0000
  H   H112      1.0  0.14767  0.10817  0.95417  1.0000
  H   H113      1.0  0.09370  0.10735  0.91819  1.0000
  H   H114      1.0  0.11999  0.03509  0.90828  1.0000
  H   H115      1.0  0.17300  0.03578  0.94461  1.0000
  C   C144      1.0  0.10644  0.29084  0.86443  1.0000
  Fe  Fe11      1.0  0.01910  0.09801  0.87247  1.0000
  H   H116      1.0  0.28568  0.07557  0.51722  1.0000
  H   H117      1.0  0.05032  0.06926  0.98093  1.0000
  H   H118      1.0  0.11360  0.25383  0.86219  1.0000
  H   H119      1.0  0.34563  0.32969  0.87609  1.0000
  C   C145      1.0  0.19937  0.24440  0.94136  1.0000
  H   H120      1.0  0.23978  0.14930  0.94834  1.0000
  H   H121      1.0  0.27039  0.27062  0.88978  1.0000
  C   C146      1.0  0.12956  0.03703  0.66195  1.0000
  C   C147      1.0  0.15597  0.05509  0.67085  1.0000
  C   C148      1.0  0.19766  0.05041  0.68007  1.0000
  C   C149      1.0  0.31762  0.12709  0.54234  1.0000
  H   H122      1.0  0.32300  0.17181  0.97780  1.0000
  H   H123      1.0  0.50275  0.08558  0.97435  1.0000
  C   C150      1.0  0.12494  0.26956  0.87143  1.0000
  C   C151      1.0  0.12136  0.31117  0.87599  1.0000
  H   H124      1.0  0.21811  0.06442  0.68698  1.0000
  C   C152      1.0  0.40793  0.06716  0.00772  1.0000
  H   H125      1.0  0.32997  0.09147  0.55238  1.0000
  H   H126      1.0  0.38136  0.15226  0.96012  1.0000
  H   H127      1.0  0.09468  0.28233  0.76815  1.0000
  C   C153      1.0  0.13057  0.02939  0.52486  1.0000
  S   S23       1.0  0.30640  0.04173  0.00085  1.0000
  C   C154      1.0  0.35993  0.11786  0.96715  1.0000
  C   C155      1.0  0.28395  0.23096  0.94990  1.0000
  H   H128      1.0  0.13418  0.01623  0.60873  1.0000
  H   H129      1.0  0.09415  0.27498  0.92879  1.0000
  C   C156      1.0  0.13079  0.16326  0.96979  1.0000
  C   C157      1.0  0.07705  0.02332  0.58566  1.0000
  C   C158      1.0  0.15837  0.26863  0.89001  1.0000
  H   H130      1.0  0.16652  0.24957  0.93875  1.0000
  H   H131      1.0  0.17339  0.25209  0.89424  1.0000
  H   H132      1.0  0.18235  0.01684  0.54976  1.0000
  C   C159      1.0  0.10255  0.02379  0.00942  1.0000
  C   C160      1.0  0.20992  0.22201  0.94965  1.0000
  H   H133      1.0  0.45103  0.05794  0.95514  1.0000
  C   C161      1.0  0.47589  0.08116  0.98362  1.0000
  H   H134      1.0  0.33738  0.13402  0.55780  1.0000
  C   C162      1.0  0.25932  0.30141  0.91060  1.0000
  S   S24       1.0  0.20329  0.07364  0.97675  1.0000
  H   H135      1.0  0.32602  0.28849  0.86837  1.0000
  C   C163      1.0  0.15429  0.31027  0.89478  1.0000
  Fe  Fe12      1.0  0.23588  0.04225  0.99493  1.0000
  H   H136      1.0  0.06555  0.23769  0.94208  1.0000
  C   C164      1.0  0.23103  0.25990  0.93629  1.0000
  C   C165      1.0  0.06068  0.27158  0.92575  1.0000
  C   C166      1.0  0.27929  0.28845  0.89364  1.0000
  C   C167      1.0  0.20976  0.15356  0.95462  1.0000
  H   H137      1.0  0.44272  0.01186  0.98342  1.0000
  H   H138      1.0  0.33030  0.08596  0.97596  1.0000
  C   C168      1.0  0.17242  0.28896  0.90238  1.0000
  C   C169      1.0  0.14463  0.01409  0.66229  1.0000
  C   C170      1.0  0.15166  0.01296  0.54031  1.0000
  H   H139      1.0  0.09728  0.04095  0.65491  1.0000
  C   C171      1.0  0.03353  0.28822  0.91432  1.0000
  C   C172      1.0  0.21296  0.02766  0.68038  1.0000
  C   C173      1.0  0.01138  0.25481  0.85599  1.0000
  C   C174      1.0  0.31343  0.10314  0.53928  1.0000
  H   H140      1.0  0.00747  0.03774  0.89640  1.0000
  C   C175      1.0  0.25220  0.21524  0.95370  1.0000
  C   C176      1.0  0.05351  0.27906  0.73481  1.0000
  H   H141      1.0  0.17681  0.15202  0.91852  1.0000
  C   C177      1.0  0.27347  0.25325  0.94132  1.0000
  C   C178      1.0  0.41280  0.05815  0.98481  1.0000
  C   C179      1.0  0.01362  0.28401  0.72282  1.0000
  C   C180      1.0  0.32444  0.15308  0.97776  1.0000
  H   H142      1.0  0.39069  0.04536  0.97671  1.0000
  C   C181      1.0  0.35749  0.14205  0.96757  1.0000
  H   H143      1.0  0.16278  0.16387  0.00597  1.0000
  H   H144      1.0  0.27260  0.10502  0.99412  1.0000
  C   C182      1.0  0.29608  0.11565  0.98690  1.0000
  C   C183      1.0  0.16844  0.31340  0.95586  1.0000
  C   C184      1.0  0.32896  0.10470  0.97657  1.0000
  C   C185      1.0  0.19726  0.33096  0.99384  1.0000
  H   H145      1.0  0.26038  0.19793  0.96014  1.0000
  C   C186      1.0  0.29644  0.14212  0.52538  1.0000
  P   P6        1.0  0.25167  0.15406  0.00175  1.0000
  H   H146      1.0  0.16597  0.32629  0.90322  1.0000
  H   H147      1.0  0.07616  0.26934  0.72561  1.0000
  H   H148      1.0  0.12119  0.05105  0.98654  1.0000
  C   C187      1.0  0.29409  0.13995  0.98813  1.0000
  H   H149      1.0  0.08259  0.01506  0.69375  1.0000
  H   H150      1.0  0.29855  0.26532  0.93890  1.0000
  H   H151      1.0  0.30972  0.03857  0.91477  1.0000
  C   C188      1.0  0.03335  0.02064  0.58216  1.0000
  C   C189      1.0  0.13465  0.15996  0.94515  1.0000
  C   C190      1.0  0.17411  0.15513  0.93759  1.0000
  H   H152      1.0  0.10694  0.16071  0.93192  1.0000
  C   C191      1.0  0.44674  0.06522  0.97272  1.0000
  C   C192      1.0  0.24294  0.30965  0.96954  1.0000
  C   C193      1.0  0.10032  0.01395  0.60623  1.0000
  H   H153      1.0  0.04212  0.30380  0.78944  1.0000
  H   H154      1.0  0.04591  0.30458  0.90860  1.0000
  H   H155      1.0  0.27432  0.30348  0.96708  1.0000
  H   H156      1.0  0.10003  0.16657  0.97566  1.0000
  C   C194      1.0  0.20870  0.30523  0.95199  1.0000
  C   C195      1.0  0.31060  0.29856  0.88138  1.0000
  H   H157      1.0  0.04181  0.23181  0.88321  1.0000
  H   H158      1.0  0.24532  0.02404  0.68748  1.0000
  C   C196      1.0  0.03454  0.29858  0.77069  1.0000
  H   H159      1.0  0.18533  0.20992  0.95301  1.0000
  S   S25       1.0  0.01918  0.18526  0.86931  1.0000
  H   H160      1.0  0.10761  0.32773  0.87030  1.0000
  C   C197      1.0  0.20616  0.15690  0.97943  1.0000
  C   C198      1.0  0.04454  0.25062  0.93321  1.0000
  H   H161      1.0  0.40037  0.17152  0.01042  1.0000
  C   C199      1.0  0.05550  0.05377  0.99191  1.0000
  H   H162      1.0  0.31677  0.22595  0.95376  1.0000
  H   H163      1.0  0.01521  0.02842  0.65929  1.0000
  H   H164      1.0  0.09282  0.03270  0.57242  1.0000
  C   C200      1.0  0.23721  0.32249  0.99033  1.0000
  C   C201      1.0  0.16636  0.16170  0.98688  1.0000
  C   C202      1.0  0.06398  0.28636  0.75874  1.0000
  H   H165      1.0  0.29973  0.16071  0.52770  1.0000
  S   S26       1.0  0.02304  0.12102  0.83997  1.0000
  H   H166      1.0  0.41524  0.01653  0.94057  1.0000
  C   C203      1.0  0.18659  0.00953  0.67154  1.0000
  H   H167      1.0  0.14137  0.31021  0.94280  1.0000
  H   H168      1.0  0.21084  0.20038  0.00285  1.0000
  S   S27       1.0  0.23192  0.00464  0.98478  1.0000
  C   C204      1.0  0.26314  0.01399  0.92324  1.0000
  H   H169      1.0  0.13197  0.33306  0.97933  1.0000
  C   C205      1.0  0.27011  0.32479  0.91451  1.0000
  H   H170      1.0  0.26398  0.32611  0.00361  1.0000
  C   C206      1.0  0.44513  0.00776  0.94518  1.0000
  H   H171      1.0  0.25424  0.33548  0.92683  1.0000
  C   C207      1.0  0.09548  0.04354  0.99502  1.0000
  H   H172      1.0  0.19285  0.11546  0.00353  1.0000
  C   C208      1.0  0.16287  0.32629  0.97670  1.0000
  C   C209      1.0  0.30122  0.33485  0.90214  1.0000
  H   H173      1.0  0.01522  0.02790  0.56629  1.0000
  H   H174      1.0  0.02320  0.27038  0.86509  1.0000
  C   C210      1.0  0.02174  0.23288  0.86624  1.0000
  C   C211      1.0  0.32163  0.32175  0.88567  1.0000
  H   H175      1.0  0.01008  0.13210  0.74138  1.0000
  C   C212      1.0  0.24269  0.20157  0.01160  1.0000
  H   H176      1.0  0.01290  0.05573  0.93711  1.0000
  H   H177      1.0  0.35757  0.00849  0.90083  1.0000
  C   C213      1.0  0.46069  0.00498  0.96957  1.0000
  H   H178      1.0  0.04207  0.33599  0.71520  1.0000
  C   C214      1.0  0.01295  0.00862  0.59925  1.0000
  H   H179      1.0  0.13376  0.01606  0.01203  1.0000
  H   H180      1.0  0.45126  0.58096  0.11677  1.0000
  C   C215      1.0  0.14710  0.63718  0.33626  1.0000
  S   S28       1.0  0.29921  0.43569  0.04437  1.0000
  C   C216      1.0  0.47973  0.58806  0.21469  1.0000
  C   C217      1.0  0.45702  0.45239  0.14325  1.0000
  Fe  Fe13      1.0  0.27042  0.51269  0.50212  1.0000
  S   S29       1.0  0.42274  0.41686  0.36282  1.0000
  H   H181      1.0  0.30860  0.40750  0.09874  1.0000
  Fe  Fe14      1.0  0.43745  0.44998  0.34373  1.0000
  S   S30       1.0  0.39346  0.45996  0.30986  1.0000
  Fe  Fe15      1.0  0.44305  0.43617  0.39752  1.0000
  S   S31       1.0  0.41456  0.43249  0.43314  1.0000
  C   C218      1.0  0.38065  0.57581  0.45641  1.0000
  Fe  Fe16      1.0  0.38340  0.58508  0.15689  1.0000
  S   S32       1.0  0.33186  0.56749  0.13274  1.0000
  S   S33       1.0  0.41850  0.61733  0.14653  1.0000
  Fe  Fe17      1.0  0.37483  0.55136  0.19955  1.0000
  S   S34       1.0  0.32309  0.53126  0.17820  1.0000
  S   S35       1.0  0.40601  0.54586  0.23835  1.0000
  Fe  Fe18      1.0  0.36191  0.53386  0.14653  1.0000
  S   S36       1.0  0.38861  0.50448  0.12462  1.0000
  Fe  Fe19      1.0  0.29706  0.56664  0.16623  1.0000
  S   S37       1.0  0.22652  0.57517  0.16444  1.0000
  S   S38       1.0  0.41535  0.55194  0.16891  1.0000
  S   S39       1.0  0.34667  0.58640  0.18941  1.0000
  C   C219      1.0  0.35249  0.44230  0.15588  1.0000
  S   S40       1.0  0.04800  0.64886  0.41816  1.0000
  H   H182      1.0  0.19934  0.56574  0.23869  1.0000
  S   S41       1.0  0.16423  0.64530  0.44835  1.0000
  C   C220      1.0  0.45656  0.61725  0.12543  1.0000
  C   C221      1.0  0.43197  0.34367  0.17341  1.0000
  C   C222      1.0  0.18229  0.59451  0.26063  1.0000
  C   C223      1.0  0.07050  0.59156  0.45277  1.0000
  H   H183      1.0  0.29090  0.61993  0.24990  1.0000
  C   C224      1.0  0.37324  0.55346  0.46452  1.0000
  H   H184      1.0  0.12391  0.62751  0.23633  1.0000
  H   H185      1.0  0.42502  0.45872  0.13961  1.0000
  C   C225      1.0  0.09785  0.62740  0.24730  1.0000
  C   C226      1.0  0.20198  0.60097  0.17411  1.0000
  C   C227      1.0  0.22377  0.61711  0.18958  1.0000
  C   C228      1.0  0.20236  0.63642  0.19812  1.0000
  C   C229      1.0  0.15947  0.64056  0.19049  1.0000
  C   C230      1.0  0.13788  0.62478  0.17450  1.0000
  C   C231      1.0  0.15891  0.60496  0.16667  1.0000
  H   H186      1.0  0.25687  0.61443  0.19541  1.0000
  C   C232      1.0  0.10508  0.62900  0.27271  1.0000
  H   H187      1.0  0.10487  0.62761  0.16850  1.0000
  H   H188      1.0  0.14169  0.59264  0.15468  1.0000
  C   C233      1.0  0.16659  0.62523  0.47229  1.0000
  C   C234      1.0  0.19975  0.60909  0.47503  1.0000
  H   H189      1.0  0.22330  0.60910  0.46243  1.0000
  C   C235      1.0  0.38122  0.45478  0.44182  1.0000
  C   C236      1.0  0.37304  0.45669  0.46613  1.0000
  C   C237      1.0  0.34468  0.47355  0.47315  1.0000
  C   C238      1.0  0.32383  0.48835  0.45578  1.0000
  C   C239      1.0  0.33228  0.48642  0.43155  1.0000
  C   C240      1.0  0.36122  0.46994  0.42464  1.0000
  H   H190      1.0  0.38864  0.44510  0.47955  1.0000
  H   H191      1.0  0.33842  0.47477  0.49186  1.0000
  H   H192      1.0  0.31571  0.49729  0.41791  1.0000
  H   H193      1.0  0.36718  0.46851  0.40589  1.0000
  C   C241      1.0  0.39802  0.48384  0.29009  1.0000
  C   C242      1.0  0.42772  0.50137  0.29544  1.0000
  C   C243      1.0  0.42955  0.52024  0.27946  1.0000
  C   C244      1.0  0.40229  0.52162  0.25775  1.0000
  C   C245      1.0  0.37283  0.50399  0.25230  1.0000
  C   C246      1.0  0.37061  0.48528  0.26845  1.0000
  H   H194      1.0  0.44908  0.50046  0.31197  1.0000
  C   C247      1.0  0.35139  0.37911  0.45630  1.0000
  H   H195      1.0  0.35153  0.50487  0.23574  1.0000
  H   H196      1.0  0.34744  0.47186  0.26415  1.0000
  C   C248      1.0  0.32511  0.45562  0.06549  1.0000
  C   C249      1.0  0.36868  0.45494  0.07198  1.0000
  C   C250      1.0  0.38759  0.47039  0.08965  1.0000
  C   C251      1.0  0.36329  0.48662  0.10119  1.0000
  C   C252      1.0  0.31987  0.48771  0.09423  1.0000
  C   C253      1.0  0.30096  0.47233  0.07644  1.0000
  H   H197      1.0  0.38770  0.44232  0.06361  1.0000
  H   H198      1.0  0.42124  0.46960  0.09449  1.0000
  H   H199      1.0  0.30074  0.50013  0.10280  1.0000
  H   H200      1.0  0.26726  0.47310  0.07144  1.0000
  C   C254      1.0  0.41894  0.58669  0.46377  1.0000
  P   P7        1.0  0.42400  0.41441  0.16599  1.0000
  H   H201      1.0  0.45236  0.53382  0.28389  1.0000
  C   C255      1.0  0.07168  0.56049  0.48215  1.0000
  C   C256      1.0  0.38356  0.41770  0.20815  1.0000
  C   C257      1.0  0.44965  0.57531  0.47942  1.0000
  C   C258      1.0  0.48660  0.55452  0.01927  1.0000
  H   H202      1.0  0.34716  0.40919  0.47865  1.0000
  H   H203      1.0  0.46953  0.38779  0.44370  1.0000
  H   H204      1.0  0.50377  0.51703  0.46332  1.0000
  Fe  Fe20      1.0  0.49130  0.40802  0.36264  1.0000
  C   C259      1.0  0.44566  0.53622  0.41160  1.0000
  H   H205      1.0  0.01781  0.50335  0.48667  1.0000
  C   C260      1.0  0.43451  0.36472  0.26038  1.0000
  C   C261      1.0  0.47733  0.63799  0.12087  1.0000
  C   C262      1.0  0.24737  0.42768  0.48963  1.0000
  C   C263      1.0  0.25922  0.43585  0.46751  1.0000
  C   C264      1.0  0.16129  0.62276  0.31833  1.0000
  H   H206      1.0  0.37860  0.38553  0.44828  1.0000
  H   H207      1.0  0.28510  0.42823  0.45927  1.0000
  C   C265      1.0  0.19408  0.38335  0.50577  1.0000
  C   C266      1.0  0.17592  0.64078  0.11001  1.0000
  H   H208      1.0  0.29850  0.46462  0.14751  1.0000
  C   C267      1.0  0.34833  0.65115  0.21666  1.0000
  C   C268      1.0  0.31471  0.44905  0.14255  1.0000
  H   H209      1.0  0.49069  0.54459  0.14324  1.0000
  H   H210      1.0  0.36493  0.45279  0.17120  1.0000
  H   H211      1.0  0.21833  0.66112  0.31797  1.0000
  C   C269      1.0  0.07044  0.62945  0.28630  1.0000
  C   C270      1.0  0.44189  0.48459  0.21221  1.0000
  H   H212      1.0  0.19108  0.57606  0.35397  1.0000
  C   C271      1.0  0.19233  0.45717  0.48767  1.0000
  C   C272      1.0  0.17735  0.60067  0.32490  1.0000
  H   H213      1.0  0.26878  0.58189  0.23211  1.0000
  H   H214      1.0  0.42543  0.39298  0.28497  1.0000
  C   C273      1.0  0.47499  0.49188  0.22903  1.0000
  C   C274      1.0  0.23787  0.45454  0.45572  1.0000
  C   C275      1.0  0.29862  0.34962  0.45938  1.0000
  H   H215      1.0  0.41551  0.43409  0.26633  1.0000
  C   C276      1.0  0.37172  0.48482  0.01484  1.0000
  C   C277      1.0  0.48605  0.49006  0.50727  1.0000
  H   H216      1.0  0.18903  0.48022  0.45701  1.0000
  C   C278      1.0  0.19418  0.61629  0.27047  1.0000
  H   H217      1.0  0.08665  0.60207  0.44053  1.0000
  C   C279      1.0  0.46593  0.43140  0.15555  1.0000
  P   P8        1.0  0.48267  0.53886  0.50815  1.0000
  C   C280      1.0  0.16444  0.60760  0.36664  1.0000
  C   C281      1.0  0.02981  0.56559  0.48595  1.0000
  C   C282      1.0  0.43480  0.38404  0.16114  1.0000
  H   H218      1.0  0.35520  0.41233  0.19704  1.0000
  H   H219      1.0  0.26976  0.44172  0.11159  1.0000
  C   C283      1.0  0.46690  0.59703  0.11339  1.0000
  C   C284      1.0  0.23376  0.62530  0.26672  1.0000
  C   C285      1.0  0.36195  0.64660  0.19403  1.0000
  H   H220      1.0  0.21906  0.64820  0.21088  1.0000
  H   H221      1.0  0.13418  0.65419  0.33174  1.0000
  H   H222      1.0  0.12466  0.57006  0.46339  1.0000
  C   C286      1.0  0.33409  0.35763  0.44927  1.0000
  H   H223      1.0  0.48545  0.45277  0.50522  1.0000
  H   H224      1.0  0.47105  0.50936  0.16147  1.0000
  C   C287      1.0  0.20461  0.46528  0.46584  1.0000
  H   H225      1.0  0.46962  0.65372  0.13013  1.0000
  C   C288      1.0  0.20246  0.59281  0.49392  1.0000
  C   C289      1.0  0.42810  0.36012  0.30314  1.0000
  H   H226      1.0  0.24795  0.46117  0.43904  1.0000
  C   C290      1.0  0.47678  0.53083  0.39659  1.0000
  C   C291      1.0  0.40398  0.54191  0.48000  1.0000
  Fe  Fe21      1.0  0.10369  0.66547  0.43928  1.0000
  H   H227      1.0  0.35665  0.58470  0.44447  1.0000
  C   C292      1.0  0.09193  0.57353  0.46568  1.0000
  C   C293      1.0  0.02849  0.59628  0.45595  1.0000
  H   H228      1.0  0.41615  0.47473  0.21817  1.0000
  C   C294      1.0  0.42862  0.37439  0.28291  1.0000
  H   H229      1.0  0.11031  0.63737  0.48639  1.0000
  H   H230      1.0  0.47094  0.35452  0.38741  1.0000
  C   C295      1.0  0.24845  0.59126  0.24326  1.0000
  H   H231      1.0  0.01178  0.61026  0.44600  1.0000
  C   C296      1.0  0.05678  0.62669  0.23568  1.0000
  H   H232      1.0  0.24356  0.64212  0.27381  1.0000
  C   C297      1.0  0.49628  0.57710  0.02728  1.0000
  H   H233      1.0  0.37460  0.39504  0.12223  1.0000
  H   H234      1.0  0.36614  0.64449  0.23294  1.0000
  C   C298      1.0  0.47339  0.50435  0.18030  1.0000
  S   S42       1.0  0.39016  0.39073  0.02686  1.0000
  H   H235      1.0  0.22798  0.58035  0.49579  1.0000
  C   C299      1.0  0.27488  0.56764  0.41705  1.0000
  C   C300      1.0  0.26336  0.58938  0.40742  1.0000
  C   C301      1.0  0.27454  0.59560  0.38465  1.0000
  C   C302      1.0  0.29697  0.58005  0.37140  1.0000
  C   C303      1.0  0.30859  0.55808  0.38090  1.0000
  C   C304      1.0  0.29755  0.55215  0.40395  1.0000
  P   P9        1.0  0.33763  0.53770  0.36390  1.0000
  C   C305      1.0  0.31536  0.50898  0.36434  1.0000
  C   C306      1.0  0.33594  0.54665  0.33253  1.0000
  C   C307      1.0  0.36178  0.56480  0.32619  1.0000
  C   C308      1.0  0.36195  0.57118  0.30188  1.0000
  C   C309      1.0  0.33622  0.55961  0.28376  1.0000
  C   C310      1.0  0.31031  0.54162  0.28990  1.0000
  C   C311      1.0  0.31002  0.53517  0.31417  1.0000
  C   C312      1.0  0.27407  0.50556  0.37014  1.0000
  C   C313      1.0  0.25747  0.48317  0.37046  1.0000
  C   C314      1.0  0.28150  0.46414  0.36438  1.0000
  C   C315      1.0  0.32195  0.46751  0.35772  1.0000
  C   C316      1.0  0.33882  0.48981  0.35767  1.0000
  C   C317      1.0  0.39228  0.53576  0.37670  1.0000
  C   C318      1.0  0.42383  0.53023  0.36177  1.0000
  C   C319      1.0  0.46587  0.52791  0.37169  1.0000
  C   C320      1.0  0.30172  0.66781  0.17423  1.0000
  H   H236      1.0  0.48953  0.55230  0.22360  1.0000
  C   C321      1.0  0.40360  0.53858  0.40174  1.0000
  H   H237      1.0  0.26615  0.56268  0.43471  1.0000
  H   H238      1.0  0.05167  0.62607  0.21604  1.0000
  H   H239      1.0  0.26546  0.61247  0.37718  1.0000
  H   H240      1.0  0.30481  0.58526  0.35375  1.0000
  H   H241      1.0  0.30606  0.53546  0.41184  1.0000
  H   H242      1.0  0.38235  0.57372  0.34000  1.0000
  H   H243      1.0  0.38272  0.58475  0.29695  1.0000
  H   H244      1.0  0.33715  0.56418  0.26487  1.0000
  H   H245      1.0  0.29121  0.53231  0.27572  1.0000
  H   H246      1.0  0.29014  0.52093  0.31838  1.0000
  H   H247      1.0  0.25457  0.52004  0.37446  1.0000
  H   H248      1.0  0.22596  0.48057  0.37543  1.0000
  H   H249      1.0  0.26875  0.44679  0.36464  1.0000
  H   H250      1.0  0.34044  0.45284  0.35256  1.0000
  H   H251      1.0  0.37006  0.49197  0.35217  1.0000
  H   H252      1.0  0.41598  0.52712  0.34254  1.0000
  H   H253      1.0  0.18890  0.38765  0.48667  1.0000
  C   C322      1.0  0.42500  0.36721  0.17789  1.0000
  C   C323      1.0  0.43988  0.34074  0.25809  1.0000
  H   H254      1.0  0.38017  0.54218  0.41384  1.0000
  C   C324      1.0  0.17252  0.59294  0.51051  1.0000
  C   C325      1.0  0.13626  0.62518  0.48866  1.0000
  H   H255      1.0  0.24567  0.60138  0.41758  1.0000
  C   C326      1.0  0.23443  0.61447  0.11976  1.0000
  C   C327      1.0  0.45595  0.43110  0.23777  1.0000
  H   H256      1.0  0.18838  0.58915  0.31151  1.0000
  H   H257      1.0  0.16667  0.46551  0.49563  1.0000
  H   H258      1.0  0.16515  0.60175  0.38525  1.0000
  H   H259      1.0  0.15182  0.58728  0.26312  1.0000
  H   H260      1.0  0.24772  0.59716  0.11940  1.0000
  S   S43       1.0  0.28583  0.50882  0.46325  1.0000
  H   H261      1.0  0.13663  0.64072  0.37383  1.0000
  C   C328      1.0  0.17089  0.66312  0.28696  1.0000
  C   C329      1.0  0.19325  0.61855  0.10936  1.0000
  C   C330      1.0  0.32044  0.41682  0.11509  1.0000
  C   C331      1.0  0.38134  0.42284  0.23266  1.0000
  C   C332      1.0  0.49730  0.59766  0.09679  1.0000
  C   C333      1.0  0.41743  0.42972  0.24741  1.0000
  C   C334      1.0  0.02935  0.62893  0.27459  1.0000
  H   H262      1.0  0.34811  0.34723  0.43591  1.0000
  C   C335      1.0  0.33332  0.39256  0.47346  1.0000
  C   C336      1.0  0.24052  0.65471  0.13273  1.0000
  P   P10       1.0  0.27347  0.40300  0.50496  1.0000
  S   S44       1.0  0.45147  0.46997  0.37867  1.0000
  H   H263      1.0  0.28948  0.62856  0.13972  1.0000
  P   P11       1.0  0.15825  0.63260  0.28719  1.0000
  C   C337      1.0  0.45823  0.42626  0.21319  1.0000
  C   C338      1.0  0.20923  0.58216  0.24695  1.0000
  H   H264      1.0  0.47912  0.58401  0.48512  1.0000
  C   C339      1.0  0.25793  0.63238  0.13153  1.0000
  H   H265      1.0  0.39024  0.63641  0.19268  1.0000
  C   C340      1.0  0.26079  0.61277  0.25321  1.0000
  C   C341      1.0  0.37437  0.42254  0.14908  1.0000
  H   H266      1.0  0.34352  0.54504  0.45889  1.0000
  H   H267      1.0  0.50207  0.54158  0.10028  1.0000
  H   H268      1.0  0.48359  0.58400  0.04319  1.0000
  H   H269      1.0  0.47391  0.62307  0.20121  1.0000
  H   H270      1.0  0.25275  0.35662  0.48392  1.0000
  H   H271      1.0  0.08901  0.54665  0.49194  1.0000
  C   C342      1.0  0.28019  0.36317  0.47640  1.0000
  H   H272      1.0  0.42473  0.60402  0.45747  1.0000
  C   C343      1.0  0.29856  0.43622  0.12227  1.0000
  H   H273      1.0  0.17472  0.60438  0.10104  1.0000
  C   C344      1.0  0.35815  0.40995  0.12843  1.0000
  H   H274      1.0  0.48204  0.48181  0.12600  1.0000
  H   H275      1.0  0.45778  0.38951  0.12624  1.0000
  C   C345      1.0  0.44234  0.55289  0.48778  1.0000
  C   C346      1.0  0.42188  0.41984  0.19806  1.0000
  H   H276      1.0  0.41492  0.48575  0.17491  1.0000
  S   S45       1.0  0.50488  0.44002  0.34153  1.0000
  C   C347      1.0  0.13951  0.60923  0.50792  1.0000
  H   H277      1.0  0.34442  0.47714  0.02169  1.0000
  C   C348      1.0  0.21379  0.43863  0.49963  1.0000
  C   C349      1.0  0.17893  0.59316  0.34898  1.0000
  H   H278      1.0  0.34986  0.65091  0.15557  1.0000
  H   H279      1.0  0.46687  0.54399  0.02948  1.0000
  H   H280      1.0  0.39731  0.52453  0.48574  1.0000
  H   H281      1.0  0.48081  0.41987  0.47324  1.0000
  C   C350      1.0  0.45100  0.37691  0.13973  1.0000
  C   C351      1.0  0.33878  0.65483  0.17292  1.0000
  C   C352      1.0  0.44123  0.49073  0.18787  1.0000
  H   H282      1.0  0.14394  0.64394  0.10196  1.0000
  H   H283      1.0  0.45398  0.53822  0.43095  1.0000
  H   H284      1.0  0.35153  0.42171  0.24026  1.0000
  H   H285      1.0  0.42520  0.36769  0.32083  1.0000
  H   H286      1.0  0.07470  0.63103  0.30585  1.0000
  H   H287      1.0  0.30099  0.66773  0.23570  1.0000
  H   H288      1.0  0.41172  0.37214  0.19428  1.0000
  C   C353      1.0  0.29734  0.38483  0.48352  1.0000
  C   C354      1.0  0.31173  0.66421  0.21819  1.0000
  H   H289      1.0  0.13042  0.37137  0.50689  1.0000
  C   C355      1.0  0.14855  0.62959  0.36025  1.0000
  C   C356      1.0  0.45762  0.35338  0.13525  1.0000
  H   H290      1.0  0.45862  0.59075  0.22849  1.0000
  H   H291      1.0  0.46960  0.34795  0.11855  1.0000
  H   H292      1.0  0.01441  0.40227  0.47883  1.0000
  C   C357      1.0  0.48578  0.34044  0.37856  1.0000
  C   C358      1.0  0.00801  0.58314  0.47220  1.0000
  H   H293      1.0  0.50515  0.58196  0.08759  1.0000
  C   C359      1.0  0.49714  0.56610  0.21170  1.0000
  H   H294      1.0  0.43591  0.37591  0.24485  1.0000
  C   C360      1.0  0.48951  0.46560  0.13544  1.0000
  Fe  Fe22      1.0  0.32869  0.41005  0.01942  1.0000
  S   S46       1.0  0.20344  0.51177  0.51161  1.0000
  C   C361      1.0  0.50136  0.39302  0.45023  1.0000
  H   H295      1.0  0.48826  0.42794  0.20611  1.0000
  H   H296      1.0  0.34616  0.51940  0.01386  1.0000
  S   S47       1.0  0.13480  0.66545  0.20204  1.0000
  H   H297      1.0  0.47477  0.48762  0.24805  1.0000
  C   C362      1.0  0.48842  0.60623  0.19944  1.0000
  H   H298      1.0  0.48389  0.43640  0.24932  1.0000
  H   H299      1.0  0.48994  0.52312  0.36019  1.0000
  C   C363      1.0  0.19966  0.65889  0.12126  1.0000
  C   C364      1.0  0.02250  0.62766  0.24930  1.0000
  H   H300      1.0  0.40458  0.45224  0.01316  1.0000
  C   C365      1.0  0.47078  0.46804  0.51204  1.0000
  Fe  Fe23      1.0  0.30955  0.38938  0.96791  1.0000
  S   S48       1.0  0.37108  0.36949  0.97159  1.0000
  S   S49       1.0  0.26841  0.38861  0.93101  1.0000
  Fe  Fe24      1.0  0.40115  0.40159  0.98884  1.0000
  H   H301      1.0  0.35831  0.38543  0.52295  1.0000
  C   C366      1.0  0.01198  0.47508  0.64041  1.0000
  S   S50       1.0  0.34120  0.42226  0.98245  1.0000
  H   H302      1.0  0.08953  0.43134  0.75808  1.0000
  S   S51       1.0  0.02824  0.40943  0.55348  1.0000
  Fe  Fe25      1.0  0.02938  0.35898  0.86460  1.0000
  S   S52       1.0  0.07443  0.36229  0.89996  1.0000
  Fe  Fe26      1.0  0.22916  0.49172  0.54483  1.0000
  H   H303      1.0  0.46951  0.56576  0.63497  1.0000
  S   S53       1.0  0.20702  0.45939  0.56345  1.0000
  Fe  Fe27      1.0  0.30660  0.52335  0.55429  1.0000
  H   H304      1.0  0.43244  0.57459  0.53041  1.0000
  S   S54       1.0  0.36831  0.52346  0.57872  1.0000
  Fe  Fe28      1.0  0.22225  0.54351  0.53366  1.0000
  S   S55       1.0  0.17608  0.57322  0.53483  1.0000
  C   C367      1.0  0.30542  0.43198  0.54274  1.0000
  C   C368      1.0  0.47281  0.49760  0.91553  1.0000
  S   S56       1.0  0.24287  0.52352  0.56777  1.0000
  S   S57       1.0  0.29464  0.49025  0.53339  1.0000
  S   S58       1.0  0.44293  0.61421  0.63234  1.0000
  Fe  Fe29      1.0  0.35564  0.35999  0.00906  1.0000
  C   C369      1.0  0.16565  0.45870  0.65496  1.0000
  C   C370      1.0  0.43635  0.46571  0.52537  1.0000
  H   H305      1.0  0.14021  0.36292  0.55088  1.0000
  H   H306      1.0  0.32891  0.45428  0.57235  1.0000
  H   H307      1.0  0.19900  0.37543  0.95909  1.0000
  H   H308      1.0  0.17627  0.41998  0.83278  1.0000
  C   C371      1.0  0.38738  0.54874  0.59418  1.0000
  C   C372      1.0  0.36699  0.57015  0.59046  1.0000
  C   C373      1.0  0.38381  0.59002  0.60270  1.0000
  C   C374      1.0  0.42101  0.58860  0.61874  1.0000
  C   C375      1.0  0.44093  0.56709  0.62273  1.0000
  C   C376      1.0  0.42433  0.54729  0.61037  1.0000
  H   H309      1.0  0.33848  0.57143  0.57804  1.0000
  H   H310      1.0  0.36818  0.60658  0.59955  1.0000
  H   H311      1.0  0.43172  0.35423  0.89037  1.0000
  H   H312      1.0  0.44027  0.53079  0.61329  1.0000
  C   C377      1.0  0.07854  0.42267  0.55608  1.0000
  C   C378      1.0  0.11228  0.41433  0.57195  1.0000
  C   C379      1.0  0.15140  0.42576  0.57385  1.0000
  C   C380      1.0  0.15733  0.44550  0.55982  1.0000
  C   C381      1.0  0.12390  0.45353  0.54354  1.0000
  C   C382      1.0  0.08483  0.44200  0.54153  1.0000
  H   H313      1.0  0.10805  0.39926  0.58297  1.0000
  H   H314      1.0  0.17720  0.41934  0.58636  1.0000
  C   C383      1.0  0.46075  0.57109  0.54248  1.0000
  C   C384      1.0  0.37276  0.50863  0.01038  1.0000
  C   C385      1.0  0.21428  0.38137  0.92283  1.0000
  C   C386      1.0  0.18720  0.37557  0.94004  1.0000
  C   C387      1.0  0.14457  0.37013  0.93263  1.0000
  C   C388      1.0  0.12831  0.37021  0.90796  1.0000
  C   C389      1.0  0.15551  0.37582  0.89069  1.0000
  C   C390      1.0  0.19813  0.38136  0.89812  1.0000
  H   H315      1.0  0.14373  0.37589  0.87165  1.0000
  H   H316      1.0  0.21876  0.38570  0.88463  1.0000
  C   C391      1.0  0.16637  0.36942  0.54197  1.0000
  C   C392      1.0  0.41426  0.37035  0.88777  1.0000
  C   C393      1.0  0.45757  0.53867  0.91668  1.0000
  H   H317      1.0  0.46951  0.66388  0.61484  1.0000
  H   H318      1.0  0.44032  0.41002  0.93347  1.0000
  H   H319      1.0  0.13278  0.54148  0.56425  1.0000
  C   C394      1.0  0.15141  0.36819  0.62667  1.0000
  H   H320      1.0  0.43147  0.45008  0.87889  1.0000
  H   H321      1.0  0.25727  0.47978  0.68428  1.0000
  C   C395      1.0  0.10218  0.39501  0.64216  1.0000
  C   C396      1.0  0.36721  0.39897  0.90240  1.0000
  H   H322      1.0  0.07058  0.39863  0.64666  1.0000
  H   H323      1.0  0.34814  0.40460  0.91634  1.0000
  C   C397      1.0  0.34968  0.47349  0.84219  1.0000
  C   C398      1.0  0.36145  0.47746  0.94073  1.0000
  H   H324      1.0  0.44863  0.55469  0.90730  1.0000
  C   C399      1.0  0.28992  0.43372  0.86218  1.0000
  C   C400      1.0  0.39494  0.40460  0.86390  1.0000
  H   H325      1.0  0.32061  0.48122  0.96900  1.0000
  C   C401      1.0  0.11642  0.45617  0.70624  1.0000
  H   H326      1.0  0.14560  0.46463  0.61673  1.0000
  C   C402      1.0  0.10455  0.41497  0.70067  1.0000
  C   C403      1.0  0.20347  0.48193  0.62794  1.0000
  C   C404      1.0  0.44303  0.50461  0.99775  1.0000
  C   C405      1.0  0.16895  0.46820  0.63192  1.0000
  H   H327      1.0  0.03334  0.34798  0.75746  1.0000
  H   H328      1.0  0.44419  0.59583  0.56894  1.0000
  H   H329      1.0  0.08757  0.39655  0.73189  1.0000
  H   H330      1.0  0.22869  0.61152  0.56026  1.0000
  C   C406      1.0  0.41652  0.48961  0.83363  1.0000
  C   C407      1.0  0.38904  0.37791  0.90530  1.0000
  C   C408      1.0  0.48765  0.42670  0.91441  1.0000
  H   H331      1.0  0.42417  0.44870  0.52877  1.0000
  H   H332      1.0  0.12350  0.47304  0.69922  1.0000
  C   C409      1.0  0.19806  0.46272  0.67375  1.0000
  H   H333      1.0  0.26629  0.45460  0.94951  1.0000
  C   C410      1.0  0.28080  0.41218  0.85095  1.0000
  C   C411      1.0  0.13409  0.41164  0.64645  1.0000
  H   H334      1.0  0.43663  0.37780  0.85340  1.0000
  H   H335      1.0  0.04947  0.48312  0.56051  1.0000
  H   H336      1.0  0.27597  0.43579  0.91076  1.0000
  H   H337      1.0  0.11614  0.60932  0.52064  1.0000
  H   H338      1.0  0.39723  0.43349  0.58017  1.0000
  S   S59       1.0  0.28739  0.54597  0.52201  1.0000
  C   C412      1.0  0.37042  0.41262  0.88180  1.0000
  C   C413      1.0  0.04723  0.66907  0.51894  1.0000
  C   C414      1.0  0.10764  0.45431  0.73035  1.0000
  C   C415      1.0  0.17474  0.40636  0.64043  1.0000
  C   C416      1.0  0.23238  0.47666  0.66974  1.0000
  H   H339      1.0  0.03682  0.65184  0.51322  1.0000
  C   C417      1.0  0.41466  0.46062  0.86492  1.0000
  H   H340      1.0  0.43428  0.50121  0.82329  1.0000
  S   S60       1.0  0.46512  0.41837  0.98506  1.0000
  C   C418      1.0  0.21709  0.62907  0.55694  1.0000
  C   C419      1.0  0.43753  0.47559  0.85161  1.0000
  H   H341      1.0  0.30469  0.39884  0.85085  1.0000
  H   H342      1.0  0.19194  0.45819  0.85217  1.0000
  H   H343      1.0  0.11219  0.65926  0.52457  1.0000
  C   C420      1.0  0.10370  0.53323  0.55686  1.0000
  C   C421      1.0  0.20806  0.42395  0.84063  1.0000
  H   H344      1.0  0.26380  0.46700  0.87106  1.0000
  C   C422      1.0  0.09728  0.43283  0.73958  1.0000
  C   C423      1.0  0.18321  0.38477  0.63043  1.0000
  H   H345      1.0  0.24818  0.63319  0.52476  1.0000
  H   H346      1.0  0.47165  0.47622  0.85529  1.0000
  H   H347      1.0  0.46907  0.63236  0.58493  1.0000
  H   H348      1.0  0.02592  0.45241  0.58516  1.0000
  C   C424      1.0  0.18935  0.63893  0.57190  1.0000
  H   H349      1.0  0.38678  0.36756  0.92136  1.0000
  C   C425      1.0  0.23505  0.48629  0.64686  1.0000
  H   H350      1.0  0.31580  0.47297  0.83815  1.0000
  C   C426      1.0  0.41707  0.38365  0.86701  1.0000
  H   H351      1.0  0.35634  0.49950  0.81502  1.0000
  C   C427      1.0  0.11495  0.43650  0.69114  1.0000
  C   C428      1.0  0.07517  0.45109  0.64278  1.0000
  H   H352      1.0  0.12803  0.46871  0.53267  1.0000
  H   H353      1.0  0.19314  0.34131  0.00976  1.0000
  C   C429      1.0  0.22828  0.64135  0.53699  1.0000
  H   H354      1.0  0.10223  0.39944  0.68968  1.0000
  C   C430      1.0  0.32476  0.47341  0.95164  1.0000
  C   C431      1.0  0.09609  0.41318  0.72480  1.0000
  C   C432      1.0  0.06695  0.44662  0.61788  1.0000
  C   C433      1.0  0.03195  0.45638  0.60431  1.0000
  C   C434      1.0  0.47868  0.66162  0.89478  1.0000
  S   S61       1.0  0.04183  0.34211  0.82913  1.0000
  C   C435      1.0  0.04717  0.46531  0.65405  1.0000
  C   C436      1.0  0.29400  0.45852  0.94059  1.0000
  C   C437      1.0  0.43236  0.50742  0.52930  1.0000
  H   H355      1.0  0.38586  0.48844  0.94970  1.0000
  C   C438      1.0  0.47745  0.51777  0.95423  1.0000
  C   C439      1.0  0.05681  0.50036  0.55473  1.0000
  C   C440      1.0  0.37261  0.48860  0.82897  1.0000
  H   H356      1.0  0.20608  0.48886  0.60998  1.0000
  H   H357      1.0  0.39569  0.47031  0.91051  1.0000
  H   H358      1.0  0.20003  0.41880  0.64332  1.0000
  H   H359      1.0  0.08779  0.43563  0.60895  1.0000
  H   H360      1.0  0.39105  0.48373  0.54482  1.0000
  C   C441      1.0  0.46883  0.42013  0.93519  1.0000
  C   C442      1.0  0.46185  0.51831  0.90342  1.0000
  H   H361      1.0  0.05222  0.46897  0.67325  1.0000
  C   C443      1.0  0.09449  0.51083  0.56411  1.0000
  H   H362      1.0  0.39713  0.41454  0.84756  1.0000
  H   H363      1.0  0.23295  0.39058  0.83200  1.0000
  C   C444      1.0  0.46513  0.53842  0.94202  1.0000
  C   C445      1.0  0.25766  0.45038  0.86225  1.0000
  C   C446      1.0  0.33554  0.43938  0.56135  1.0000
  C   C447      1.0  0.46734  0.58326  0.56437  1.0000
  C   C448      1.0  0.36694  0.46706  0.91846  1.0000
  P   P12       1.0  0.48914  0.51719  0.98683  1.0000
  C   C449      1.0  0.50025  0.64897  0.87844  1.0000
  C   C450      1.0  0.50310  0.57883  0.58062  1.0000
  C   C451      1.0  0.02887  0.51201  0.53766  1.0000
  H   H364      1.0  0.17953  0.62895  0.58679  1.0000
  H   H365      1.0  0.08336  0.56241  0.53458  1.0000
  H   H366      1.0  0.47371  0.42115  0.89673  1.0000
  H   H367      1.0  0.08662  0.36026  0.63039  1.0000
  C   C452      1.0  0.49639  0.64345  0.58801  1.0000
  H   H368      1.0  0.41690  0.52251  0.53608  1.0000
  C   C453      1.0  0.24003  0.40738  0.84019  1.0000
  H   H369      1.0  0.21454  0.38087  0.62575  1.0000
  P   P13       1.0  0.12252  0.43948  0.65937  1.0000
  C   C454      1.0  0.16085  0.37421  0.51716  1.0000
  C   C455      1.0  0.21691  0.44547  0.85157  1.0000
  C   C456      1.0  0.11105  0.37327  0.63271  1.0000
  C   C457      1.0  0.33571  0.45248  0.90695  1.0000
  C   C458      1.0  0.01500  0.36728  0.69880  1.0000
  S   S62       1.0  0.29262  0.37849  0.00442  1.0000
  H   H370      1.0  0.12393  0.36592  0.94617  1.0000
  C   C459      1.0  0.38200  0.40825  0.55177  1.0000
  H   H371      1.0  0.45663  0.51854  0.88379  1.0000
  C   C460      1.0  0.44086  0.48054  0.00125  1.0000
  P   P14       1.0  0.34170  0.43964  0.87770  1.0000
  H   H372      1.0  0.46135  0.55432  0.95197  1.0000
  H   H373      1.0  0.26185  0.49687  0.64362  1.0000
  C   C461      1.0  0.37059  0.45922  0.86019  1.0000
  H   H374      1.0  0.11657  0.50160  0.57696  1.0000
  H   H375      1.0  0.05907  0.44837  0.52894  1.0000
  C   C462      1.0  0.29966  0.44786  0.91853  1.0000
  H   H376      1.0  0.19734  0.45480  0.69136  1.0000
  S   S63       1.0  0.00945  0.35376  0.59861  1.0000
  H   H377      1.0  0.46623  0.46914  0.99716  1.0000
  H   H378      1.0  0.30907  0.35295  0.90523  1.0000
  H   H379      1.0  0.10820  0.46958  0.74179  1.0000
  C   C463      1.0  0.23316  0.38786  0.51918  1.0000
  C   C464      1.0  0.07570  0.54499  0.53987  1.0000
  S   S64       1.0  0.02457  0.35857  0.66907  1.0000
  C   C465      1.0  0.02266  0.35924  0.74249  1.0000
  C   C466      1.0  0.37394  0.42762  0.56578  1.0000
  C   C467      1.0  0.03866  0.53417  0.52957  1.0000
  C   C468      1.0  0.02779  0.35258  0.71849  1.0000
  C   C469      1.0  0.48736  0.42632  0.95829  1.0000
  C   C470      1.0  0.21216  0.66363  0.53209  1.0000
  H   H380      1.0  0.40799  0.53688  0.99780  1.0000
  H   H381      1.0  0.48609  0.63362  0.86972  1.0000
  H   H382      1.0  0.20930  0.37009  0.57469  1.0000
  H   H383      1.0  0.15799  0.35134  0.61925  1.0000
  C   C471      1.0  0.41748  0.48540  0.53423  1.0000
  C   C472      1.0  0.40561  0.47078  0.01007  1.0000
  C   C473      1.0  0.40804  0.51848  0.00155  1.0000
  H   H384      1.0  0.44775  0.65610  0.89871  1.0000
  C   C474      1.0  0.46624  0.50998  0.51537  1.0000
  C   C475      1.0  0.47981  0.49725  0.94085  1.0000
  H   H385      1.0  0.47626  0.48179  0.90534  1.0000
  C   C476      1.0  0.20531  0.37349  0.55539  1.0000
  C   C477      1.0  0.17308  0.66121  0.56705  1.0000
  H   H386      1.0  0.48750  0.48104  0.95001  1.0000
  H   H387      1.0  0.20410  0.43297  0.51677  1.0000
  H   H388      1.0  0.27563  0.44109  0.53984  1.0000
  H   H389      1.0  0.41156  0.39893  0.55540  1.0000
  H   H390      1.0  0.26808  0.38624  0.55502  1.0000
  C   C478      1.0  0.35179  0.40077  0.53320  1.0000
  C   C479      1.0  0.49004  0.55432  0.53667  1.0000
  C   C480      1.0  0.49643  0.66154  0.60477  1.0000
  S   S65       1.0  0.50316  0.62646  0.69692  1.0000
  C   C481      1.0  0.23863  0.38266  0.54408  1.0000
  Fe  Fe30      1.0  0.50248  0.61270  0.65883  1.0000
  C   C482      1.0  0.31348  0.41286  0.52829  1.0000
  H   H391      1.0  0.14991  0.66807  0.57806  1.0000
  H   H392      1.0  0.00723  0.59912  0.51900  1.0000
  C   C483      1.0  0.50255  0.54583  0.99839  1.0000
  H   H393      1.0  0.09206  0.90596  0.07180  1.0000
  H   H394      1.0  0.07456  0.00323  0.39101  1.0000
  S   S66       1.0  0.17711  0.97533  0.03531  1.0000
  H   H395      1.0  0.24667  0.91181  0.31725  1.0000
  S   S67       1.0  0.19134  0.91336  0.47241  1.0000
  Fe  Fe31      1.0  0.06367  0.71458  0.43593  1.0000
  S   S68       1.0  0.10620  0.69489  0.41345  1.0000
  S   S69       1.0  0.07907  0.75341  0.43990  1.0000
  C   C484      1.0  0.05852  0.89547  0.33261  1.0000
  C   C485      1.0  0.04821  0.77897  0.29678  1.0000
  C   C486      1.0  0.04776  0.99072  0.33134  1.0000
  C   C487      1.0  0.06333  0.95390  0.48414  1.0000
  S   S70       1.0  0.05077  0.70354  0.15860  1.0000
  H   H396      1.0  0.08516  0.73440  0.30855  1.0000
  S   S71       1.0  0.06667  0.71621  0.21602  1.0000
  H   H397      1.0  0.16442  0.70807  0.36971  1.0000
  Fe  Fe32      1.0  0.04169  0.73490  0.18190  1.0000
  S   S72       1.0  0.07075  0.76965  0.17244  1.0000
  H   H398      1.0  0.18581  0.67604  0.12101  1.0000
  S   S73       1.0  0.08844  0.97110  0.18107  1.0000
  H   H399      1.0  0.27258  0.67369  0.09372  1.0000
  S   S74       1.0  0.10568  0.91603  0.19308  1.0000
  H   H400      1.0  0.17219  0.95558  0.49852  1.0000
  Fe  Fe33      1.0  0.07995  0.94696  0.21162  1.0000
  S   S75       1.0  0.10891  0.95179  0.25082  1.0000
  Fe  Fe34      1.0  0.10964  0.94003  0.16144  1.0000
  S   S76       1.0  0.17058  0.94352  0.14426  1.0000
  C   C488      1.0  0.10568  0.83211  0.36205  1.0000
  S   S77       1.0  0.04514  0.93108  0.14367  1.0000
  C   C489      1.0  0.05194  0.79864  0.17484  1.0000
  C   C490      1.0  0.07943  0.81718  0.17193  1.0000
  C   C491      1.0  0.06566  0.84044  0.17298  1.0000
  H   H401      1.0  0.13551  0.91913  0.04042  1.0000
  H   H402      1.0  0.40565  0.96506  0.05371  1.0000
  H   H403      1.0  0.10622  0.96443  0.39001  1.0000
  H   H404      1.0  0.11167  0.81351  0.16888  1.0000
  H   H405      1.0  0.08721  0.85446  0.17076  1.0000
  C   C492      1.0  0.16928  0.98911  0.44739  1.0000
  H   H406      1.0  0.12631  0.00128  0.11513  1.0000
  C   C493      1.0  0.03411  0.68547  0.32635  1.0000
  C   C494      1.0  0.12888  0.90080  0.04214  1.0000
  C   C495      1.0  0.03407  0.69060  0.28255  1.0000
  C   C496      1.0  0.02770  0.91748  0.47514  1.0000
  C   C497      1.0  0.02512  0.94702  0.05096  1.0000
  H   H407      1.0  0.02894  0.89924  0.47051  1.0000
  C   C498      1.0  0.09193  0.77113  0.46607  1.0000
  H   H408      1.0  0.09225  0.76981  0.37771  1.0000
  H   H409      1.0  0.15406  0.84844  0.01915  1.0000
  C   C499      1.0  0.10401  0.89328  0.05981  1.0000
  H   H410      1.0  0.32485  0.68461  0.06626  1.0000
  C   C500      1.0  0.11233  0.97844  0.26692  1.0000
  C   C501      1.0  0.15142  0.89386  0.41203  1.0000
  C   C502      1.0  0.21961  0.73526  0.47632  1.0000
  C   C503      1.0  0.17716  0.72899  0.47322  1.0000
  H   H411      1.0  0.13508  0.70515  0.32659  1.0000
  C   C504      1.0  0.13725  0.97968  0.28946  1.0000
  H   H412      1.0  0.00917  0.88448  0.05151  1.0000
  C   C505      1.0  0.11086  0.79283  0.46332  1.0000
  C   C506      1.0  0.09853  0.73656  0.32719  1.0000
  H   H413      1.0  0.15540  0.96473  0.29617  1.0000
  C   C507      1.0  0.17487  0.71605  0.16968  1.0000
  C   C508      1.0  0.03084  0.76444  0.25567  1.0000
  C   C509      1.0  0.17441  0.96003  0.47976  1.0000
  C   C510      1.0  0.18409  0.94282  0.46344  1.0000
  C   C511      1.0  0.18736  0.94904  0.43917  1.0000
  C   C512      1.0  0.18007  0.97207  0.43116  1.0000
  H   H414      1.0  0.07770  0.90558  0.26555  1.0000
  H   H415      1.0  0.19558  0.93598  0.42649  1.0000
  H   H416      1.0  0.18244  0.97656  0.41244  1.0000
  C   C513      1.0  0.17508  0.96843  0.06617  1.0000
  C   C514      1.0  0.21078  0.96993  0.08311  1.0000
  C   C515      1.0  0.20888  0.96250  0.10712  1.0000
  C   C516      1.0  0.17114  0.95400  0.11445  1.0000
  C   C517      1.0  0.13514  0.95320  0.09771  1.0000
  C   C518      1.0  0.13723  0.96021  0.07359  1.0000
  H   H417      1.0  0.24014  0.97618  0.07757  1.0000
  H   H418      1.0  0.23688  0.96314  0.12001  1.0000
  H   H419      1.0  0.10610  0.94673  0.10333  1.0000
  H   H420      1.0  0.10960  0.95920  0.06056  1.0000
  C   C519      1.0  0.07261  0.84447  0.37064  1.0000
  H   H421      1.0  0.05065  0.92657  0.38511  1.0000
  C   C520      1.0  0.37563  0.70474  0.11926  1.0000
  H   H422      1.0  0.13598  0.82418  0.48095  1.0000
  H   H423      1.0  0.15863  0.99605  0.48446  1.0000
  C   C521      1.0  0.08899  0.97125  0.37361  1.0000
  H   H424      1.0  0.26040  0.68259  0.19886  1.0000
  S   S78       1.0  0.05967  0.67390  0.35370  1.0000
  C   C522      1.0  0.15093  0.67786  0.26907  1.0000
  C   C523      1.0  0.09228  0.77965  0.50920  1.0000
  Fe  Fe35      1.0  0.03914  0.90936  0.17711  1.0000
  P   P15       1.0  0.27200  0.67819  0.14664  1.0000
  C   C524      1.0  0.22090  0.74326  0.15269  1.0000
  H   H425      1.0  0.12557  0.82445  0.10920  1.0000
  H   H426      1.0  0.12363  0.80187  0.34289  1.0000
  C   C525      1.0  0.02305  0.81576  0.35298  1.0000
  C   C526      1.0  0.12714  0.71990  0.33733  1.0000
  C   C527      1.0  0.12104  0.80769  0.48338  1.0000
  H   H427      1.0  0.23358  0.74339  0.46156  1.0000
  H   H428      1.0  0.40472  0.71315  0.12631  1.0000
  H   H429      1.0  0.18769  0.97856  0.17952  1.0000
  Fe  Fe36      1.0  0.07121  0.68411  0.19300  1.0000
  C   C528      1.0  0.00733  0.80254  0.05780  1.0000
  C   C529      1.0  0.19162  0.71038  0.28635  1.0000
  C   C530      1.0  0.16113  0.70139  0.26887  1.0000
  H   H430      1.0  0.11791  0.79815  0.44552  1.0000
  H   H431      1.0  0.16952  0.97115  0.36019  1.0000
  Fe  Fe37      1.0  0.22926  0.99858  0.02480  1.0000
  C   C531      1.0  0.24779  0.72503  0.14760  1.0000
  P   P16       1.0  0.04660  0.77559  0.32915  1.0000
  C   C532      1.0  0.02526  0.96435  0.48874  1.0000
  H   H432      1.0  0.13772  0.83832  0.36578  1.0000
  H   H433      1.0  0.46325  0.95867  0.02870  1.0000
  C   C533      1.0  0.07268  0.90249  0.28432  1.0000
  H   H434      1.0  0.17470  0.90346  0.32698  1.0000
  H   H435      1.0  0.24114  0.97902  0.35043  1.0000
  C   C534      1.0  0.42372  0.97969  0.04843  1.0000
  H   H436      1.0  0.05203  0.89265  0.35106  1.0000
  C   C535      1.0  0.23822  0.70212  0.15347  1.0000
  C   C536      1.0  0.01507  0.96675  0.08843  1.0000
  H   H437      1.0  0.05285  0.90779  0.42516  1.0000
  H   H438      1.0  0.09209  0.96379  0.48573  1.0000
  C   C537      1.0  0.21219  0.69578  0.30398  1.0000
  C   C538      1.0  0.08603  0.95857  0.35180  1.0000
  C   C539      1.0  0.08963  0.99804  0.25826  1.0000
  H   H439      1.0  0.08576  0.81468  0.25510  1.0000
  H   H440      1.0  0.19929  0.72864  0.28617  1.0000
  H   H441      1.0  0.14534  0.71258  0.25502  1.0000
  C   C540      1.0  0.09624  0.86954  0.06262  1.0000
  C   C541      1.0  0.11625  0.89501  0.42490  1.0000
  H   H442      1.0  0.07652  0.99921  0.03225  1.0000
  C   C542      1.0  0.18879  0.92003  0.33215  1.0000
  H   H443      1.0  0.35271  0.70246  0.15414  1.0000
  H   H444      1.0  0.03319  0.99864  0.31476  1.0000
  H   H445      1.0  0.12739  0.67140  0.25519  1.0000
  C   C543      1.0  0.05395  0.68311  0.30506  1.0000
  C   C544      1.0  0.13123  0.84039  0.11935  1.0000
  C   C545      1.0  0.02827  0.82382  0.06026  1.0000
  H   H446      1.0  0.17851  0.90382  0.38000  1.0000
  H   H447      1.0  0.19271  0.94211  0.20226  1.0000
  H   H448      1.0  0.22878  0.97953  0.26831  1.0000
  H   H449      1.0  0.01380  0.74736  0.28740  1.0000
  C   C546      1.0  0.13145  0.73982  0.37594  1.0000
  C   C547      1.0  0.10266  0.75641  0.36595  1.0000
  H   H450      1.0  0.06747  0.74821  0.49149  1.0000
  C   C548      1.0  0.08614  0.75501  0.34141  1.0000
  H   H451      1.0  0.18114  0.82523  0.14368  1.0000
  H   H452      1.0  0.15630  0.89729  0.15511  1.0000
  H   H453      1.0  0.08481  0.67529  0.30587  1.0000
  H   H454      1.0  0.16333  0.75280  0.16753  1.0000
  C   C549      1.0  0.07128  0.99341  0.37423  1.0000
  C   C550      1.0  0.16632  0.93674  0.34406  1.0000
  S   S79       1.0  0.01252  0.93901  0.19767  1.0000
  H   H455      1.0  0.15835  0.73223  0.45607  1.0000
  C   C551      1.0  0.05086  0.00320  0.35307  1.0000
  C   C552      1.0  0.22062  0.97940  0.24883  1.0000
  H   H456      1.0  0.14301  0.74070  0.39506  1.0000
  Fe  Fe38      1.0  0.04811  0.67973  0.39321  1.0000
  C   C553      1.0  0.30882  0.68721  0.12603  1.0000
  C   C554      1.0  0.06519  0.96847  0.33066  1.0000
  C   C555      1.0  0.06872  0.79790  0.28740  1.0000
  C   C556      1.0  0.16315  0.84080  0.13874  1.0000
  C   C557      1.0  0.07992  0.90667  0.41504  1.0000
  H   H457      1.0  0.19656  0.86168  0.16680  1.0000
  H   H458      1.0  0.19352  0.68032  0.16917  1.0000
  S   S80       1.0  0.29958  0.99442  0.03337  1.0000
  C   C558      1.0  0.19698  0.97911  0.19881  1.0000
  Fe  Fe39      1.0  0.18495  0.89906  0.51028  1.0000
  C   C559      1.0  0.08269  0.76462  0.48920  1.0000
  C   C560      1.0  0.36797  0.69968  0.09452  1.0000
  H   H459      1.0  0.14666  0.71249  0.17827  1.0000
  C   C561      1.0  0.09327  0.91627  0.30268  1.0000
  H   H460      1.0  0.09464  0.92254  0.47478  1.0000
  H   H461      1.0  0.02921  0.87453  0.27573  1.0000
  H   H462      1.0  0.10012  0.89697  0.12082  1.0000
  H   H463      1.0  0.11130  0.83496  0.05078  1.0000
  C   C562      1.0  0.16675  0.98298  0.47173  1.0000
  C   C563      1.0  0.05621  0.80304  0.34459  1.0000
  H   H464      1.0  0.07037  0.99732  0.24096  1.0000
  C   C564      1.0  0.33064  0.68864  0.08543  1.0000
  C   C565      1.0  0.03822  0.88154  0.31422  1.0000
  C   C566      1.0  0.01370  0.96725  0.03800  1.0000
  C   C567      1.0  0.03738  0.81891  0.10388  1.0000
  C   C568      1.0  0.06469  0.93051  0.47768  1.0000
  C   C569      1.0  0.09757  0.81147  0.34909  1.0000
  C   C570      1.0  0.47975  0.99504  0.02678  1.0000
  C   C571      1.0  0.22965  0.92467  0.32666  1.0000
  H   H465      1.0  0.01846  0.74577  0.36739  1.0000
  C   C572      1.0  0.04461  0.83179  0.08331  1.0000
  H   H466      1.0  0.23587  0.70275  0.31751  1.0000
  P   P17       1.0  0.06783  0.86013  0.08716  1.0000
  C   C573      1.0  0.10717  0.86040  0.11314  1.0000
  P   P18       1.0  0.11303  0.93106  0.35053  1.0000
  C   C574      1.0  0.11484  0.85339  0.04804  1.0000
  C   C575      1.0  0.13949  0.86097  0.03026  1.0000
  C   C576      1.0  0.02952  0.76221  0.28067  1.0000
  H   H467      1.0  0.22826  0.76088  0.14806  1.0000
  H   H468      1.0  0.11771  0.88730  0.44281  1.0000
  C   C577      1.0  0.11681  0.88105  0.12592  1.0000
  C   C578      1.0  0.14888  0.88138  0.14525  1.0000
  C   C579      1.0  0.17184  0.86128  0.15176  1.0000
  H   H469      1.0  0.21191  0.94240  0.24686  1.0000
  C   C580      1.0  0.02394  0.84549  0.17670  1.0000
  H   H470      1.0  0.11412  0.92978  0.29778  1.0000
  C   C581      1.0  0.08666  0.91280  0.32701  1.0000
  C   C582      1.0  0.01686  0.79762  0.10139  1.0000
  C   C583      1.0  0.14356  0.72150  0.36167  1.0000
  H   H471      1.0  0.39112  0.70418  0.08242  1.0000
  C   C584      1.0  0.18577  0.95794  0.35085  1.0000
  C   C585      1.0  0.20006  0.95830  0.21171  1.0000
  H   H472      1.0  0.16639  0.89046  0.01391  1.0000
  S   S81       1.0  0.06604  0.68611  0.46360  1.0000
  C   C586      1.0  0.15056  0.90456  0.38937  1.0000
  C   C587      1.0  0.45663  0.97615  0.03410  1.0000
  H   H473      1.0  0.12563  0.71461  0.48962  1.0000
  C   C588      1.0  0.21132  0.95846  0.23676  1.0000
  C   C589      1.0  0.18440  0.73876  0.16368  1.0000
  C   C590      1.0  0.14648  0.88465  0.02729  1.0000
  H   H474      1.0  0.17994  0.88538  0.42014  1.0000
  H   H475      1.0  0.15752  0.00082  0.32092  1.0000
  C   C591      1.0  0.03130  0.83638  0.36598  1.0000
  C   C592      1.0  0.07891  0.91740  0.39241  1.0000
  C   C593      1.0  0.05120  0.78330  0.24649  1.0000
  C   C594      1.0  0.34613  0.69861  0.13497  1.0000
  C   C595      1.0  0.11437  0.91660  0.37948  1.0000
  H   H476      1.0  0.01424  0.74251  0.13071  1.0000
  H   H477      1.0  0.27575  0.72891  0.13903  1.0000
  H   H478      1.0  0.05245  0.78486  0.22708  1.0000
  H   H479      1.0  0.06358  0.95955  0.31340  1.0000
  C   C596      1.0  0.30108  0.68244  0.10109  1.0000
  H   H480      1.0  0.01609  0.75146  0.24341  1.0000
  C   C597      1.0  0.24850  0.94592  0.33319  1.0000
  C   C598      1.0  0.22660  0.96251  0.34534  1.0000
  C   C599      1.0  0.13866  0.00013  0.30351  1.0000
  C   C600      1.0  0.41376  0.00205  0.05574  1.0000
  C   C601      1.0  0.24381  0.73113  0.49846  1.0000
  H   H481      1.0  0.28010  0.94956  0.32886  1.0000
  H   H482      1.0  0.27670  0.73606  0.50088  1.0000
  H   H483      1.0  0.04722  0.82538  0.12197  1.0000
  C   C602      1.0  0.04527  0.88507  0.29007  1.0000
  C   C603      1.0  0.20156  0.69784  0.16456  1.0000
  H   H484      1.0  0.08358  0.81108  0.29924  1.0000
  C   C604      1.0  0.07007  0.80004  0.26234  1.0000
  H   H485      1.0  0.07911  0.86020  0.38111  1.0000
  C   C605      1.0  0.15872  0.71873  0.49224  1.0000
  C   C606      1.0  0.20202  0.67222  0.30424  1.0000
  H   H486      1.0  0.04955  0.68834  0.26629  1.0000
  H   H487      1.0  0.03524  0.93138  0.08645  1.0000
  C   C607      1.0  0.02600  0.94685  0.07621  1.0000
  P   P19       1.0  0.02414  0.99457  0.49728  1.0000
  H   H488      1.0  0.02626  0.87491  0.12902  1.0000
  H   H489      1.0  0.03371  0.93158  0.04147  1.0000
  C   C608      1.0  0.02339  0.87883  0.09015  1.0000
  Fe  Fe40      1.0  0.02304  0.96096  0.16521  1.0000
  H   H490      1.0  0.03113  0.83415  0.04426  1.0000
  C   C609      1.0  0.21807  0.00023  0.23590  1.0000
  C   C610      1.0  0.20497  0.00030  0.21083  1.0000
  H   H491      1.0  0.01321  0.96724  0.01843  1.0000
  H   H492      1.0  0.01543  0.96661  0.10797  1.0000
  C   C611      1.0  0.11186  0.80117  0.50650  1.0000
  C   C612      1.0  0.01043  0.80368  0.17898  1.0000
  H   H493      1.0  0.01233  0.78775  0.11749  1.0000
  C   C613      1.0  0.00929  0.88239  0.11291  1.0000
  H   H494      1.0  0.01671  0.86813  0.31864  1.0000
  Fe  Fe41      1.0  0.00939  0.67111  0.44091  1.0000
  C   C614      1.0  0.28863  0.67262  0.19710  1.0000
  S   S82       1.0  0.49972  0.87912  0.86663  1.0000
  C   C615      1.0  0.14022  0.96550  0.64440  1.0000
  S   S83       1.0  0.34935  0.98979  0.96909  1.0000
  C   C616      1.0  0.03939  0.84196  0.59855  1.0000
  C   C617      1.0  0.15602  0.95088  0.66355  1.0000
  H   H495      1.0  0.19140  0.70007  0.59225  1.0000
  S   S84       1.0  0.12135  0.88831  0.52007  1.0000
  C   C618      1.0  0.34660  0.81899  0.64001  1.0000
  Fe  Fe42      1.0  0.23111  0.88173  0.55921  1.0000
  S   S85       1.0  0.16973  0.87083  0.57240  1.0000
  S   S86       1.0  0.29774  0.87136  0.57657  1.0000
  Fe  Fe43      1.0  0.15308  0.85559  0.53485  1.0000
  H   H496      1.0  0.46267  0.71348  0.60206  1.0000
  Fe  Fe44      1.0  0.14247  0.90432  0.55643  1.0000
  S   S87       1.0  0.09861  0.93210  0.56953  1.0000
  S   S88       1.0  0.21526  0.86497  0.52241  1.0000
  S   S89       1.0  0.20522  0.91660  0.54585  1.0000
  S   S90       1.0  0.44998  0.89381  0.97941  1.0000
  S   S91       1.0  0.42828  0.88401  0.67273  1.0000
  C   C619      1.0  0.15900  0.74669  0.55727  1.0000
  H   H497      1.0  0.08375  0.73149  0.53607  1.0000
  H   H498      1.0  0.49486  0.73645  0.65295  1.0000
  C   C620      1.0  0.42658  0.74481  0.60531  1.0000
  C   C621      1.0  0.48793  0.74436  0.96340  1.0000
  C   C622      1.0  0.45207  0.81251  0.56009  1.0000
  C   C623      1.0  0.33361  0.87556  0.60342  1.0000
  C   C624      1.0  0.32321  0.88863  0.62326  1.0000
  C   C625      1.0  0.35261  0.89113  0.64415  1.0000
  C   C626      1.0  0.39261  0.88038  0.64573  1.0000
  C   C627      1.0  0.40294  0.86727  0.62592  1.0000
  C   C628      1.0  0.37384  0.86507  0.60491  1.0000
  H   H499      1.0  0.29264  0.89691  0.62247  1.0000
  H   H500      1.0  0.34425  0.90139  0.65927  1.0000
  H   H501      1.0  0.43350  0.85894  0.62672  1.0000
  H   H502      1.0  0.38278  0.85522  0.58966  1.0000
  C   C629      1.0  0.07385  0.83382  0.58722  1.0000
  C   C630      1.0  0.48789  0.82056  0.57433  1.0000
  C   C631      1.0  0.05675  0.91104  0.60527  1.0000
  C   C632      1.0  0.05906  0.92986  0.58962  1.0000
  H   H503      1.0  0.49390  0.94334  0.99774  1.0000
  H   H504      1.0  0.47387  0.92861  0.76964  1.0000
  H   H505      1.0  0.07952  0.89709  0.60529  1.0000
  H   H506      1.0  0.31065  0.91212  0.95238  1.0000
  C   C633      1.0  0.17700  0.92767  0.96351  1.0000
  H   H507      1.0  0.35598  0.95392  0.00667  1.0000
  C   C634      1.0  0.37713  0.96304  0.97245  1.0000
  C   C635      1.0  0.40188  0.95595  0.95427  1.0000
  C   C636      1.0  0.42539  0.93520  0.95650  1.0000
  C   C637      1.0  0.42306  0.92081  0.97654  1.0000
  C   C638      1.0  0.40070  0.80730  0.68133  1.0000
  H   H508      1.0  0.22871  0.78857  0.54609  1.0000
  H   H509      1.0  0.40269  0.96644  0.93827  1.0000
  H   H510      1.0  0.44447  0.93004  0.94245  1.0000
  C   C639      1.0  0.34512  0.83142  0.66159  1.0000
  H   H511      1.0  0.04780  0.87232  0.55779  1.0000
  H   H512      1.0  0.13753  0.97105  0.60555  1.0000
  H   H513      1.0  0.08003  0.96946  0.53384  1.0000
  H   H514      1.0  0.32609  0.82437  0.62423  1.0000
  H   H515      1.0  0.18192  0.93745  0.59824  1.0000
  H   H516      1.0  0.39554  0.91659  0.01004  1.0000
  H   H517      1.0  0.46659  0.75901  0.96362  1.0000
  C   C640      1.0  0.10404  0.69596  0.53170  1.0000
  H   H518      1.0  0.47951  0.69114  0.91846  1.0000
  H   H519      1.0  0.32398  0.84613  0.66205  1.0000
  H   H520      1.0  0.13990  0.82531  0.59124  1.0000
  H   H521      1.0  0.14531  0.92087  0.96255  1.0000
  H   H522      1.0  0.07003  0.82915  0.56819  1.0000
  H   H523      1.0  0.46622  0.88134  0.81645  1.0000
  Fe  Fe45      1.0  0.30259  0.00334  0.99416  1.0000
  H   H524      1.0  0.14892  0.75171  0.53873  1.0000
  H   H525      1.0  0.19922  0.99209  0.67192  1.0000
  H   H526      1.0  0.44155  0.75368  0.59140  1.0000
  H   H527      1.0  0.49209  0.98680  0.83810  1.0000
  C   C641      1.0  0.22556  0.72063  0.51744  1.0000
  C   C642      1.0  0.44703  0.97531  0.86150  1.0000
  C   C643      1.0  0.42027  0.71031  0.62948  1.0000
  H   H528      1.0  0.20043  0.73053  0.62340  1.0000
  C   C644      1.0  0.50410  0.98568  0.93317  1.0000
  C   C645      1.0  0.11363  0.83163  0.60030  1.0000
  H   H529      1.0  0.02423  0.89621  0.63369  1.0000
  C   C646      1.0  0.37504  0.94876  0.99260  1.0000
  H   H530      1.0  0.24466  0.71742  0.53448  1.0000
  C   C647      1.0  0.38949  0.72132  0.64153  1.0000
  C   C648      1.0  0.43729  0.95865  0.87827  1.0000
  C   C649      1.0  0.11968  0.83813  0.62470  1.0000
  H   H531      1.0  0.15079  0.83693  0.63465  1.0000
  H   H532      1.0  0.28921  0.95359  0.96722  1.0000
  C   C650      1.0  0.35786  0.89557  0.93382  1.0000
  H   H533      1.0  0.20603  0.97271  0.88369  1.0000
  H   H534      1.0  0.08431  0.77465  0.52689  1.0000
  H   H535      1.0  0.40761  0.95940  0.88600  1.0000
  C   C651      1.0  0.48535  0.97407  0.85144  1.0000
  H   H536      1.0  0.14916  0.95441  0.68191  1.0000
  H   H537      1.0  0.15703  0.78186  0.57024  1.0000
  C   C652      1.0  0.05384  0.96183  0.67073  1.0000
  C   C653      1.0  0.19733  0.93509  0.98579  1.0000
  C   C654      1.0  0.37536  0.80060  0.63890  1.0000
  C   C655      1.0  0.40240  0.79490  0.65980  1.0000
  P   P20       1.0  0.38099  0.78577  0.61061  1.0000
  C   C656      1.0  0.33208  0.78653  0.59061  1.0000
  C   C657      1.0  0.42253  0.79967  0.59637  1.0000
  C   C658      1.0  0.41967  0.80190  0.57101  1.0000
  C   C659      1.0  0.30797  0.76638  0.58578  1.0000
  C   C660      1.0  0.27098  0.76710  0.56970  1.0000
  C   C661      1.0  0.25750  0.78792  0.55847  1.0000
  C   C662      1.0  0.28121  0.80800  0.56321  1.0000
  C   C663      1.0  0.31842  0.80729  0.57904  1.0000
  C   C664      1.0  0.39593  0.75606  0.61752  1.0000
  C   C665      1.0  0.37716  0.74405  0.63551  1.0000
  H   H538      1.0  0.42235  0.80301  0.69714  1.0000
  H   H539      1.0  0.42578  0.78126  0.65940  1.0000
  H   H540      1.0  0.39249  0.79554  0.55958  1.0000
  C   C666      1.0  0.18513  0.67401  0.54744  1.0000
  H   H541      1.0  0.31766  0.75006  0.59419  1.0000
  H   H542      1.0  0.25268  0.75151  0.56596  1.0000
  H   H543      1.0  0.14898  0.97870  0.55572  1.0000
  H   H544      1.0  0.27089  0.82425  0.55460  1.0000
  H   H545      1.0  0.33655  0.82302  0.58216  1.0000
  H   H546      1.0  0.35349  0.75241  0.64516  1.0000
  H   H547      1.0  0.37563  0.71230  0.65581  1.0000
  C   C667      1.0  0.17389  0.94972  0.85765  1.0000
  C   C668      1.0  0.16867  0.92684  0.84958  1.0000
  C   C669      1.0  0.19222  0.90906  0.86168  1.0000
  C   C670      1.0  0.22110  0.91414  0.88180  1.0000
  C   C671      1.0  0.22700  0.93714  0.88982  1.0000
  C   C672      1.0  0.20281  0.95488  0.87774  1.0000
  P   P21       1.0  0.26341  0.94327  0.91634  1.0000
  C   C673      1.0  0.27883  0.97341  0.91587  1.0000
  C   C674      1.0  0.18093  0.93162  0.65915  1.0000
  C   C675      1.0  0.07420  0.71396  0.53159  1.0000
  C   C676      1.0  0.16741  0.72331  0.56319  1.0000
  C   C677      1.0  0.46584  0.94081  0.88498  1.0000
  C   C678      1.0  0.01810  0.97108  0.70590  1.0000
  C   C679      1.0  0.01695  0.88037  0.55507  1.0000
  C   C680      1.0  0.31691  0.98008  0.90747  1.0000
  H   H548      1.0  0.00924  0.93941  0.68541  1.0000
  C   C681      1.0  0.23793  0.93886  0.94353  1.0000
  C   C682      1.0  0.25208  0.99059  0.92381  1.0000
  H   H549      1.0  0.49731  0.74915  0.92619  1.0000
  C   C683      1.0  0.30858  0.92430  0.91523  1.0000
  C   C684      1.0  0.32726  0.92197  0.89351  1.0000
  C   C685      1.0  0.36165  0.90703  0.89223  1.0000
  P   P22       1.0  0.15975  0.70153  0.53951  1.0000
  H   H550      1.0  0.18146  0.93426  0.00208  1.0000
  H   H551      1.0  0.19291  0.92037  0.67395  1.0000
  H   H552      1.0  0.05862  0.94996  0.65609  1.0000
  H   H553      1.0  0.14626  0.92289  0.83399  1.0000
  H   H554      1.0  0.18805  0.89129  0.85549  1.0000
  H   H555      1.0  0.23880  0.90012  0.89113  1.0000
  C   C686      1.0  0.02521  0.91050  0.62124  1.0000
  C   C687      1.0  0.03139  0.70956  0.52498  1.0000
  H   H556      1.0  0.20967  0.91193  0.63213  1.0000
  C   C688      1.0  0.07333  0.00223  0.51471  1.0000
  C   C689      1.0  0.37242  0.82575  0.68217  1.0000
  C   C690      1.0  0.19719  0.92950  0.94242  1.0000
  H   H557      1.0  0.33871  0.96733  0.90195  1.0000
  C   C691      1.0  0.49825  0.73141  0.98447  1.0000
  C   C692      1.0  0.37699  0.89387  0.91242  1.0000
  C   C693      1.0  0.03605  0.99925  0.61982  1.0000
  H   H558      1.0  0.22269  0.98593  0.93057  1.0000
  H   H559      1.0  0.31529  0.93177  0.87758  1.0000
  H   H560      1.0  0.37642  0.90548  0.87559  1.0000
  C   C694      1.0  0.32414  0.91089  0.93538  1.0000
  H   H561      1.0  0.46247  0.80579  0.63005  1.0000
  S   S92       1.0  0.49498  0.85227  0.93055  1.0000
  C   C695      1.0  0.14985  0.96053  0.62082  1.0000
  C   C696      1.0  0.49684  0.68148  0.90598  1.0000
  C   C697      1.0  0.49142  0.81790  0.59949  1.0000
  C   C698      1.0  0.19047  0.92687  0.63564  1.0000
  Fe  Fe46      1.0  0.49169  0.86565  0.68392  1.0000
  C   C699      1.0  0.39763  0.92765  0.99450  1.0000
  C   C700      1.0  0.18846  0.73499  0.60494  1.0000
  H   H562      1.0  0.36993  0.88537  0.94949  1.0000
  C   C701      1.0  0.17501  0.94134  0.61654  1.0000
  C   C702      1.0  0.17871  0.75807  0.59896  1.0000
  H   H563      1.0  0.37246  0.83604  0.69855  1.0000
  P   P23       1.0  0.11000  0.99100  0.65072  1.0000
  C   C703      1.0  0.09384  0.98623  0.53107  1.0000
  C   C704      1.0  0.23800  0.94409  0.98706  1.0000
  C   C705      1.0  0.25810  0.94610  0.96602  1.0000
  H   H564      1.0  0.03890  0.90861  0.53449  1.0000
  H   H565      1.0  0.15542  0.96351  0.84837  1.0000
  H   H566      1.0  0.40381  0.88236  0.91156  1.0000
  H   H567      1.0  0.18308  0.77149  0.61272  1.0000
  H   H568      1.0  0.48637  0.94818  0.80928  1.0000
  C   C706      1.0  0.43861  0.72199  0.61127  1.0000
  C   C707      1.0  0.02945  0.94794  0.59008  1.0000
  H   H569      1.0  0.43015  0.69282  0.63453  1.0000
  C   C708      1.0  0.09009  0.67345  0.52527  1.0000
  H   H570      1.0  0.45815  0.92762  0.89766  1.0000
  H   H571      1.0  0.09033  0.85150  0.65506  1.0000
  C   C709      1.0  0.45891  0.80756  0.61050  1.0000
  C   C710      1.0  0.16400  0.76391  0.57511  1.0000
  C   C711      1.0  0.07472  0.98323  0.67274  1.0000
  C   C712      1.0  0.06719  0.99843  0.69168  1.0000
  C   C713      1.0  0.07995  0.00178  0.62347  1.0000
  C   C714      1.0  0.18296  0.71766  0.58715  1.0000
  C   C715      1.0  0.08566  0.84637  0.63615  1.0000
  C   C716      1.0  0.03880  0.99237  0.70810  1.0000
  H   H572      1.0  0.03124  0.96265  0.57823  1.0000
  S   S93       1.0  0.49307  0.83593  0.71043  1.0000
  S   S94       1.0  0.12444  0.81903  0.53259  1.0000
  H   H573      1.0  0.48535  0.73610  0.00110  1.0000
  H   H574      1.0  0.44931  0.81460  0.54057  1.0000
  H   H575      1.0  0.18058  0.92399  0.92534  1.0000
  C   C717      1.0  0.46696  0.99826  0.92698  1.0000
  H   H576      1.0  0.01936  0.99001  0.63270  1.0000
  C   C718      1.0  0.49837  0.99281  0.97592  1.0000
  Fe  Fe47      1.0  0.50196  0.88242  0.95668  1.0000
  C   C719      1.0  0.18288  0.71425  0.51440  1.0000
  C   C720      1.0  0.02582  0.95578  0.68732  1.0000
  C   C721      1.0  0.04558  0.84809  0.62322  1.0000
  C   C722      1.0  0.13302  0.99149  0.54363  1.0000
  C   C723      1.0  0.49721  0.87355  0.81715  1.0000
  H   H577      1.0  0.01980  0.85427  0.63260  1.0000
  C   C724      1.0  0.01793  0.68713  0.51865  1.0000
  H   H578      1.0  0.42466  0.98900  0.85606  1.0000
  H   H579      1.0  0.45459  0.00020  0.90815  1.0000
  C   C725      1.0  0.01201  0.90093  0.54171  1.0000
  H   H580      1.0  0.49533  0.87075  0.77807  1.0000
  H   H581      1.0  0.25356  0.95007  0.00432  1.0000
  H   H582      1.0  0.03213  0.00429  0.72238  1.0000
  H   H583      1.0  0.21965  0.67214  0.51576  1.0000
  H   H584      1.0  0.01018  0.76240  0.55716  1.0000
  H   H585      1.0  0.00873  0.79440  0.58677  1.0000
  H   H586      1.0  0.00865  0.72359  0.52425  1.0000
  C   C726      1.0  0.50412  0.93955  0.87498  1.0000
  C   C727      1.0  0.50500  0.92827  0.77964  1.0000
  C   C728      1.0  0.32784  0.00352  0.90688  1.0000
  Fe  Fe48      1.0  0.82730  0.17208  0.48567  1.0000
  S   S95       1.0  0.89440  0.17919  0.47810  1.0000
  S   S96       1.0  0.76901  0.19040  0.46635  1.0000
  Fe  Fe49      1.0  0.90817  0.14181  0.48804  1.0000
  S   S97       1.0  0.94494  0.11295  0.47094  1.0000
  H   H587      1.0  0.74994  0.02192  0.10925  1.0000
  S   S98       1.0  0.83992  0.13416  0.49231  1.0000
  P   P24       1.0  0.98671  0.01302  0.03295  1.0000
  S   S99       1.0  0.59221  0.17311  0.09103  1.0000
  C   C729      1.0  0.52875  0.32663  0.34826  1.0000
  S   S100      1.0  0.56443  0.22157  0.35489  1.0000
  Fe  Fe50      1.0  0.55254  0.18847  0.37429  1.0000
  S   S101      1.0  0.60478  0.16557  0.39387  1.0000
  H   H588      1.0  0.57401  0.25095  0.31202  1.0000
  S   S102      1.0  0.80092  0.05756  0.05937  1.0000
  H   H589      1.0  0.94088  0.02710  0.11964  1.0000
  C   C730      1.0  0.55865  0.01420  0.01381  1.0000
  S   S103      1.0  0.72242  0.02281  0.04393  1.0000
  Fe  Fe51      1.0  0.73027  0.06120  0.05081  1.0000
  S   S104      1.0  0.68230  0.07581  0.07496  1.0000
  H   H590      1.0  0.59710  0.09703  0.03890  1.0000
  H   H591      1.0  0.63712  0.13351  0.14829  1.0000
  H   H592      1.0  0.86548  0.10259  0.21826  1.0000
  C   C731      1.0  0.53104  0.07522  0.05595  1.0000
  H   H593      1.0  0.68388  0.15745  0.12600  1.0000
  H   H594      1.0  0.73147  0.08003  0.15715  1.0000
  C   C732      1.0  0.78867  0.21015  0.39417  1.0000
  C   C733      1.0  0.61480  0.14565  0.08528  1.0000
  C   C734      1.0  0.60141  0.12520  0.09544  1.0000
  C   C735      1.0  0.62250  0.10408  0.09205  1.0000
  C   C736      1.0  0.65681  0.10301  0.07817  1.0000
  C   C737      1.0  0.66961  0.12338  0.06752  1.0000
  C   C738      1.0  0.64890  0.14456  0.07122  1.0000
  H   H595      1.0  0.57577  0.12584  0.10663  1.0000
  H   H596      1.0  0.61239  0.08850  0.10047  1.0000
  H   H597      1.0  0.69571  0.12295  0.05668  1.0000
  H   H598      1.0  0.65963  0.16029  0.06334  1.0000
  H   H599      1.0  0.75468  0.14315  0.11921  1.0000
  C   C739      1.0  0.72656  0.23489  0.38738  1.0000
  H   H600      1.0  0.52752  0.19416  0.02973  1.0000
  C   C740      1.0  0.70255  0.21594  0.37840  1.0000
  C   C741      1.0  0.72347  0.18280  0.44641  1.0000
  C   C742      1.0  0.71655  0.16034  0.43727  1.0000
  C   C743      1.0  0.68000  0.15541  0.42134  1.0000
  C   C744      1.0  0.64995  0.17279  0.41432  1.0000
  C   C745      1.0  0.65679  0.19519  0.42360  1.0000
  C   C746      1.0  0.69337  0.20014  0.43945  1.0000
  H   H601      1.0  0.73931  0.14681  0.44239  1.0000
  H   H602      1.0  0.67500  0.13802  0.41431  1.0000
  H   H603      1.0  0.63400  0.20872  0.41847  1.0000
  H   H604      1.0  0.69836  0.21756  0.44638  1.0000
  H   H605      1.0  0.77410  0.11896  0.04598  1.0000
  H   H606      1.0  0.52305  0.32614  0.27692  1.0000
  H   H607      1.0  0.99256  0.07834  0.44888  1.0000
  H   H608      1.0  0.56608  0.21553  0.23684  1.0000
  C   C747      1.0  0.88727  0.24001  0.37820  1.0000
  H   H609      1.0  0.90857  0.04065  0.03511  1.0000
  S   S105      1.0  0.51947  0.20879  0.13417  1.0000
  C   C748      1.0  0.91081  0.14575  0.40673  1.0000
  C   C749      1.0  0.88516  0.13119  0.41876  1.0000
  C   C750      1.0  0.84746  0.13962  0.42608  1.0000
  C   C751      1.0  0.83511  0.16255  0.42112  1.0000
  C   C752      1.0  0.85987  0.17706  0.40826  1.0000
  C   C753      1.0  0.89844  0.16868  0.40167  1.0000
  P   P25       1.0  0.84467  0.20696  0.40296  1.0000
  C   C754      1.0  0.76955  0.23208  0.39500  1.0000
  C   C755      1.0  0.86360  0.22228  0.43045  1.0000
  C   C756      1.0  0.90721  0.22441  0.43697  1.0000
  H   H610      1.0  0.86792  0.06737  0.15111  1.0000
  C   C757      1.0  0.89451  0.24281  0.47483  1.0000
  C   C758      1.0  0.85112  0.24057  0.46858  1.0000
  C   C759      1.0  0.83568  0.23037  0.44648  1.0000
  H   H611      1.0  0.94076  0.13937  0.40185  1.0000
  H   H612      1.0  0.89518  0.11357  0.42306  1.0000
  H   H613      1.0  0.82821  0.12855  0.43605  1.0000
  H   H614      1.0  0.80640  0.16902  0.42747  1.0000
  H   H615      1.0  0.91936  0.17984  0.39297  1.0000
  H   H616      1.0  0.71167  0.25169  0.38865  1.0000
  H   H617      1.0  0.78782  0.24698  0.40166  1.0000
  C   C760      1.0  0.86717  0.20481  0.35600  1.0000
  C   C761      1.0  0.57634  0.30653  0.29230  1.0000
  H   H618      1.0  0.82942  0.24597  0.48126  1.0000
  H   H619      1.0  0.80205  0.22804  0.44251  1.0000
  C   C762      1.0  0.84435  0.03351  0.14154  1.0000
  C   C763      1.0  0.53347  0.30965  0.28466  1.0000
  C   C764      1.0  0.74438  0.10963  0.49988  1.0000
  C   C765      1.0  0.59497  0.30348  0.40698  1.0000
  H   H620      1.0  0.63160  0.06581  0.44736  1.0000
  Fe  Fe52      1.0  0.52332  0.20613  0.32309  1.0000
  H   H621      1.0  0.85467  0.03687  0.45473  1.0000
  C   C766      1.0  0.61938  0.31833  0.39447  1.0000
  C   C767      1.0  0.76447  0.19133  0.38452  1.0000
  S   S106      1.0  0.54537  0.21088  0.28563  1.0000
  C   C768      1.0  0.68439  0.06463  0.47512  1.0000
  H   H622      1.0  0.53100  0.20233  0.19689  1.0000
  H   H623      1.0  0.62585  0.02307  0.44366  1.0000
  Fe  Fe53      1.0  0.79323  0.02012  0.04901  1.0000
  C   C769      1.0  0.86869  0.21798  0.37741  1.0000
  C   C770      1.0  0.59087  0.28541  0.30231  1.0000
  C   C771      1.0  0.95170  0.07200  0.08338  1.0000
  H   H624      1.0  0.84934  0.12543  0.04109  1.0000
  C   C772      1.0  0.92254  0.23477  0.45902  1.0000
  C   C773      1.0  0.84954  0.04781  0.47004  1.0000
  C   C774      1.0  0.92199  0.06420  0.06478  1.0000
  C   C775      1.0  0.65330  0.05474  0.45856  1.0000
  H   H625      1.0  0.87284  0.02474  0.14922  1.0000
  H   H626      1.0  0.75291  0.10807  0.08591  1.0000
  H   H627      1.0  0.92938  0.21747  0.42535  1.0000
  H   H628      1.0  0.56014  0.29946  0.43770  1.0000
  H   H629      1.0  0.88422  0.20292  0.31953  1.0000
  C   C776      1.0  0.72153  0.19421  0.37691  1.0000
  H   H630      1.0  0.85201  0.18802  0.35487  1.0000
  H   H631      1.0  0.88762  0.25080  0.39423  1.0000
  C   C777      1.0  0.98689  0.11535  0.45253  1.0000
  H   H632      1.0  0.73843  0.14600  0.49095  1.0000
  H   H633      1.0  0.77842  0.17438  0.38282  1.0000
  H   H634      1.0  0.68574  0.08330  0.47640  1.0000
  H   H635      1.0  0.75421  0.10502  0.48240  1.0000
  C   C778      1.0  0.88525  0.21325  0.33593  1.0000
  H   H636      1.0  0.66903  0.21792  0.37295  1.0000
  H   H637      1.0  0.66086  0.09473  0.16370  1.0000
  H   H638      1.0  0.62283  0.03620  0.06162  1.0000
  C   C779      1.0  0.87554  0.14458  0.17635  1.0000
  Fe  Fe54      1.0  0.52942  0.18143  0.10586  1.0000
  H   H639      1.0  0.98957  0.15260  0.45265  1.0000
  C   C780      1.0  0.80410  0.06901  0.13310  1.0000
  C   C781      1.0  0.77136  0.05593  0.12093  1.0000
  P   P26       1.0  0.80054  0.10025  0.13318  1.0000
  C   C782      1.0  0.83308  0.11274  0.15851  1.0000
  C   C783      1.0  0.81605  0.10940  0.10438  1.0000
  C   C784      1.0  0.85875  0.11263  0.10141  1.0000
  C   C785      1.0  0.87059  0.11886  0.07874  1.0000
  C   C786      1.0  0.84006  0.12131  0.05883  1.0000
  C   C787      1.0  0.79762  0.11770  0.06158  1.0000
  C   C788      1.0  0.78569  0.11164  0.08424  1.0000
  C   C789      1.0  0.71273  0.05046  0.48970  1.0000
  C   C790      1.0  0.89149  0.01063  0.09605  1.0000
  C   C791      1.0  0.83759  0.10149  0.18108  1.0000
  H   H640      1.0  0.87937  0.02669  0.08800  1.0000
  C   C792      1.0  0.51963  0.27045  0.29704  1.0000
  C   C793      1.0  0.74803  0.11024  0.13714  1.0000
  C   C794      1.0  0.72146  0.09687  0.15008  1.0000
  C   C795      1.0  0.68157  0.10523  0.15406  1.0000
  C   C796      1.0  0.66823  0.12710  0.14551  1.0000
  C   C797      1.0  0.69470  0.14063  0.13292  1.0000
  C   C798      1.0  0.73455  0.13232  0.12886  1.0000
  H   H641      1.0  0.91993  0.26534  0.35886  1.0000
  C   C799      1.0  0.53661  0.20625  0.23599  1.0000
  H   H642      1.0  0.90350  0.12130  0.07636  1.0000
  C   C800      1.0  0.88100  0.13293  0.19855  1.0000
  H   H643      1.0  0.74325  0.06438  0.11249  1.0000
  C   C801      1.0  0.90535  0.24840  0.35810  1.0000
  C   C802      1.0  0.90449  0.23499  0.33701  1.0000
  H   H644      1.0  0.70258  0.17949  0.37026  1.0000
  C   C803      1.0  0.73550  0.13286  0.50462  1.0000
  C   C804      1.0  0.65006  0.03066  0.45648  1.0000
  H   H645      1.0  0.89951  0.08840  0.50724  1.0000
  H   H646      1.0  0.62406  0.28287  0.30817  1.0000
  H   H647      1.0  0.73048  0.01495  0.49863  1.0000
  C   C805      1.0  0.51888  0.20149  0.25757  1.0000
  C   C806      1.0  0.93222  0.04630  0.04939  1.0000
  H   H648      1.0  0.95617  0.23580  0.46435  1.0000
  H   H649      1.0  0.54394  0.04700  0.08108  1.0000
  H   H650      1.0  0.82213  0.08510  0.18340  1.0000
  H   H651      1.0  0.89085  0.07196  0.06219  1.0000
  C   C807      1.0  0.57640  0.01761  0.03786  1.0000
  C   C808      1.0  0.88161  0.06248  0.48007  1.0000
  C   C809      1.0  0.81054  0.04765  0.47941  1.0000
  H   H652      1.0  0.51735  0.06807  0.11542  1.0000
  C   C810      1.0  0.97414  0.01588  0.45891  1.0000
  H   H653      1.0  0.58744  0.28622  0.40002  1.0000
  H   H654      1.0  0.89963  0.14067  0.21399  1.0000
  H   H655      1.0  0.91149  0.06317  0.47250  1.0000
  C   C811      1.0  0.58794  0.33349  0.43693  1.0000
  P   P27       1.0  0.75337  0.06270  0.51129  1.0000
  H   H656      1.0  0.88970  0.16144  0.17463  1.0000
  C   C812      1.0  0.86185  0.11146  0.20094  1.0000
  H   H657      1.0  0.78607  0.03635  0.47120  1.0000
  H   H658      1.0  0.84653  0.14417  0.13956  1.0000
  C   C813      1.0  0.67791  0.01642  0.47099  1.0000
  C   C814      1.0  0.85137  0.13463  0.15644  1.0000
  C   C815      1.0  0.97252  0.03615  0.05248  1.0000
  H   H659      1.0  0.63096  0.31248  0.37784  1.0000
  C   C816      1.0  0.84121  0.05766  0.14280  1.0000
  H   H660      1.0  0.91851  0.24150  0.32145  1.0000
  C   C817      1.0  0.56257  0.26742  0.30460  1.0000
  H   H661      1.0  0.88285  0.11004  0.11648  1.0000
  C   C818      1.0  0.00278  0.04476  0.07055  1.0000
  H   H662      1.0  0.59826  0.32051  0.29051  1.0000
  H   H663      1.0  0.94343  0.08554  0.09555  1.0000
  C   C819      1.0  0.99219  0.06237  0.08618  1.0000
  C   C820      1.0  0.92620  0.01080  0.11409  1.0000
  C   C821      1.0  0.77500  0.03184  0.11915  1.0000
  H   H664      1.0  0.90649  0.25010  0.49226  1.0000
  C   C822      1.0  0.80335  0.06233  0.49881  1.0000
  C   C823      1.0  0.96764  0.02805  0.43701  1.0000
  H   H665      1.0  0.99715  0.04404  0.40809  1.0000
  Fe  Fe55      1.0  0.80321  0.06333  0.01923  1.0000
  C   C824      1.0  0.51695  0.07636  0.09789  1.0000
  H   H666      1.0  0.64715  0.05946  0.02865  1.0000
  H   H667      1.0  0.93601  0.03268  0.42939  1.0000
  C   C825      1.0  0.60817  0.03398  0.04317  1.0000
  C   C826      1.0  0.57942  0.31102  0.42824  1.0000
  H   H668      1.0  0.54759  0.33016  0.33367  1.0000
  C   C827      1.0  0.62178  0.04727  0.02459  1.0000
  H   H669      1.0  0.66262  0.10070  0.01999  1.0000
  C   C828      1.0  0.87488  0.07676  0.49965  1.0000
  H   H670      1.0  0.94709  0.01073  0.46776  1.0000
  P   P28       1.0  0.50894  0.10969  0.02228  1.0000
  C   C829      1.0  0.00451  0.09494  0.44393  1.0000
  S   S107      1.0  0.51513  0.17212  0.34151  1.0000
  C   C830      1.0  0.52390  0.30357  0.35583  1.0000
  C   C831      1.0  0.51677  0.19881  0.21332  1.0000
  C   C832      1.0  0.81136  0.02061  0.12959  1.0000
  C   C833      1.0  0.70911  0.02625  0.48753  1.0000
  C   C834      1.0  0.00201  0.03435  0.42491  1.0000
  C   C835      1.0  0.51867  0.15725  0.02714  1.0000
  H   H671      1.0  0.52361  0.11916  0.31986  1.0000
  H   H672      1.0  0.97004  0.03498  0.50508  1.0000
  H   H673      1.0  0.53908  0.28952  0.34719  1.0000
  H   H674      1.0  0.56670  0.00702  0.05236  1.0000
  C   C836      1.0  0.59560  0.10364  0.02062  1.0000
  H   H675      1.0  0.51732  0.12094  0.27491  1.0000
  C   C837      1.0  0.83597  0.07669  0.50898  1.0000
  H   H676      1.0  0.54135  0.06563  0.04088  1.0000
  C   C838      1.0  0.51598  0.09801  0.05258  1.0000
  C   C839      1.0  0.53195  0.06452  0.07857  1.0000
  H   H677      1.0  0.55160  0.15360  0.03296  1.0000
  C   C840      1.0  0.00284  0.13675  0.44618  1.0000
  C   C841      1.0  0.98982  0.05873  0.64037  1.0000
  H   H678      1.0  0.95104  0.23709  0.80522  1.0000
  S   S108      1.0  0.90242  0.31611  0.57121  1.0000
  H   H679      1.0  0.00152  0.25337  0.55403  1.0000
  C   C842      1.0  0.76644  0.03615  0.93867  1.0000
  Fe  Fe56      1.0  0.85682  0.14394  0.53138  1.0000
  C   C843      1.0  0.85231  0.28869  0.73081  1.0000
  H   H680      1.0  0.74732  0.08663  0.64712  1.0000
  S   S109      1.0  0.85753  0.08449  0.00786  1.0000
  S   S110      1.0  0.95506  0.08423  0.85874  1.0000
  H   H681      1.0  0.98943  0.22993  0.93515  1.0000
  S   S111      1.0  0.92718  0.13822  0.84735  1.0000
  C   C844      1.0  0.74616  0.05862  0.90249  1.0000
  Fe  Fe57      1.0  0.92979  0.11388  0.87916  1.0000
  S   S112      1.0  0.86962  0.10864  0.89693  1.0000
  Fe  Fe58      1.0  0.95681  0.10891  0.82784  1.0000
  C   C845      1.0  0.78216  0.05084  0.89251  1.0000
  S   S113      1.0  0.97273  0.33649  0.86910  1.0000
  C   C846      1.0  0.84521  0.01267  0.84250  1.0000
  C   C847      1.0  0.59730  0.02172  0.85189  1.0000
  S   S114      1.0  0.82977  0.12471  0.56191  1.0000
  H   H682      1.0  0.68868  0.04453  0.53924  1.0000
  C   C848      1.0  0.90753  0.04434  0.92985  1.0000
  Fe  Fe59      1.0  0.90703  0.18658  0.51827  1.0000
  H   H683      1.0  0.89427  0.23616  0.76997  1.0000
  S   S115      1.0  0.90614  0.03055  0.60728  1.0000
  H   H684      1.0  0.96999  0.29684  0.90105  1.0000
  C   C849      1.0  0.97100  0.12412  0.70816  1.0000
  C   C850      1.0  0.85083  0.09830  0.57401  1.0000
  C   C851      1.0  0.82953  0.08637  0.59101  1.0000
  C   C852      1.0  0.84629  0.06577  0.60176  1.0000
  C   C853      1.0  0.88435  0.05687  0.59539  1.0000
  C   C854      1.0  0.90562  0.06879  0.57837  1.0000
  C   C855      1.0  0.88901  0.08944  0.56773  1.0000
  H   H685      1.0  0.79998  0.09316  0.59593  1.0000
  H   H686      1.0  0.82952  0.05661  0.61468  1.0000
  H   H687      1.0  0.93526  0.06210  0.57350  1.0000
  H   H688      1.0  0.90591  0.09865  0.55489  1.0000
  C   C856      1.0  0.86771  0.10165  0.92783  1.0000
  C   C857      1.0  0.82956  0.09377  0.93516  1.0000
  C   C858      1.0  0.82634  0.08790  0.95948  1.0000
  C   C859      1.0  0.86104  0.09061  0.97692  1.0000
  C   C860      1.0  0.89906  0.09897  0.96974  1.0000
  C   C861      1.0  0.90258  0.10424  0.94523  1.0000
  H   H689      1.0  0.80229  0.09232  0.92192  1.0000
  H   H690      1.0  0.79679  0.08176  0.96483  1.0000
  H   H691      1.0  0.92596  0.10128  0.98317  1.0000
  H   H692      1.0  0.93204  0.11048  0.93982  1.0000
  C   C862      1.0  0.92966  0.07370  0.77276  1.0000
  C   C863      1.0  0.90754  0.07194  0.74940  1.0000
  C   C864      1.0  0.90804  0.05120  0.73579  1.0000
  C   C865      1.0  0.93110  0.03199  0.74530  1.0000
  C   C866      1.0  0.95293  0.03370  0.76872  1.0000
  C   C867      1.0  0.95217  0.05436  0.78240  1.0000
  H   H693      1.0  0.98447  0.31710  0.68289  1.0000
  H   H694      1.0  0.89083  0.05014  0.71791  1.0000
  C   C868      1.0  0.98413  0.29684  0.73450  1.0000
  H   H695      1.0  0.96925  0.05539  0.80034  1.0000
  H   H696      1.0  0.82661  0.01733  0.57943  1.0000
  H   H697      1.0  0.86701  0.06628  0.86670  1.0000
  H   H698      1.0  0.72835  0.08681  0.55478  1.0000
  H   H699      1.0  0.97078  0.01897  0.77634  1.0000
  H   H700      1.0  0.94381  0.26024  0.75029  1.0000
  H   H701      1.0  0.63097  0.01222  0.79656  1.0000
  H   H702      1.0  0.66167  0.11656  0.97846  1.0000
  H   H703      1.0  0.86927  0.26998  0.64060  1.0000
  Fe  Fe60      1.0  0.88591  0.00672  0.63646  1.0000
  C   C869      1.0  0.91055  0.26450  0.74766  1.0000
  C   C870      1.0  0.91704  0.28816  0.56121  1.0000
  C   C871      1.0  0.95909  0.28099  0.56195  1.0000
  C   C872      1.0  0.96890  0.25869  0.55353  1.0000
  C   C873      1.0  0.93691  0.24326  0.54442  1.0000
  C   C874      1.0  0.89486  0.25039  0.54384  1.0000
  C   C875      1.0  0.88507  0.27271  0.55214  1.0000
  S   S116      1.0  0.97355  0.28369  0.81948  1.0000
  C   C876      1.0  0.81047  0.03553  0.90557  1.0000
  H   H704      1.0  0.55978  0.02525  0.97652  1.0000
  H   H705      1.0  0.85243  0.27804  0.55152  1.0000
  C   C877      1.0  0.87039  0.28876  0.83688  1.0000
  H   H706      1.0  0.87311  0.27536  0.68493  1.0000
  C   C878      1.0  0.55714  0.11051  0.00801  1.0000
  C   C879      1.0  0.75633  0.04524  0.53847  1.0000
  C   C880      1.0  0.94467  0.13893  0.74453  1.0000
  C   C881      1.0  0.98422  0.05098  0.68274  1.0000
  H   H707      1.0  0.84023  0.30342  0.72007  1.0000
  H   H708      1.0  0.92220  0.28818  0.61727  1.0000
  C   C882      1.0  0.75936  0.01684  0.57972  1.0000
  H   H709      1.0  0.79097  0.27894  0.74000  1.0000
  C   C883      1.0  0.92934  0.29658  0.68737  1.0000
  H   H710      1.0  0.71348  0.12778  0.56291  1.0000
  C   C884      1.0  0.97051  0.23600  0.82239  1.0000
  C   C885      1.0  0.55693  0.12032  0.98483  1.0000
  C   C886      1.0  0.59439  0.12224  0.97406  1.0000
  C   C887      1.0  0.63247  0.11489  0.98660  1.0000
  H   H711      1.0  0.94886  0.05986  0.95867  1.0000
  C   C888      1.0  0.83943  0.25593  0.75618  1.0000
  H   H712      1.0  0.71839  0.15747  0.53108  1.0000
  H   H713      1.0  0.95652  0.17874  0.59593  1.0000
  C   C889      1.0  0.89683  0.28325  0.67519  1.0000
  C   C890      1.0  0.98269  0.04944  0.92888  1.0000
  C   C891      1.0  0.89565  0.28364  0.73354  1.0000
  P   P29       1.0  0.85476  0.02316  0.89226  1.0000
  H   H714      1.0  0.72473  0.07065  0.89249  1.0000
  H   H715      1.0  0.88011  0.04690  0.93940  1.0000
  C   C892      1.0  0.89450  0.28012  0.65002  1.0000
  C   C893      1.0  0.74107  0.09260  0.51764  1.0000
  S   S117      1.0  0.84878  0.01140  0.66849  1.0000
  H   H716      1.0  0.91412  0.04108  0.53192  1.0000
  C   C894      1.0  0.88846  0.29315  0.88018  1.0000
  C   C895      1.0  0.99034  0.28374  0.90996  1.0000
  H   H717      1.0  0.87749  0.14306  0.74292  1.0000
  H   H718      1.0  0.79729  0.29491  0.94515  1.0000
  H   H719      1.0  0.62832  0.04315  0.82755  1.0000
  C   C896      1.0  0.86261  0.05793  0.82873  1.0000
  S   S118      1.0  0.68197  0.01802  0.97446  1.0000
  S   S119      1.0  0.83986  0.18154  0.52527  1.0000
  C   C897      1.0  0.71900  0.03869  0.54784  1.0000
  H   H720      1.0  0.86991  0.23875  0.53689  1.0000
  C   C898      1.0  0.57217  0.02784  0.99526  1.0000
  C   C899      1.0  0.98607  0.25653  0.83384  1.0000
  H   H721      1.0  0.61501  0.05445  0.98635  1.0000
  C   C900      1.0  0.90355  0.13819  0.73297  1.0000
  H   H722      1.0  0.81781  0.24529  0.76503  1.0000
  C   C901      1.0  0.83024  0.29003  0.94855  1.0000
  S   S120      1.0  0.93414  0.00557  0.72878  1.0000
  H   H723      1.0  0.71060  0.05727  0.93346  1.0000
  C   C902      1.0  0.79319  0.11364  0.64520  1.0000
  C   C903      1.0  0.78017  0.09141  0.65083  1.0000
  C   C904      1.0  0.80960  0.07528  0.66116  1.0000
  C   C905      1.0  0.85218  0.08125  0.66555  1.0000
  C   C906      1.0  0.86564  0.10344  0.65957  1.0000
  C   C907      1.0  0.83566  0.11974  0.64976  1.0000
  P   P30       1.0  0.92036  0.11157  0.66604  1.0000
  C   C908      1.0  0.92971  0.12313  0.69646  1.0000
  C   C909      1.0  0.95238  0.08584  0.66399  1.0000
  C   C910      1.0  0.96139  0.07154  0.68440  1.0000
  C   C911      1.0  0.87469  0.30276  0.85756  1.0000
  H   H724      1.0  0.88988  0.08672  0.74177  1.0000
  H   H725      1.0  0.59620  0.03523  0.86544  1.0000
  C   C912      1.0  0.96660  0.07919  0.64190  1.0000
  H   H726      1.0  0.76038  0.03049  0.95656  1.0000
  C   C913      1.0  0.85243  0.03001  0.86033  1.0000
  H   H727      1.0  0.96731  0.19849  0.82407  1.0000
  H   H728      1.0  0.97908  0.00651  0.59663  1.0000
  C   C914      1.0  0.89601  0.13037  0.70899  1.0000
  C   C915      1.0  0.93317  0.13272  0.64397  1.0000
  C   C916      1.0  0.95854  0.15198  0.65087  1.0000
  H   H729      1.0  0.82345  0.01639  0.93916  1.0000
  C   C917      1.0  0.95031  0.16588  0.60934  1.0000
  C   C918      1.0  0.92516  0.14676  0.60238  1.0000
  C   C919      1.0  0.91669  0.13027  0.61958  1.0000
  H   H730      1.0  0.77046  0.12613  0.63706  1.0000
  C   C920      1.0  0.86091  0.05269  0.85322  1.0000
  C   C921      1.0  0.61705  0.00873  0.81314  1.0000
  H   H731      1.0  0.87438  0.06840  0.67341  1.0000
  H   H732      1.0  0.84505  0.13711  0.64541  1.0000
  H   H733      1.0  0.86123  0.29639  0.81924  1.0000
  C   C922      1.0  0.72403  0.13935  0.52726  1.0000
  C   C923      1.0  0.00127  0.24618  0.92901  1.0000
  C   C924      1.0  0.72959  0.09929  0.54040  1.0000
  H   H734      1.0  0.95897  0.08932  0.62564  1.0000
  C   C925      1.0  0.99856  0.04463  0.66075  1.0000
  C   C926      1.0  0.84697  0.01799  0.81800  1.0000
  C   C927      1.0  0.87951  0.26509  0.83882  1.0000
  Fe  Fe61      1.0  0.98331  0.32118  0.83295  1.0000
  H   H735      1.0  0.86385  0.12959  0.70056  1.0000
  S   S121      1.0  0.95115  0.21554  0.53357  1.0000
  C   C928      1.0  0.92169  0.00737  0.54833  1.0000
  H   H736      1.0  0.86836  0.32122  0.85595  1.0000
  H   H737      1.0  0.91175  0.14483  0.58365  1.0000
  H   H738      1.0  0.89690  0.11568  0.61392  1.0000
  C   C929      1.0  0.72057  0.02460  0.56842  1.0000
  H   H739      1.0  0.93907  0.02444  0.87669  1.0000
  H   H740      1.0  0.87013  0.07540  0.82342  1.0000
  C   C930      1.0  0.79524  0.03753  0.55006  1.0000
  H   H741      1.0  0.94822  0.27269  0.96103  1.0000
  C   C931      1.0  0.82433  0.27487  0.74208  1.0000
  C   C932      1.0  0.94232  0.00523  0.98706  1.0000
  C   C933      1.0  0.85592  0.04058  0.81115  1.0000
  H   H742      1.0  0.90169  0.23721  0.86219  1.0000
  C   C934      1.0  0.95942  0.30656  0.67394  1.0000
  S   S122      1.0  0.92527  0.14951  0.52771  1.0000
  H   H743      1.0  0.82462  0.04257  0.54360  1.0000
  H   H744      1.0  0.87757  0.25442  0.82265  1.0000
  C   C935      1.0  0.80227  0.02827  0.92875  1.0000
  C   C936      1.0  0.97837  0.13194  0.73213  1.0000
  C   C937      1.0  0.95691  0.30348  0.64881  1.0000
  H   H745      1.0  0.85828  0.04465  0.79225  1.0000
  H   H746      1.0  0.91344  0.29335  0.99235  1.0000
  P   P31       1.0  0.93158  0.30222  0.71966  1.0000
  S   S123      1.0  0.79901  0.02563  0.00938  1.0000
  C   C938      1.0  0.90424  0.03429  0.90661  1.0000
  H   H747      1.0  0.98402  0.29265  0.56885  1.0000
  H   H748      1.0  0.94990  0.07592  0.70150  1.0000
  H   H749      1.0  0.90390  0.32593  0.76208  1.0000
  H   H750      1.0  0.83156  0.27418  0.91356  1.0000
  C   C939      1.0  0.96707  0.16846  0.63357  1.0000
  C   C940      1.0  0.88249  0.25075  0.75893  1.0000
  H   H751      1.0  0.59405  0.12978  0.95618  1.0000
  C   C941      1.0  0.61547  0.02617  0.83057  1.0000
  H   H752      1.0  0.89250  0.30448  0.89585  1.0000
  C   C942      1.0  0.79659  0.02323  0.57048  1.0000
  H   H753      1.0  0.83100  0.08822  0.52385  1.0000
  H   H754      1.0  0.96863  0.01271  0.97918  1.0000
  H   H755      1.0  0.79952  0.05804  0.66553  1.0000
  C   C943      1.0  0.94669  0.05179  0.94093  1.0000
  H   H756      1.0  0.97982  0.31167  0.63858  1.0000
  C   C944      1.0  0.93106  0.02473  0.53228  1.0000
  H   H757      1.0  0.78769  0.05691  0.87472  1.0000
  H   H758      1.0  0.95026  0.14428  0.76338  1.0000
  C   C945      1.0  0.94068  0.03192  0.89471  1.0000
  Fe  Fe62      1.0  0.99310  0.14845  0.86188  1.0000
  S   S124      1.0  0.92817  0.10036  0.78904  1.0000
  C   C946      1.0  0.86307  0.19457  0.92391  1.0000
  C   C947      1.0  0.88783  0.17888  0.91238  1.0000
  C   C948      1.0  0.92160  0.18694  0.90081  1.0000
  C   C949      1.0  0.93066  0.21061  0.90078  1.0000
  C   C950      1.0  0.90623  0.22654  0.91240  1.0000
  C   C951      1.0  0.87206  0.21832  0.92386  1.0000
  P   P32       1.0  0.91772  0.25727  0.91151  1.0000
  C   C952      1.0  0.97386  0.26257  0.91692  1.0000
  C   C953      1.0  0.89805  0.26936  0.88231  1.0000
  Fe  Fe63      1.0  0.72892  0.03118  0.00516  1.0000
  H   H759      1.0  0.97259  0.31300  0.76857  1.0000
  C   C954      1.0  0.89346  0.25541  0.86140  1.0000
  H   H760      1.0  0.69171  0.01965  0.57563  1.0000
  C   C955      1.0  0.97965  0.03938  0.90585  1.0000
  C   C956      1.0  0.99484  0.30381  0.75867  1.0000
  H   H761      1.0  0.98967  0.03967  0.69839  1.0000
  C   C957      1.0  0.97980  0.21407  0.83301  1.0000
  C   C958      1.0  0.89257  0.27213  0.93482  1.0000
  C   C959      1.0  0.84979  0.27835  0.93066  1.0000
  C   C960      1.0  0.72106  0.12259  0.54513  1.0000
  C   C961      1.0  0.85318  0.29547  0.97075  1.0000
  C   C962      1.0  0.89565  0.28915  0.97512  1.0000
  C   C963      1.0  0.91532  0.27746  0.95726  1.0000
  H   H762      1.0  0.83681  0.18825  0.93280  1.0000
  H   H763      1.0  0.88083  0.16046  0.91229  1.0000
  H   H764      1.0  0.94075  0.17482  0.89175  1.0000
  H   H765      1.0  0.95676  0.21651  0.89163  1.0000
  H   H766      1.0  0.85226  0.23007  0.93280  1.0000
  C   C964      1.0  0.92441  0.29031  0.63682  1.0000
  C   C965      1.0  0.73831  0.05125  0.92556  1.0000
  S   S125      1.0  0.99362  0.12586  0.89535  1.0000
  H   H767      1.0  0.99186  0.05262  0.00111  1.0000
  C   C966      1.0  0.91555  0.33185  0.72479  1.0000
  H   H768      1.0  0.99740  0.11844  0.69890  1.0000
  H   H769      1.0  0.89738  0.01023  0.56021  1.0000
  H   H770      1.0  0.97148  0.15450  0.66952  1.0000
  C   C967      1.0  0.63305  0.10581  0.00993  1.0000
  H   H771      1.0  0.76065  0.00595  0.59571  1.0000
  H   H772      1.0  0.98639  0.18338  0.63895  1.0000
  C   C968      1.0  0.96256  0.02111  0.51699  1.0000
  H   H773      1.0  0.52781  0.12676  0.97525  1.0000
  H   H774      1.0  0.83804  0.30458  0.98459  1.0000
  C   C969      1.0  0.60345  0.04447  0.00074  1.0000
  H   H775      1.0  0.99943  0.05334  0.62308  1.0000
  H   H776      1.0  0.00591  0.27750  0.70458  1.0000
  C   C970      1.0  0.00585  0.21235  0.85493  1.0000
  S   S126      1.0  0.73336  0.06978  0.01147  1.0000
  H   H777      1.0  0.84217  0.00456  0.80428  1.0000
  P   P33       1.0  0.86875  0.42148  0.49485  1.0000
  S   S127      1.0  0.83366  0.57261  0.45981  1.0000
  C   C971      1.0  0.52026  0.53752  0.13855  1.0000
  S   S128      1.0  0.68955  0.48892  0.48506  1.0000
  C   C972      1.0  0.52958  0.53951  0.49258  1.0000
  S   S129      1.0  0.72376  0.55633  0.48454  1.0000
  H   H778      1.0  0.55261  0.57793  0.16417  1.0000
  C   C973      1.0  0.98141  0.40199  0.47165  1.0000
  S   S130      1.0  0.57209  0.48347  0.38471  1.0000
  C   C974      1.0  0.65349  0.43509  0.39756  1.0000
  Fe  Fe64      1.0  0.60346  0.64557  0.06230  1.0000
  S   S131      1.0  0.66994  0.63301  0.06013  1.0000
  S   S132      1.0  0.55694  0.61768  0.07162  1.0000
  C   C975      1.0  0.62833  0.39802  0.41078  1.0000
  C   C976      1.0  0.53233  0.58053  0.17831  1.0000
  C   C977      1.0  0.50775  0.41125  0.46685  1.0000
  C   C978      1.0  0.56518  0.52790  0.10749  1.0000
  C   C979      1.0  0.50794  0.63858  0.10435  1.0000
  C   C980      1.0  0.70784  0.37852  0.44864  1.0000
  C   C981      1.0  0.52268  0.59089  0.01491  1.0000
  H   H779      1.0  0.91523  0.55261  0.48489  1.0000
  H   H780      1.0  0.61147  0.57614  0.12044  1.0000
  H   H781      1.0  0.79862  0.46440  0.42439  1.0000
  H   H782      1.0  0.72625  0.35716  0.01649  1.0000
  C   C982      1.0  0.86354  0.37502  0.50892  1.0000
  C   C983      1.0  0.63120  0.43183  0.37469  1.0000
  H   H783      1.0  0.61519  0.51632  0.16339  1.0000
  H   H784      1.0  0.66399  0.65622  0.13558  1.0000
  H   H785      1.0  0.71072  0.62691  0.12127  1.0000
  C   C984      1.0  0.95121  0.41137  0.48536  1.0000
  C   C985      1.0  0.61133  0.34879  0.42405  1.0000
  Fe  Fe65      1.0  0.73223  0.51944  0.49688  1.0000
  H   H786      1.0  0.86100  0.60580  0.49865  1.0000
  C   C986      1.0  0.74010  0.37293  0.48984  1.0000
  P   P34       1.0  0.62108  0.37806  0.43492  1.0000
  S   S133      1.0  0.51104  0.42508  0.39862  1.0000
  C   C987      1.0  0.77658  0.60467  0.06223  1.0000
  H   H787      1.0  0.57574  0.33896  0.45350  1.0000
  C   C988      1.0  0.87021  0.59599  0.46216  1.0000
  C   C989      1.0  0.89218  0.60119  0.44218  1.0000
  C   C990      1.0  0.92040  0.62003  0.44290  1.0000
  C   C991      1.0  0.92697  0.63395  0.46366  1.0000
  C   C992      1.0  0.90549  0.62852  0.48376  1.0000
  C   C993      1.0  0.87749  0.60959  0.48311  1.0000
  H   H788      1.0  0.88686  0.59079  0.42589  1.0000
  H   H789      1.0  0.93639  0.62403  0.42722  1.0000
  H   H790      1.0  0.71952  0.58508  0.05890  1.0000
  H   H791      1.0  0.52129  0.61662  0.16947  1.0000
  C   C994      1.0  0.65687  0.48791  0.45718  1.0000
  C   C995      1.0  0.66318  0.50265  0.43796  1.0000
  C   C996      1.0  0.63700  0.50103  0.41587  1.0000
  C   C997      1.0  0.60428  0.48472  0.41279  1.0000
  C   C998      1.0  0.59809  0.46989  0.43200  1.0000
  C   C999      1.0  0.62448  0.47141  0.45403  1.0000
  H   H792      1.0  0.68830  0.51527  0.44010  1.0000
  H   H793      1.0  0.64205  0.51254  0.40110  1.0000
  H   H794      1.0  0.57314  0.45720  0.42984  1.0000
  H   H795      1.0  0.61956  0.45990  0.46879  1.0000
  H   H796      1.0  0.53073  0.51248  0.23523  1.0000
  C   C1000     1.0  0.74392  0.37691  0.46534  1.0000
  Fe  Fe66      1.0  0.66423  0.65034  0.02376  1.0000
  H   H797      1.0  0.86296  0.39889  0.44721  1.0000
  C   C1001     1.0  0.77533  0.60101  0.11240  1.0000
  H   H798      1.0  0.76199  0.51613  0.18549  1.0000
  H   H799      1.0  0.77649  0.60657  0.04277  1.0000
  H   H800      1.0  0.80477  0.52420  0.15175  1.0000
  C   C1002     1.0  0.68036  0.53677  0.08161  1.0000
  C   C1003     1.0  0.75694  0.38617  0.03541  1.0000
  C   C1004     1.0  0.65840  0.52409  0.06272  1.0000
  C   C1005     1.0  0.60735  0.41179  0.36985  1.0000
  H   H801      1.0  0.51755  0.49154  0.03118  1.0000
  C   C1006     1.0  0.62564  0.53453  0.04771  1.0000
  C   C1007     1.0  0.61473  0.55759  0.05166  1.0000
  H   H802      1.0  0.86133  0.47282  0.49193  1.0000
  H   H803      1.0  0.63346  0.36966  0.48730  1.0000
  H   H804      1.0  0.77775  0.55048  0.11862  1.0000
  H   H805      1.0  0.77474  0.60032  0.13188  1.0000
  H   H806      1.0  0.71132  0.38126  0.42965  1.0000
  C   C1008     1.0  0.67954  0.62169  0.12469  1.0000
  C   C1009     1.0  0.52254  0.56198  0.19299  1.0000
  H   H807      1.0  0.62853  0.58834  0.07268  1.0000
  C   C1010     1.0  0.74420  0.59245  0.07152  1.0000
  H   H808      1.0  0.67052  0.45108  0.40154  1.0000
  H   H809      1.0  0.62782  0.54291  0.45692  1.0000
  C   C1011     1.0  0.52681  0.53609  0.11409  1.0000
  H   H810      1.0  0.66722  0.42188  0.43365  1.0000
  C   C1012     1.0  0.55171  0.53023  0.15671  1.0000
  C   C1013     1.0  0.80759  0.61325  0.10304  1.0000
  H   H811      1.0  0.83254  0.62519  0.07080  1.0000
  C   C1014     1.0  0.54045  0.43702  0.15185  1.0000
  C   C1015     1.0  0.63672  0.57030  0.07039  1.0000
  H   H812      1.0  0.72729  0.46131  0.43780  1.0000
  C   C1016     1.0  0.66952  0.55999  0.08562  1.0000
  S   S134      1.0  0.96044  0.65868  0.46532  1.0000
  C   C1017     1.0  0.53572  0.38252  0.44089  1.0000
  Fe  Fe67      1.0  0.69194  0.66766  0.07551  1.0000
  C   C1018     1.0  0.57692  0.38987  0.44860  1.0000
  C   C1019     1.0  0.65293  0.63854  0.13296  1.0000
  C   C1020     1.0  0.89598  0.40029  0.45400  1.0000
  H   H813      1.0  0.59093  0.64604  0.14283  1.0000
  H   H814      1.0  0.77488  0.37866  0.45929  1.0000
  H   H815      1.0  0.83150  0.62194  0.11520  1.0000
  H   H816      1.0  0.51311  0.49127  0.49727  1.0000
  C   C1021     1.0  0.50682  0.50588  0.22161  1.0000
  C   C1022     1.0  0.92631  0.39099  0.44029  1.0000
  H   H817      1.0  0.63110  0.44526  0.36106  1.0000
  H   H818      1.0  0.88006  0.37050  0.49355  1.0000
  H   H819      1.0  0.61439  0.41506  0.47036  1.0000
  S   S135      1.0  0.51612  0.37380  0.34860  1.0000
  H   H820      1.0  0.58895  0.40951  0.35238  1.0000
  C   C1023     1.0  0.75394  0.45285  0.44804  1.0000
  C   C1024     1.0  0.70024  0.37043  0.49767  1.0000
  H   H821      1.0  0.97189  0.47665  0.46105  1.0000
  H   H822      1.0  0.64703  0.35202  0.39317  1.0000
  C   C1025     1.0  0.77299  0.40848  0.03324  1.0000
  H   H823      1.0  0.89798  0.48796  0.44704  1.0000
  C   C1026     1.0  0.98529  0.50818  0.48131  1.0000
  C   C1027     1.0  0.82337  0.43261  0.47590  1.0000
  S   S136      1.0  0.80298  0.52054  0.49796  1.0000
  H   H824      1.0  0.00279  0.63022  0.28515  1.0000
  C   C1028     1.0  0.60030  0.54209  0.46671  1.0000
  C   C1029     1.0  0.80811  0.61517  0.07798  1.0000
  C   C1030     1.0  0.56587  0.52846  0.45794  1.0000
  C   C1031     1.0  0.73821  0.37457  0.01486  1.0000
  C   C1032     1.0  0.54085  0.48921  0.01856  1.0000
  C   C1033     1.0  0.59685  0.52077  0.12538  1.0000
  H   H825      1.0  0.76801  0.37155  0.50275  1.0000
  H   H826      1.0  0.85996  0.44678  0.44881  1.0000
  C   C1034     1.0  0.74822  0.44084  0.46924  1.0000
  C   C1035     1.0  0.59316  0.53009  0.20733  1.0000
  C   C1036     1.0  0.61605  0.54960  0.21629  1.0000
  C   C1037     1.0  0.65403  0.54684  0.23119  1.0000
  C   C1038     1.0  0.66951  0.52464  0.23713  1.0000
  C   C1039     1.0  0.64715  0.50514  0.22804  1.0000
  C   C1040     1.0  0.60914  0.50783  0.21314  1.0000
  H   H827      1.0  0.58517  0.38028  0.38421  1.0000
  C   C1041     1.0  0.60553  0.39510  0.38790  1.0000
  H   H828      1.0  0.91668  0.38281  0.42296  1.0000
  C   C1042     1.0  0.66764  0.37645  0.45645  1.0000
  C   C1043     1.0  0.59012  0.52180  0.14989  1.0000
  C   C1044     1.0  0.58307  0.40837  0.46511  1.0000
  C   C1045     1.0  0.90824  0.41095  0.47646  1.0000
  H   H829      1.0  0.99065  0.62786  0.24023  1.0000
  H   H830      1.0  0.60917  0.52495  0.03273  1.0000
  C   C1046     1.0  0.90224  0.52086  0.46544  1.0000
  P   P35       1.0  0.54374  0.53339  0.18842  1.0000
  H   H831      1.0  0.78823  0.41729  0.04910  1.0000
  H   H832      1.0  0.60453  0.56696  0.21206  1.0000
  H   H833      1.0  0.67127  0.56196  0.23834  1.0000
  H   H834      1.0  0.69869  0.52256  0.24894  1.0000
  H   H835      1.0  0.65902  0.48793  0.23281  1.0000
  H   H836      1.0  0.53029  0.60835  0.02124  1.0000
  H   H837      1.0  0.56535  0.60603  0.13539  1.0000
  H   H838      1.0  0.62566  0.56575  0.49462  1.0000
  H   H839      1.0  0.59195  0.49258  0.20635  1.0000
  H   H840      1.0  0.70622  0.52857  0.09271  1.0000
  H   H841      1.0  0.66727  0.50632  0.05939  1.0000
  H   H842      1.0  0.62673  0.51461  0.12023  1.0000
  H   H843      1.0  0.66432  0.56103  0.15324  1.0000
  H   H844      1.0  0.69165  0.53453  0.18591  1.0000
  H   H845      1.0  0.71712  0.44007  0.47534  1.0000
  C   C1047     1.0  0.82881  0.44460  0.45445  1.0000
  C   C1048     1.0  0.53046  0.52736  0.47065  1.0000
  C   C1049     1.0  0.78274  0.43087  0.48321  1.0000
  C   C1050     1.0  0.92782  0.53585  0.48037  1.0000
  H   H846      1.0  0.87033  0.52610  0.45890  1.0000
  C   C1051     1.0  0.96902  0.39189  0.44908  1.0000
  H   H847      1.0  0.52375  0.65463  0.10105  1.0000
  C   C1052     1.0  0.91792  0.49944  0.45868  1.0000
  H   H848      1.0  0.56666  0.51876  0.44125  1.0000
  H   H849      1.0  0.52985  0.36938  0.42694  1.0000
  C   C1053     1.0  0.59912  0.55490  0.48801  1.0000
  H   H850      1.0  0.58006  0.46706  0.04287  1.0000
  H   H851      1.0  0.91017  0.63918  0.49989  1.0000
  C   C1054     1.0  0.53123  0.45800  0.13981  1.0000
  C   C1055     1.0  0.65164  0.41842  0.41568  1.0000
  C   C1056     1.0  0.62387  0.59333  0.12438  1.0000
  C   C1057     1.0  0.74293  0.59084  0.09671  1.0000
  C   C1058     1.0  0.59759  0.61018  0.13300  1.0000
  C   C1059     1.0  0.79420  0.45466  0.44059  1.0000
  C   C1060     1.0  0.66529  0.59889  0.12026  1.0000
  H   H852      1.0  0.75944  0.37775  0.05297  1.0000
  Fe  Fe68      1.0  0.79500  0.55859  0.48893  1.0000
  H   H853      1.0  0.58977  0.56589  0.03993  1.0000
  C   C1061     1.0  0.61193  0.63281  0.13709  1.0000
  C   C1062     1.0  0.77403  0.53223  0.15195  1.0000
  C   C1063     1.0  0.74991  0.52766  0.17094  1.0000
  C   C1064     1.0  0.71032  0.53805  0.17119  1.0000
  C   C1065     1.0  0.69496  0.55317  0.15258  1.0000
  C   C1066     1.0  0.71928  0.55815  0.13360  1.0000
  C   C1067     1.0  0.75871  0.54728  0.13327  1.0000
  P   P36       1.0  0.69914  0.57699  0.10898  1.0000
  H   H854      1.0  0.55346  0.43358  0.48651  1.0000
  C   C1068     1.0  0.51511  0.60253  0.18145  1.0000
  H   H855      1.0  0.55627  0.46832  0.13372  1.0000
  H   H856      1.0  0.97529  0.58693  0.47426  1.0000
  C   C1069     1.0  0.51795  0.61839  0.09213  1.0000
  C   C1070     1.0  0.54859  0.41896  0.47425  1.0000
  C   C1071     1.0  0.56377  0.55386  0.50077  1.0000
  H   H857      1.0  0.57276  0.43097  0.15505  1.0000
  H   H858      1.0  0.57038  0.52725  0.08851  1.0000
  C   C1072     1.0  0.95948  0.49311  0.46657  1.0000
  C   C1073     1.0  0.88237  0.46814  0.50778  1.0000
  H   H859      1.0  0.96178  0.41855  0.50301  1.0000
  Fe  Fe69      1.0  0.51838  0.45774  0.37781  1.0000
  C   C1074     1.0  0.96921  0.52934  0.48898  1.0000
  H   H860      1.0  0.77750  0.42237  0.49993  1.0000
  C   C1075     1.0  0.57645  0.47550  0.02534  1.0000
  C   C1076     1.0  0.62795  0.34082  0.40308  1.0000
  C   C1077     1.0  0.66410  0.37203  0.48102  1.0000
  H   H861      1.0  0.51558  0.40749  0.16892  1.0000
  H   H862      1.0  0.99250  0.38447  0.43859  1.0000
  S   S137      1.0  0.59668  0.66111  0.02483  1.0000
  H   H863      1.0  0.50928  0.52843  0.40421  1.0000
  C   C1078     1.0  0.50957  0.34519  0.35944  1.0000
  P   P37       1.0  0.00298  0.54917  0.50722  1.0000
  H   H864      1.0  0.63434  0.46160  0.01446  1.0000
  C   C1079     1.0  0.50795  0.42373  0.15964  1.0000
  C   C1080     1.0  0.50612  0.51243  0.19715  1.0000
  S   S138      1.0  0.79878  0.57041  0.52775  1.0000
  C   C1081     1.0  0.54321  0.44625  0.93954  1.0000
  Fe  Fe70      1.0  0.72846  0.56509  0.52439  1.0000
  S   S139      1.0  0.67759  0.58841  0.53721  1.0000
  S   S140      1.0  0.85217  0.52030  0.56645  1.0000
  Fe  Fe71      1.0  0.69777  0.47743  0.88912  1.0000
  S   S141      1.0  0.64339  0.47578  0.85967  1.0000
  S   S142      1.0  0.76526  0.46420  0.88575  1.0000
  Fe  Fe72      1.0  0.64894  0.51179  0.91992  1.0000
  S   S143      1.0  0.59215  0.51231  0.89211  1.0000
  S   S144      1.0  0.64393  0.52956  0.95640  1.0000
  Fe  Fe73      1.0  0.60203  0.47370  0.89044  1.0000
  S   S145      1.0  0.54504  0.44972  0.88961  1.0000
  Fe  Fe74      1.0  0.63810  0.51447  0.86416  1.0000
  S   S146      1.0  0.64351  0.54186  0.83508  1.0000
  S   S147      1.0  0.65675  0.47290  0.91963  1.0000
  S   S148      1.0  0.69442  0.51641  0.89237  1.0000
  H   H865      1.0  0.52171  0.48693  0.75544  1.0000
  C   C1082     1.0  0.76986  0.41932  0.01058  1.0000
  Fe  Fe75      1.0  0.91517  0.39547  0.60523  1.0000
  S   S149      1.0  0.85483  0.41661  0.60462  1.0000
  S   S150      1.0  0.93052  0.38117  0.56980  1.0000
  Fe  Fe76      1.0  0.93334  0.36442  0.84895  1.0000
  H   H866      1.0  0.72295  0.42299  0.90850  1.0000
  S   S151      1.0  0.86546  0.37281  0.85724  1.0000
  C   C1083     1.0  0.76868  0.49020  0.94877  1.0000
  Fe  Fe77      1.0  0.59587  0.60175  0.66499  1.0000
  S   S152      1.0  0.55942  0.63311  0.65087  1.0000
  S   S153      1.0  0.65132  0.58518  0.64907  1.0000
  Fe  Fe78      1.0  0.54440  0.59555  0.70800  1.0000
  C   C1084     1.0  0.71985  0.64495  0.88626  1.0000
  H   H867      1.0  0.56194  0.59248  0.98589  1.0000
  C   C1085     1.0  0.62537  0.61685  0.83469  1.0000
  Fe  Fe79      1.0  0.56271  0.64471  0.68983  1.0000
  S   S154      1.0  0.53894  0.58050  0.67026  1.0000
  S   S155      1.0  0.60425  0.61458  0.70366  1.0000
  H   H868      1.0  0.78996  0.45791  0.93536  1.0000
  H   H869      1.0  0.66845  0.63820  0.81694  1.0000
  C   C1086     1.0  0.86206  0.39232  0.92581  1.0000
  C   C1087     1.0  0.67161  0.65367  0.62050  1.0000
  H   H870      1.0  0.62807  0.64127  0.90391  1.0000
  C   C1088     1.0  0.61145  0.54878  0.80787  1.0000
  C   C1089     1.0  0.62819  0.56308  0.79086  1.0000
  C   C1090     1.0  0.60370  0.56995  0.76937  1.0000
  C   C1091     1.0  0.56164  0.56307  0.76502  1.0000
  C   C1092     1.0  0.54489  0.54864  0.78198  1.0000
  C   C1093     1.0  0.56977  0.54132  0.80321  1.0000
  H   H871      1.0  0.66019  0.56910  0.79446  1.0000
  H   H872      1.0  0.61701  0.58100  0.75648  1.0000
  H   H873      1.0  0.82613  0.34885  0.55712  1.0000
  H   H874      1.0  0.55647  0.53035  0.81616  1.0000
  H   H875      1.0  0.88183  0.39545  0.73675  1.0000
  S   S156      1.0  0.52862  0.57203  0.73886  1.0000
  H   H876      1.0  0.54528  0.55262  0.97143  1.0000
  C   C1094     1.0  0.79203  0.43891  0.87629  1.0000
  C   C1095     1.0  0.83637  0.43915  0.87747  1.0000
  C   C1096     1.0  0.85928  0.41950  0.87085  1.0000
  C   C1097     1.0  0.83819  0.39908  0.86325  1.0000
  C   C1098     1.0  0.79380  0.39893  0.86181  1.0000
  C   C1099     1.0  0.77085  0.41872  0.86801  1.0000
  H   H877      1.0  0.85326  0.45461  0.88376  1.0000
  H   H878      1.0  0.89333  0.41995  0.87224  1.0000
  H   H879      1.0  0.77703  0.38331  0.85597  1.0000
  H   H880      1.0  0.73683  0.41823  0.86654  1.0000
  C   C1100     1.0  0.65649  0.55848  0.96527  1.0000
  C   C1101     1.0  0.67767  0.57337  0.95096  1.0000
  C   C1102     1.0  0.68649  0.59632  0.95870  1.0000
  C   C1103     1.0  0.67430  0.60457  0.98082  1.0000
  C   C1104     1.0  0.65352  0.58956  0.99524  1.0000
  C   C1105     1.0  0.64481  0.56662  0.98750  1.0000
  H   H881      1.0  0.68700  0.56719  0.93393  1.0000
  H   H882      1.0  0.90214  0.60809  0.56014  1.0000
  C   C1106     1.0  0.73518  0.38534  0.99217  1.0000
  C   C1107     1.0  0.67056  0.58817  0.56834  1.0000
  C   C1108     1.0  0.70197  0.57949  0.58548  1.0000
  C   C1109     1.0  0.69562  0.57916  0.61013  1.0000
  C   C1110     1.0  0.65775  0.58710  0.61790  1.0000
  C   C1111     1.0  0.62638  0.59610  0.60082  1.0000
  C   C1112     1.0  0.63287  0.59667  0.57608  1.0000
  H   H883      1.0  0.73121  0.57305  0.57975  1.0000
  H   H884      1.0  0.72026  0.57278  0.62329  1.0000
  H   H885      1.0  0.59720  0.60251  0.60665  1.0000
  H   H886      1.0  0.60847  0.60343  0.56286  1.0000
  C   C1113     1.0  0.85129  0.49157  0.57721  1.0000
  C   C1114     1.0  0.88468  0.48382  0.59384  1.0000
  C   C1115     1.0  0.88677  0.46063  0.60161  1.0000
  C   C1116     1.0  0.85449  0.44528  0.59358  1.0000
  C   C1117     1.0  0.81992  0.45334  0.57791  1.0000
  C   C1118     1.0  0.81872  0.47630  0.56932  1.0000
  H   H887      1.0  0.91283  0.45470  0.61424  1.0000
  H   H888      1.0  0.79427  0.44171  0.57215  1.0000
  H   H889      1.0  0.79263  0.48219  0.55668  1.0000
  H   H890      1.0  0.90934  0.49578  0.60035  1.0000
  S   S157      1.0  0.92080  0.36063  0.62341  1.0000
  C   C1119     1.0  0.64029  0.48784  0.54483  1.0000
  C   C1120     1.0  0.63111  0.51016  0.53606  1.0000
  C   C1121     1.0  0.63485  0.52904  0.55196  1.0000
  C   C1122     1.0  0.64806  0.52565  0.57658  1.0000
  C   C1123     1.0  0.65705  0.50328  0.58563  1.0000
  C   C1124     1.0  0.65299  0.48433  0.56953  1.0000
  P   P38       1.0  0.67494  0.49927  0.61748  1.0000
  C   C1125     1.0  0.71927  0.51813  0.62580  1.0000
  C   C1126     1.0  0.63353  0.50542  0.63651  1.0000
  C   C1127     1.0  0.59887  0.51950  0.62831  1.0000
  C   C1128     1.0  0.56809  0.52477  0.64361  1.0000
  C   C1129     1.0  0.57153  0.51599  0.66720  1.0000
  C   C1130     1.0  0.60561  0.50173  0.67543  1.0000
  C   C1131     1.0  0.63655  0.49657  0.66022  1.0000
  C   C1132     1.0  0.72561  0.52815  0.64905  1.0000
  C   C1133     1.0  0.76142  0.54152  0.65586  1.0000
  C   C1134     1.0  0.79098  0.54515  0.63946  1.0000
  C   C1135     1.0  0.78452  0.53561  0.61619  1.0000
  C   C1136     1.0  0.74884  0.52218  0.60933  1.0000
  C   C1137     1.0  0.69264  0.46962  0.62224  1.0000
  C   C1138     1.0  0.73474  0.46335  0.62025  1.0000
  C   C1139     1.0  0.74780  0.44029  0.62341  1.0000
  C   C1140     1.0  0.71906  0.42327  0.62839  1.0000
  C   C1141     1.0  0.67702  0.42928  0.63010  1.0000
  C   C1142     1.0  0.66376  0.45233  0.62689  1.0000
  H   H891      1.0  0.86221  0.33950  0.52112  1.0000
  H   H892      1.0  0.96233  0.62448  0.54108  1.0000
  H   H893      1.0  0.62900  0.54644  0.54507  1.0000
  H   H894      1.0  0.65169  0.54051  0.58855  1.0000
  H   H895      1.0  0.66044  0.46690  0.57573  1.0000
  H   H896      1.0  0.59545  0.52666  0.61029  1.0000
  H   H897      1.0  0.54172  0.53592  0.63724  1.0000
  H   H898      1.0  0.54785  0.52039  0.67909  1.0000
  H   H899      1.0  0.60816  0.49478  0.69363  1.0000
  H   H900      1.0  0.66318  0.48593  0.66702  1.0000
  H   H901      1.0  0.70293  0.52596  0.66193  1.0000
  H   H902      1.0  0.76573  0.54949  0.67366  1.0000
  H   H903      1.0  0.81851  0.55571  0.64457  1.0000
  H   H904      1.0  0.80711  0.53870  0.60335  1.0000
  H   H905      1.0  0.74475  0.51474  0.59126  1.0000
  H   H906      1.0  0.75768  0.47601  0.61601  1.0000
  H   H907      1.0  0.78032  0.43557  0.62185  1.0000
  H   H908      1.0  0.72944  0.40540  0.63063  1.0000
  H   H909      1.0  0.65461  0.41600  0.63363  1.0000
  H   H910      1.0  0.63087  0.45660  0.62775  1.0000
  C   C1143     1.0  0.77123  0.46602  0.94817  1.0000
  C   C1144     1.0  0.58407  0.59359  0.92611  1.0000
  C   C1145     1.0  0.75039  0.56641  0.88134  1.0000
  C   C1146     1.0  0.53992  0.65623  0.87318  1.0000
  H   H911      1.0  0.63874  0.47338  0.53225  1.0000
  C   C1147     1.0  0.89022  0.37764  0.73324  1.0000
  P   P39       1.0  0.65893  0.61533  0.86323  1.0000
  C   C1148     1.0  0.91363  0.34845  0.70618  1.0000
  C   C1149     1.0  0.62867  0.60707  0.88757  1.0000
  C   C1150     1.0  0.89139  0.36123  0.75174  1.0000
  C   C1151     1.0  0.56777  0.65304  0.58099  1.0000
  C   C1152     1.0  0.90080  0.37117  0.71039  1.0000
  C   C1153     1.0  0.59414  0.57724  0.90903  1.0000
  C   C1154     1.0  0.61651  0.58388  0.88988  1.0000
  H   H912      1.0  0.78452  0.49372  0.68300  1.0000
  H   H913      1.0  0.57171  0.45644  0.94137  1.0000
  C   C1155     1.0  0.59627  0.61664  0.92408  1.0000
  C   C1156     1.0  0.83358  0.40333  0.53455  1.0000
  C   C1157     1.0  0.70025  0.59404  0.86141  1.0000
  C   C1158     1.0  0.91760  0.43971  0.53504  1.0000
  C   C1159     1.0  0.00552  0.38092  0.74721  1.0000
  H   H914      1.0  0.97752  0.47833  0.60492  1.0000
  H   H915      1.0  0.69943  0.59559  0.82234  1.0000
  H   H916      1.0  0.57665  0.59428  0.84561  1.0000
  H   H917      1.0  0.93135  0.54035  0.53463  1.0000
  C   C1160     1.0  0.78757  0.39126  0.93056  1.0000
  H   H918      1.0  0.75708  0.38343  0.92574  1.0000
  H   H919      1.0  0.58578  0.55926  0.91114  1.0000
  H   H920      1.0  0.62480  0.57085  0.87706  1.0000
  H   H921      1.0  0.62571  0.48103  0.97424  1.0000
  H   H922      1.0  0.82696  0.42113  0.53917  1.0000
  H   H923      1.0  0.67391  0.64998  0.60153  1.0000
  C   C1161     1.0  0.97181  0.56790  0.52443  1.0000
  H   H924      1.0  0.54679  0.53560  0.54986  1.0000
  C   C1162     1.0  0.95584  0.60608  0.53978  1.0000
  C   C1163     1.0  0.91364  0.57315  0.54876  1.0000
  C   C1164     1.0  0.71926  0.58337  0.88262  1.0000
  H   H925      1.0  0.72135  0.37597  0.97631  1.0000
  C   C1165     1.0  0.92198  0.59687  0.55051  1.0000
  C   C1166     1.0  0.56642  0.49679  0.97984  1.0000
  C   C1167     1.0  0.52483  0.54915  0.55360  1.0000
  H   H926      1.0  0.78330  0.43640  0.00913  1.0000
  C   C1168     1.0  0.53073  0.55943  0.98678  1.0000
  C   C1169     1.0  0.53497  0.49938  0.99545  1.0000
  C   C1170     1.0  0.00458  0.47075  0.61551  1.0000
  C   C1171     1.0  0.83272  0.36255  0.54473  1.0000
  H   H927      1.0  0.88349  0.36634  0.76952  1.0000
  H   H928      1.0  0.66257  0.40968  0.97287  1.0000
  H   H929      1.0  0.69741  0.36703  0.51663  1.0000
  C   C1172     1.0  0.72263  0.46373  0.97866  1.0000
  C   C1173     1.0  0.66192  0.41033  0.95334  1.0000
  C   C1174     1.0  0.56471  0.51006  0.74049  1.0000
  C   C1175     1.0  0.55445  0.49090  0.75395  1.0000
  C   C1176     1.0  0.58644  0.47716  0.76581  1.0000
  C   C1177     1.0  0.62869  0.48258  0.76420  1.0000
  C   C1178     1.0  0.63933  0.50206  0.75100  1.0000
  C   C1179     1.0  0.60689  0.51578  0.73917  1.0000
  P   P40       1.0  0.69416  0.50848  0.74856  1.0000
  C   C1180     1.0  0.72427  0.50059  0.77693  1.0000
  C   C1181     1.0  0.71233  0.49176  0.72408  1.0000
  C   C1182     1.0  0.74441  0.50036  0.71117  1.0000
  C   C1183     1.0  0.69627  0.46950  0.71862  1.0000
  C   C1184     1.0  0.70867  0.50608  0.79896  1.0000
  C   C1185     1.0  0.73103  0.49964  0.82104  1.0000
  C   C1186     1.0  0.76902  0.48748  0.82130  1.0000
  C   C1187     1.0  0.78492  0.48200  0.79947  1.0000
  C   C1188     1.0  0.76277  0.48860  0.77733  1.0000
  C   C1189     1.0  0.70016  0.53908  0.74285  1.0000
  C   C1190     1.0  0.68795  0.54810  0.71961  1.0000
  C   C1191     1.0  0.69153  0.57180  0.71520  1.0000
  C   C1192     1.0  0.70735  0.58671  0.73384  1.0000
  C   C1193     1.0  0.72009  0.57788  0.75692  1.0000
  C   C1194     1.0  0.71666  0.55415  0.76141  1.0000
  H   H930      1.0  0.53990  0.52104  0.73170  1.0000
  C   C1195     1.0  0.52505  0.43907  0.96035  1.0000
  H   H931      1.0  0.57852  0.46244  0.77649  1.0000
  H   H932      1.0  0.65301  0.47167  0.77349  1.0000
  H   H933      1.0  0.61359  0.53113  0.72920  1.0000
  H   H934      1.0  0.75808  0.51723  0.71541  1.0000
  H   H935      1.0  0.67215  0.46226  0.72857  1.0000
  H   H936      1.0  0.67903  0.51527  0.79906  1.0000
  H   H937      1.0  0.71866  0.50390  0.83797  1.0000
  H   H938      1.0  0.78596  0.48215  0.83844  1.0000
  H   H939      1.0  0.81432  0.47245  0.79978  1.0000
  H   H940      1.0  0.77564  0.48411  0.76067  1.0000
  H   H941      1.0  0.67489  0.53693  0.70496  1.0000
  H   H942      1.0  0.68137  0.57871  0.69739  1.0000
  H   H943      1.0  0.70931  0.60514  0.73038  1.0000
  H   H944      1.0  0.73206  0.58948  0.77142  1.0000
  H   H945      1.0  0.72619  0.54782  0.77950  1.0000
  H   H946      1.0  0.80809  0.38968  0.56596  1.0000
  H   H947      1.0  0.94015  0.49442  0.55523  1.0000
  C   C1196     1.0  0.82230  0.38254  0.92005  1.0000
  C   C1197     1.0  0.74336  0.50118  0.96439  1.0000
  H   H948      1.0  0.58957  0.62911  0.93782  1.0000
  H   H949      1.0  0.69969  0.43891  0.69645  1.0000
  H   H950      1.0  0.59575  0.64891  0.57237  1.0000
  C   C1198     1.0  0.60208  0.48319  0.98671  1.0000
  C   C1199     1.0  0.57380  0.61943  0.79028  1.0000
  H   H951      1.0  0.88760  0.56595  0.55724  1.0000
  S   S158      1.0  0.73341  0.52810  0.53654  1.0000
  H   H952      1.0  0.81833  0.36862  0.90683  1.0000
  H   H953      1.0  0.53985  0.44374  0.97816  1.0000
  H   H954      1.0  0.55642  0.64652  0.86034  1.0000
  C   C1200     1.0  0.74363  0.46490  0.68763  1.0000
  H   H955      1.0  0.55423  0.61999  0.77298  1.0000
  H   H956      1.0  0.98065  0.41273  0.73100  1.0000
  C   C1201     1.0  0.63832  0.62947  0.81517  1.0000
  C   C1202     1.0  0.62368  0.40656  0.93902  1.0000
  C   C1203     1.0  0.62151  0.40824  0.91378  1.0000
  C   C1204     1.0  0.65746  0.41393  0.90284  1.0000
  H   H957      1.0  0.59537  0.40284  0.94746  1.0000
  H   H958      1.0  0.59165  0.40580  0.90275  1.0000
  H   H959      1.0  0.65540  0.41608  0.88333  1.0000
  H   H960      1.0  0.53247  0.62467  0.56368  1.0000
  C   C1205     1.0  0.86736  0.41054  0.94250  1.0000
  H   H961      1.0  0.75605  0.45446  0.67375  1.0000
  C   C1206     1.0  0.61842  0.62340  0.90487  1.0000
  C   C1207     1.0  0.79236  0.41005  0.94679  1.0000
  C   C1208     1.0  0.68230  0.64333  0.87060  1.0000
  H   H962      1.0  0.51244  0.54312  0.77866  1.0000
  H   H963      1.0  0.53184  0.59683  0.80671  1.0000
  C   C1209     1.0  0.72049  0.48795  0.97941  1.0000
  S   S159      1.0  0.00261  0.39102  0.77735  1.0000
  C   C1210     1.0  0.69416  0.63977  0.63806  1.0000
  C   C1211     1.0  0.52438  0.44025  0.91641  1.0000
  Fe  Fe80      1.0  0.99719  0.36915  0.81134  1.0000
  H   H964      1.0  0.78599  0.54629  0.85785  1.0000
  C   C1212     1.0  0.93578  0.45749  0.54966  1.0000
  H   H965      1.0  0.71378  0.62576  0.63257  1.0000
  H   H966      1.0  0.73581  0.62956  0.89369  1.0000
  C   C1213     1.0  0.93850  0.55867  0.53586  1.0000
  C   C1214     1.0  0.92731  0.48060  0.54342  1.0000
  Fe  Fe81      1.0  0.98890  0.36982  0.63293  1.0000
  H   H967      1.0  0.75373  0.56542  0.82033  1.0000
  C   C1215     1.0  0.75974  0.48702  0.69291  1.0000
  C   C1216     1.0  0.61249  0.63085  0.79313  1.0000
  C   C1217     1.0  0.74455  0.57071  0.83773  1.0000
  H   H968      1.0  0.62868  0.55516  0.99873  1.0000
  C   C1218     1.0  0.74841  0.45258  0.96318  1.0000
  H   H969      1.0  0.70977  0.58798  0.90015  1.0000
  S   S160      1.0  0.68555  0.63366  0.98969  1.0000
  H   H970      1.0  0.89825  0.41813  0.94686  1.0000
  H   H971      1.0  0.92249  0.34426  0.68844  1.0000
  H   H972      1.0  0.70342  0.45370  0.98966  1.0000
  S   S161      1.0  0.98183  0.40603  0.61756  1.0000
  Fe  Fe82      1.0  0.80294  0.53228  0.53653  1.0000
  H   H973      1.0  0.65913  0.66296  0.68864  1.0000
  C   C1219     1.0  0.58681  0.60499  0.83143  1.0000
  H   H974      1.0  0.78541  0.50036  0.93652  1.0000
  H   H975      1.0  0.76589  0.66776  0.90496  1.0000
  Fe  Fe83      1.0  0.94042  0.34677  0.58833  1.0000
  H   H976      1.0  0.88859  0.38599  0.91696  1.0000
  C   C1220     1.0  0.71191  0.45615  0.70046  1.0000
  H   H977      1.0  0.83743  0.43329  0.96613  1.0000
  H   H978      1.0  0.90044  0.38395  0.69608  1.0000
  S   S162      1.0  0.93976  0.34729  0.81298  1.0000
  H   H979      1.0  0.74044  0.51992  0.96439  1.0000
  C   C1221     1.0  0.69572  0.41769  0.91711  1.0000
  C   C1222     1.0  0.56108  0.60644  0.80937  1.0000
  C   C1223     1.0  0.53207  0.63914  0.57615  1.0000
  C   C1224     1.0  0.69849  0.41539  0.94241  1.0000
  H   H980      1.0  0.55933  0.55827  0.58796  1.0000
  H   H981      1.0  0.76425  0.55792  0.89773  1.0000
  P   P41       1.0  0.74771  0.42139  0.96054  1.0000
  H   H982      1.0  0.50805  0.58834  0.59761  1.0000
  H   H983      1.0  0.70263  0.60779  0.94744  1.0000
  C   C1225     1.0  0.83275  0.41921  0.95319  1.0000
  C   C1226     1.0  0.74995  0.40804  0.98999  1.0000
  C   C1227     1.0  0.71359  0.58780  0.83897  1.0000
  H   H984      1.0  0.95554  0.45318  0.56614  1.0000
  C   C1228     1.0  0.82269  0.38554  0.54972  1.0000
  C   C1229     1.0  0.76273  0.55991  0.85888  1.0000
  H   H985      1.0  0.56356  0.50517  0.96227  1.0000
  H   H986      1.0  0.56797  0.58820  0.94132  1.0000
  H   H987      1.0  0.92464  0.42194  0.54021  1.0000
  C   C1230     1.0  0.68989  0.64319  0.66260  1.0000
  H   H988      1.0  0.63232  0.66309  0.85033  1.0000
  C   C1231     1.0  0.90055  0.48591  0.52253  1.0000
  H   H989      1.0  0.99035  0.48599  0.64914  1.0000
  C   C1232     1.0  0.85316  0.35730  0.52436  1.0000
  H   H990      1.0  0.70619  0.63183  0.67608  1.0000
  C   C1233     1.0  0.53180  0.56174  0.57526  1.0000
  S   S163      1.0  0.98896  0.38781  0.84662  1.0000
  H   H991      1.0  0.89294  0.50383  0.51815  1.0000
  C   C1234     1.0  0.98098  0.59164  0.52700  1.0000
  C   C1235     1.0  0.66330  0.66065  0.66965  1.0000
  H   H992      1.0  0.62254  0.64055  0.77807  1.0000
  H   H993      1.0  0.99981  0.50362  0.53076  1.0000
  H   H994      1.0  0.98819  0.40057  0.68857  1.0000
  H   H995      1.0  0.67788  0.66308  0.94874  1.0000
  H   H996      1.0  0.69996  0.49661  0.99094  1.0000
  C   C1236     1.0  0.54035  0.58196  0.99489  1.0000
  H   H997      1.0  0.56340  0.56462  0.51673  1.0000
  C   C1237     1.0  0.99331  0.39577  0.72755  1.0000
  C   C1238     1.0  0.60699  0.47240  0.00936  1.0000
  H   H998      1.0  0.62264  0.51285  0.51679  1.0000
  Fe  Fe84      1.0  0.99790  0.38959  0.58273  1.0000
  C   C1239     1.0  0.66182  0.66378  0.86195  1.0000
  C   C1240     1.0  0.99751  0.38891  0.70345  1.0000
  C   C1241     1.0  0.73699  0.66664  0.89279  1.0000
  C   C1242     1.0  0.89094  0.44483  0.51389  1.0000
  C   C1243     1.0  0.90362  0.33840  0.74751  1.0000
  C   C1244     1.0  0.85387  0.39823  0.51394  1.0000
  H   H999      1.0  0.64417  0.59563  0.01236  1.0000
  H   H1000     1.0  0.55293  0.77439  0.03130  1.0000
  Fe  Fe85      1.0  0.62346  0.69387  0.04259  1.0000
  S   S164      1.0  0.59250  0.72973  0.03777  1.0000
  S   S165      1.0  0.94058  0.68272  0.13075  1.0000
  C   C1245     1.0  0.59206  0.96267  0.01825  1.0000
  S   S166      1.0  0.98395  0.99148  0.14872  1.0000
  C   C1246     1.0  0.00304  0.98743  0.05023  1.0000
  C   C1247     1.0  0.95178  0.74226  0.35919  1.0000
  C   C1248     1.0  0.97438  0.70352  0.30241  1.0000
  H   H1001     1.0  0.84768  0.97686  0.01396  1.0000
  C   C1249     1.0  0.97355  0.72999  0.09992  1.0000
  H   H1002     1.0  0.96418  0.83056  0.18271  1.0000
  H   H1003     1.0  0.88605  0.73526  0.23091  1.0000
  C   C1250     1.0  0.95016  0.90499  0.09440  1.0000
  C   C1251     1.0  0.99547  0.76484  0.33481  1.0000
  H   H1004     1.0  0.96282  0.89868  0.13281  1.0000
  H   H1005     1.0  0.89227  0.76635  0.31100  1.0000
  H   H1006     1.0  0.98916  0.78964  0.18153  1.0000
  H   H1007     1.0  0.79459  0.68039  0.15317  1.0000
  C   C1252     1.0  0.96329  0.90090  0.07154  1.0000
  C   C1253     1.0  0.91989  0.76215  0.32338  1.0000
  C   C1254     1.0  0.94153  0.99012  0.12527  1.0000
  C   C1255     1.0  0.92246  0.96915  0.11779  1.0000
  C   C1256     1.0  0.88761  0.96900  0.09982  1.0000
  C   C1257     1.0  0.99132  0.75066  0.35497  1.0000
  Fe  Fe86      1.0  0.98390  0.69394  0.16464  1.0000
  H   H1008     1.0  0.96043  0.91803  0.47605  1.0000
  H   H1009     1.0  0.93400  0.95313  0.12622  1.0000
  C   C1258     1.0  0.61315  0.94134  0.01994  1.0000
  S   S167      1.0  0.82618  0.98876  0.06763  1.0000
  H   H1010     1.0  0.81447  0.00196  0.12784  1.0000
  H   H1011     1.0  0.92227  0.91541  0.09615  1.0000
  H   H1012     1.0  0.94342  0.71140  0.30144  1.0000
  S   S168      1.0  0.62543  0.67890  0.08035  1.0000
  H   H1013     1.0  0.86112  0.84972  0.16517  1.0000
  H   H1014     1.0  0.88566  0.67623  0.08663  1.0000
  C   C1259     1.0  0.00187  0.78938  0.07834  1.0000
  C   C1260     1.0  0.98253  0.74241  0.12148  1.0000
  S   S169      1.0  0.96787  0.70988  0.25293  1.0000
  H   H1015     1.0  0.94529  0.90806  0.05555  1.0000
  C   C1261     1.0  0.99647  0.82693  0.17970  1.0000
  H   H1016     1.0  0.91603  0.86465  0.14113  1.0000
  H   H1017     1.0  0.60752  0.90437  0.01537  1.0000
  C   C1262     1.0  0.56936  0.77123  0.01555  1.0000
  C   C1263     1.0  0.99437  0.69596  0.32499  1.0000
  H   H1018     1.0  0.99091  0.80964  0.34990  1.0000
  H   H1019     1.0  0.61060  0.97817  0.02178  1.0000
  C   C1264     1.0  0.81435  0.67960  0.13854  1.0000
  H   H1020     1.0  0.88567  0.74095  0.34642  1.0000
  S   S170      1.0  0.00521  0.67221  0.19773  1.0000
  H   H1021     1.0  0.96157  0.78184  0.30369  1.0000
  C   C1265     1.0  0.86582  0.67731  0.10120  1.0000
  H   H1022     1.0  0.97865  0.69770  0.34120  1.0000
  S   S171      1.0  0.97419  0.72649  0.18580  1.0000
  C   C1266     1.0  0.59100  0.92087  0.01448  1.0000
  C   C1267     1.0  0.92316  0.83233  0.12237  1.0000
  C   C1268     1.0  0.90550  0.84687  0.13877  1.0000
  C   C1269     1.0  0.87472  0.83839  0.15246  1.0000
  C   C1270     1.0  0.86229  0.81520  0.15021  1.0000
  C   C1271     1.0  0.88097  0.80023  0.13440  1.0000
  C   C1272     1.0  0.91070  0.80915  0.12000  1.0000
  P   P42       1.0  0.86831  0.76964  0.13376  1.0000
  C   C1273     1.0  0.81645  0.76439  0.11782  1.0000
  C   C1274     1.0  0.90912  0.75429  0.11993  1.0000
  C   C1275     1.0  0.90080  0.74278  0.09754  1.0000
  C   C1276     1.0  0.82169  0.67495  0.09593  1.0000
  C   C1277     1.0  0.93279  0.73037  0.08782  1.0000
  S   S172      1.0  0.69105  0.68447  0.03879  1.0000
  C   C1278     1.0  0.95047  0.75443  0.13149  1.0000
  C   C1279     1.0  0.78896  0.78296  0.11110  1.0000
  C   C1280     1.0  0.74905  0.77884  0.09872  1.0000
  C   C1281     1.0  0.73621  0.75619  0.09291  1.0000
  C   C1282     1.0  0.76332  0.73765  0.09941  1.0000
  C   C1283     1.0  0.80321  0.74168  0.11177  1.0000
  C   C1284     1.0  0.87163  0.75945  0.16489  1.0000
  C   C1285     1.0  0.85062  0.73925  0.17084  1.0000
  C   C1286     1.0  0.85554  0.73072  0.19457  1.0000
  C   C1287     1.0  0.88126  0.74230  0.21268  1.0000
  C   C1288     1.0  0.90191  0.76254  0.20710  1.0000
  C   C1289     1.0  0.89738  0.77100  0.18333  1.0000
  H   H1023     1.0  0.94705  0.83898  0.11181  1.0000
  H   H1024     1.0  0.87240  0.95279  0.09451  1.0000
  H   H1025     1.0  0.00568  0.84587  0.37279  1.0000
  H   H1026     1.0  0.83899  0.80874  0.16129  1.0000
  H   H1027     1.0  0.92493  0.79818  0.10729  1.0000
  H   H1028     1.0  0.86979  0.74301  0.08757  1.0000
  C   C1290     1.0  0.98920  0.92806  0.47842  1.0000
  C   C1291     1.0  0.98788  0.95150  0.48500  1.0000
  C   C1292     1.0  0.91613  0.74785  0.34332  1.0000
  H   H1029     1.0  0.95806  0.76377  0.14832  1.0000
  H   H1030     1.0  0.79810  0.80066  0.11522  1.0000
  H   H1031     1.0  0.72798  0.79320  0.09354  1.0000
  H   H1032     1.0  0.70529  0.75297  0.08330  1.0000
  H   H1033     1.0  0.75338  0.72008  0.09482  1.0000
  H   H1034     1.0  0.82386  0.72699  0.11622  1.0000
  H   H1035     1.0  0.83108  0.72963  0.15728  1.0000
  H   H1036     1.0  0.84007  0.71480  0.19882  1.0000
  C   C1293     1.0  0.87160  0.98975  0.08910  1.0000
  H   H1037     1.0  0.92261  0.77120  0.22105  1.0000
  H   H1038     1.0  0.91487  0.78626  0.17938  1.0000
  H   H1039     1.0  0.90748  0.99165  0.04129  1.0000
  H   H1040     1.0  0.64693  0.94071  0.02490  1.0000
  C   C1294     1.0  0.97299  0.89559  0.11504  1.0000
  C   C1295     1.0  0.95932  0.77077  0.31922  1.0000
  S   S173      1.0  0.73988  0.67221  0.10941  1.0000
  H   H1041     1.0  0.99802  0.71980  0.09280  1.0000
  C   C1296     1.0  0.88454  0.68090  0.12513  1.0000
  C   C1297     1.0  0.90807  0.99318  0.02183  1.0000
  H   H1042     1.0  0.92572  0.72054  0.07122  1.0000
  H   H1043     1.0  0.95784  0.95950  0.48737  1.0000
  H   H1044     1.0  0.94897  0.73105  0.37458  1.0000
  H   H1045     1.0  0.98552  0.77297  0.07643  1.0000
  C   C1298     1.0  0.59240  0.75049  0.01401  1.0000
  H   H1046     1.0  0.96277  0.80825  0.49959  1.0000
  C   C1299     1.0  0.79565  0.67584  0.11463  1.0000
  C   C1300     1.0  0.99395  0.70059  0.28107  1.0000
  C   C1301     1.0  0.00315  0.98688  0.07554  1.0000
  Fe  Fe87      1.0  0.99989  0.70559  0.21849  1.0000
  C   C1302     1.0  0.85841  0.68221  0.14376  1.0000
  H   H1047     1.0  0.87224  0.68486  0.16226  1.0000
  H   H1048     1.0  0.99351  0.00169  0.08553  1.0000
  C   C1303     1.0  0.99970  0.88777  0.06937  1.0000
  S   S174      1.0  0.00465  0.70114  0.41418  1.0000
  S   S175      1.0  0.00428  0.87449  0.17712  1.0000
  H   H1049     1.0  0.80788  0.67216  0.07746  1.0000
  H   H1050     1.0  0.67527  0.99774  0.46944  1.0000
  H   H1051     1.0  0.99491  0.79634  0.03998  1.0000
  Fe  Fe88      1.0  0.82674  0.97439  0.66087  1.0000
  S   S176      1.0  0.88098  0.95861  0.68472  1.0000
  S   S177      1.0  0.75738  0.96710  0.66597  1.0000
  C   C1304     1.0  0.53587  0.72085  0.94225  1.0000
  Fe  Fe89      1.0  0.91538  0.95797  0.65115  1.0000
  S   S178      1.0  0.95589  0.92695  0.64178  1.0000
  S   S179      1.0  0.85945  0.97130  0.62678  1.0000
  Fe  Fe90      1.0  0.55959  0.84090  0.94711  1.0000
  S   S180      1.0  0.59281  0.86190  0.92073  1.0000
  S   S181      1.0  0.58405  0.80351  0.95124  1.0000
  C   C1305     1.0  0.55827  0.75188  0.61157  1.0000
  C   C1306     1.0  0.99752  0.94717  0.60574  1.0000
  C   C1307     1.0  0.70784  0.69799  0.56065  1.0000
  C   C1308     1.0  0.67905  0.68544  0.86851  1.0000
  Fe  Fe91      1.0  0.59293  0.89090  0.94805  1.0000
  S   S182      1.0  0.65379  0.90953  0.96135  1.0000
  H   H1052     1.0  0.53209  0.68890  0.62335  1.0000
  S   S183      1.0  0.56392  0.86904  0.97524  1.0000
  C   C1309     1.0  0.70083  0.97200  0.98421  1.0000
  S   S184      1.0  0.53110  0.84729  0.65859  1.0000
  Fe  Fe92      1.0  0.55232  0.85205  0.72895  1.0000
  S   S185      1.0  0.59431  0.83199  0.70602  1.0000
  S   S186      1.0  0.57883  0.85300  0.76911  1.0000
  Fe  Fe93      1.0  0.58776  0.86283  0.68097  1.0000
  S   S187      1.0  0.64852  0.87360  0.66511  1.0000
  Fe  Fe94      1.0  0.53486  0.81809  0.68581  1.0000
  C   C1310     1.0  0.62004  0.69396  0.55517  1.0000
  S   S188      1.0  0.54821  0.88347  0.70464  1.0000
  H   H1053     1.0  0.85979  0.84166  0.64544  1.0000
  C   C1311     1.0  0.53629  0.75399  0.68025  1.0000
  H   H1054     1.0  0.67335  0.94642  0.91394  1.0000
  H   H1055     1.0  0.53787  0.71817  0.86209  1.0000
  C   C1312     1.0  0.56369  0.70863  0.69473  1.0000
  C   C1313     1.0  0.53250  0.71169  0.67518  1.0000
  Fe  Fe95      1.0  0.52874  0.87499  0.90603  1.0000
  H   H1056     1.0  0.86430  0.97645  0.74479  1.0000
  C   C1314     1.0  0.97593  0.98291  0.53429  1.0000
  H   H1057     1.0  0.96938  0.92818  0.52860  1.0000
  C   C1315     1.0  0.52643  0.71284  0.98435  1.0000
  C   C1316     1.0  0.58764  0.78390  0.97618  1.0000
  P   P43       1.0  0.61457  0.68861  0.60471  1.0000
  C   C1317     1.0  0.61105  0.76327  0.97478  1.0000
  S   S189      1.0  0.94319  0.99299  0.65930  1.0000
  H   H1058     1.0  0.62756  0.76017  0.95912  1.0000
  C   C1318     1.0  0.98242  0.87068  0.56498  1.0000
  C   C1319     1.0  0.56065  0.85952  0.84041  1.0000
  C   C1320     1.0  0.57761  0.85426  0.81859  1.0000
  C   C1321     1.0  0.55437  0.85837  0.79592  1.0000
  C   C1322     1.0  0.58568  0.76287  0.62933  1.0000
  C   C1323     1.0  0.66712  0.94580  0.74391  1.0000
  H   H1059     1.0  0.57883  0.85618  0.85767  1.0000
  H   H1060     1.0  0.60901  0.84698  0.81926  1.0000
  C   C1324     1.0  0.87417  0.98464  0.00633  1.0000
  C   C1325     1.0  0.54127  0.75426  0.85378  1.0000
  C   C1326     1.0  0.68558  0.69881  0.53751  1.0000
  C   C1327     1.0  0.72847  0.94065  0.66658  1.0000
  C   C1328     1.0  0.68825  0.94101  0.67489  1.0000
  C   C1329     1.0  0.66368  0.92068  0.67502  1.0000
  C   C1330     1.0  0.67866  0.89972  0.66643  1.0000
  C   C1331     1.0  0.71888  0.89938  0.65817  1.0000
  C   C1332     1.0  0.74383  0.91958  0.65850  1.0000
  H   H1061     1.0  0.67581  0.95717  0.68110  1.0000
  H   H1062     1.0  0.63274  0.92132  0.68118  1.0000
  H   H1063     1.0  0.73079  0.88333  0.65137  1.0000
  H   H1064     1.0  0.77450  0.91895  0.65195  1.0000
  C   C1333     1.0  0.65871  0.93974  0.96632  1.0000
  C   C1334     1.0  0.69424  0.94806  0.98090  1.0000
  C   C1335     1.0  0.59788  0.97066  0.72118  1.0000
  C   C1336     1.0  0.92419  0.82234  0.60444  1.0000
  C   C1337     1.0  0.99877  0.77936  0.55114  1.0000
  H   H1065     1.0  0.53058  0.90592  0.00276  1.0000
  C   C1338     1.0  0.81093  0.95724  0.89936  1.0000
  C   C1339     1.0  0.64167  0.69697  0.53479  1.0000
  C   C1340     1.0  0.70637  0.85730  0.72337  1.0000
  P   P44       1.0  0.71157  0.92986  0.75884  1.0000
  H   H1066     1.0  0.62483  0.96841  0.88488  1.0000
  H   H1067     1.0  0.73431  0.89445  0.79630  1.0000
  C   C1341     1.0  0.58124  0.72840  0.70681  1.0000
  H   H1068     1.0  0.78434  0.99082  0.89077  1.0000
  C   C1342     1.0  0.69969  0.69765  0.94311  1.0000
  C   C1343     1.0  0.71669  0.68687  0.88385  1.0000
  H   H1069     1.0  0.92977  0.80689  0.59417  1.0000
  C   C1344     1.0  0.73484  0.89619  0.72637  1.0000
  C   C1345     1.0  0.56700  0.78786  0.99680  1.0000
  H   H1070     1.0  0.68330  0.96398  0.79301  1.0000
  H   H1071     1.0  0.75385  0.90937  0.71906  1.0000
  C   C1346     1.0  0.63698  0.97961  0.95768  1.0000
  C   C1347     1.0  0.67253  0.98787  0.97234  1.0000
  C   C1348     1.0  0.90811  0.99683  0.97159  1.0000
  H   H1072     1.0  0.74957  0.87088  0.69989  1.0000
  H   H1073     1.0  0.70319  0.84074  0.71408  1.0000
  C   C1349     1.0  0.56764  0.75093  0.69968  1.0000
  H   H1074     1.0  0.63138  0.73085  0.99204  1.0000
  H   H1075     1.0  0.66201  0.84892  0.74857  1.0000
  C   C1350     1.0  0.61582  0.70764  0.92506  1.0000
  C   C1351     1.0  0.63086  0.90151  0.88005  1.0000
  C   C1352     1.0  0.58076  0.99982  0.85582  1.0000
  H   H1076     1.0  0.58599  0.69282  0.55276  1.0000
  H   H1077     1.0  0.63912  0.74230  0.91960  1.0000
  H   H1078     1.0  0.58878  0.68164  0.88018  1.0000
  C   C1353     1.0  0.68301  0.86197  0.74268  1.0000
  S   S190      1.0  0.53152  0.90600  0.93132  1.0000
  H   H1079     1.0  0.79298  0.93438  0.78907  1.0000
  H   H1080     1.0  0.66600  0.88709  0.76828  1.0000
  H   H1081     1.0  0.73860  0.95643  0.71803  1.0000
  C   C1354     1.0  0.94445  0.98658  0.54955  1.0000
  C   C1355     1.0  0.60060  0.93807  0.86476  1.0000
  C   C1356     1.0  0.85254  0.99217  0.89670  1.0000
  C   C1357     1.0  0.56695  0.72932  0.60418  1.0000
  H   H1082     1.0  0.84738  0.98018  0.96929  1.0000
  C   C1358     1.0  0.88437  0.84185  0.63341  1.0000
  C   C1359     1.0  0.58492  0.92624  0.80575  1.0000
  H   H1083     1.0  0.71197  0.73350  0.93588  1.0000
  H   H1084     1.0  0.63201  0.88277  0.87915  1.0000
  H   H1085     1.0  0.65899  0.72031  0.64046  1.0000
  C   C1360     1.0  0.57747  0.91525  0.78322  1.0000
  C   C1361     1.0  0.60278  0.71744  0.61488  1.0000
  H   H1086     1.0  0.87445  0.80645  0.62187  1.0000
  C   C1362     1.0  0.76029  0.94429  0.75424  1.0000
  C   C1363     1.0  0.56476  0.76101  0.90327  1.0000
  C   C1364     1.0  0.62972  0.95560  0.95496  1.0000
  S   S191      1.0  0.51789  0.78196  0.67029  1.0000
  C   C1365     1.0  0.83205  0.95539  0.76900  1.0000
  C   C1366     1.0  0.53698  0.68866  0.90107  1.0000
  S   S192      1.0  0.58187  0.68065  0.70484  1.0000
  C   C1367     1.0  0.62645  0.94982  0.88296  1.0000
  C   C1368     1.0  0.65417  0.93742  0.89954  1.0000
  C   C1369     1.0  0.65622  0.91328  0.89816  1.0000
  H   H1087     1.0  0.60252  0.94932  0.94351  1.0000
  H   H1088     1.0  0.73088  0.89408  0.84042  1.0000
  P   P45       1.0  0.98786  0.84364  0.58141  1.0000
  C   C1370     1.0  0.71141  0.90107  0.74580  1.0000
  H   H1089     1.0  0.60212  0.90521  0.77616  1.0000
  H   H1090     1.0  0.61597  0.92502  0.81560  1.0000
  H   H1091     1.0  0.54637  0.79143  0.85067  1.0000
  H   H1092     1.0  0.70570  0.92871  0.86115  1.0000
  H   H1093     1.0  0.54866  0.97335  0.96214  1.0000
  H   H1094     1.0  0.56699  0.99661  0.87251  1.0000
  H   H1095     1.0  0.53511  0.70318  0.00091  1.0000
  H   H1096     1.0  0.68194  0.96360  0.83741  1.0000
  H   H1097     1.0  0.67675  0.90364  0.91149  1.0000
  C   C1371     1.0  0.79472  0.94379  0.77237  1.0000
  H   H1098     1.0  0.73174  0.69388  0.95069  1.0000
  H   H1099     1.0  0.56933  0.93727  0.71373  1.0000
  C   C1372     1.0  0.66779  0.97015  0.74316  1.0000
  C   C1373     1.0  0.73253  0.87432  0.71538  1.0000
  H   H1100     1.0  0.93809  0.97346  0.56263  1.0000
  C   C1374     1.0  0.98420  0.99982  0.51731  1.0000
  C   C1375     1.0  0.54834  0.96368  0.01114  1.0000
  H   H1101     1.0  0.69517  0.97960  0.75105  1.0000
  C   C1376     1.0  0.63102  0.93410  0.73350  1.0000
  H   H1102     1.0  0.95638  0.87829  0.61375  1.0000
  C   C1377     1.0  0.68543  0.88373  0.75385  1.0000
  H   H1103     1.0  0.98781  0.76937  0.51346  1.0000
  C   C1378     1.0  0.59664  0.94650  0.72218  1.0000
  C   C1379     1.0  0.88947  0.97900  0.90218  1.0000
  C   C1380     1.0  0.64083  0.67468  0.65216  1.0000
  C   C1381     1.0  0.97282  0.91198  0.53831  1.0000
  H   H1104     1.0  0.98494  0.68379  0.51281  1.0000
  H   H1105     1.0  0.54886  0.80360  0.99819  1.0000
  H   H1106     1.0  0.90121  0.87751  0.64125  1.0000
  C   C1382     1.0  0.53761  0.91632  0.77013  1.0000
  C   C1383     1.0  0.68629  0.69499  0.58105  1.0000
  C   C1384     1.0  0.63056  0.72880  0.63240  1.0000
  H   H1107     1.0  0.54571  0.72116  0.59016  1.0000
  H   H1108     1.0  0.78050  0.94884  0.89850  1.0000
  H   H1109     1.0  0.53199  0.75174  0.83456  1.0000
  C   C1385     1.0  0.51419  0.95611  0.85809  1.0000
  C   C1386     1.0  0.94266  0.88138  0.56046  1.0000
  C   C1387     1.0  0.76420  0.95619  0.73256  1.0000
  C   C1388     1.0  0.70622  0.92883  0.84167  1.0000
  C   C1389     1.0  0.97200  0.80522  0.51871  1.0000
  H   H1110     1.0  0.52061  0.97777  0.91917  1.0000
  C   C1390     1.0  0.53192  0.67561  0.60951  1.0000
  C   C1391     1.0  0.72179  0.90948  0.80486  1.0000
  H   H1111     1.0  0.51848  0.69669  0.66583  1.0000
  H   H1112     1.0  0.62935  0.91538  0.73354  1.0000
  C   C1392     1.0  0.54937  0.77664  0.86281  1.0000
  C   C1393     1.0  0.51983  0.98306  0.95755  1.0000
  C   C1394     1.0  0.98611  0.78325  0.52655  1.0000
  C   C1395     1.0  0.60285  0.91381  0.86363  1.0000
  C   C1396     1.0  0.70764  0.92898  0.79112  1.0000
  C   C1397     1.0  0.84780  0.94431  0.90506  1.0000
  H   H1113     1.0  0.60228  0.97356  0.80329  1.0000
  H   H1114     1.0  0.70395  0.69463  0.59889  1.0000
  H   H1115     1.0  0.58215  0.90433  0.85043  1.0000
  C   C1398     1.0  0.63340  0.98249  0.73171  1.0000
  H   H1116     1.0  0.92018  0.98702  0.90342  1.0000
  C   C1399     1.0  0.69283  0.94847  0.82825  1.0000
  C   C1400     1.0  0.69343  0.94855  0.80305  1.0000
  C   C1401     1.0  0.72051  0.90933  0.82998  1.0000
  H   H1117     1.0  0.71684  0.93589  0.98971  1.0000
  C   C1402     1.0  0.64235  0.69225  0.57837  1.0000
  C   C1403     1.0  0.89267  0.82203  0.62012  1.0000
  C   C1404     1.0  0.54535  0.70763  0.96342  1.0000
  C   C1405     1.0  0.99776  0.79751  0.56786  1.0000
  C   C1406     1.0  0.87401  0.98658  0.98121  1.0000
  H   H1118     1.0  0.58133  0.76592  0.70924  1.0000
  H   H1119     1.0  0.51929  0.82401  0.61056  1.0000
  H   H1120     1.0  0.53170  0.90717  0.75299  1.0000
  H   H1121     1.0  0.63457  0.00121  0.73062  1.0000
  H   H1122     1.0  0.72992  0.70366  0.88899  1.0000
  C   C1407     1.0  0.80145  0.96787  0.72933  1.0000
  Fe  Fe96      1.0  0.90442  0.99527  0.69070  1.0000
  C   C1408     1.0  0.56109  0.77999  0.88757  1.0000
  C   C1409     1.0  0.61352  0.74667  0.99353  1.0000
  C   C1410     1.0  0.66927  0.68028  0.94207  1.0000
  H   H1123     1.0  0.57147  0.98016  0.71196  1.0000
  H   H1124     1.0  0.60538  0.72628  0.72194  1.0000
  H   H1125     1.0  0.61904  0.68746  0.65795  1.0000
  H   H1126     1.0  0.96064  0.84036  0.52879  1.0000
  C   C1411     1.0  0.56761  0.67168  0.59734  1.0000
  C   C1412     1.0  0.81325  0.98105  0.89507  1.0000
  C   C1413     1.0  0.90760  0.86202  0.63107  1.0000
  C   C1414     1.0  0.98404  0.81972  0.56010  1.0000
  C   C1415     1.0  0.94768  0.84255  0.60200  1.0000
  H   H1127     1.0  0.56709  0.79733  0.89477  1.0000
  C   C1416     1.0  0.93904  0.86238  0.61544  1.0000
  H   H1128     1.0  0.57359  0.76395  0.92242  1.0000
  C   C1417     1.0  0.62170  0.75133  0.63978  1.0000
  C   C1418     1.0  0.62750  0.68526  0.93327  1.0000
  P   P46       1.0  0.56262  0.95363  0.84411  1.0000
  H   H1129     1.0  0.66315  0.70116  0.86178  1.0000
  C   C1419     1.0  0.93809  0.90216  0.54755  1.0000
  C   C1420     1.0  0.68854  0.71990  0.93476  1.0000
  H   H1130     1.0  0.53015  0.76089  0.60380  1.0000
  H   H1131     1.0  0.91561  0.94512  0.91077  1.0000
  H   H1132     1.0  0.91511  0.87386  0.56706  1.0000
  H   H1133     1.0  0.80417  0.97707  0.71256  1.0000
  H   H1134     1.0  0.83909  0.99499  0.84743  1.0000
  H   H1135     1.0  0.90810  0.99825  0.95214  1.0000
  H   H1136     1.0  0.85862  0.95491  0.78293  1.0000
  C   C1421     1.0  0.55225  0.93817  0.81561  1.0000
  C   C1422     1.0  0.51901  0.73424  0.66800  1.0000
  H   H1137     1.0  0.99412  0.96699  0.53592  1.0000
  C   C1423     1.0  0.51367  0.86760  0.79533  1.0000
  C   C1424     1.0  0.64688  0.72485  0.92559  1.0000
  H   H1138     1.0  0.61512  0.99183  0.94838  1.0000
  H   H1139     1.0  0.57870  0.78026  0.63530  1.0000
  C   C1425     1.0  0.55662  0.73848  0.89447  1.0000
  H   H1140     1.0  0.64248  0.75983  0.65382  1.0000
  C   C1426     1.0  0.58255  0.98213  0.83849  1.0000
  H   H1141     1.0  0.51290  0.82892  0.56593  1.0000
  H   H1142     1.0  0.97460  0.96103  0.60568  1.0000
  H   H1143     1.0  0.62441  0.69782  0.51686  1.0000
  P   P47       1.0  0.56105  0.71423  0.91532  1.0000
  C   C1427     1.0  0.88703  0.95517  0.90637  1.0000
  C   C1428     1.0  0.97086  0.82340  0.53539  1.0000
  C   C1429     1.0  0.54477  0.73523  0.86952  1.0000
  H   H1144     1.0  0.84595  0.92588  0.90853  1.0000
  H   H1145     1.0  0.90763  0.91068  0.54484  1.0000
  C   C1430     1.0  0.55818  0.67603  0.88443  1.0000
  C   C1431     1.0  0.52069  0.86972  0.83980  1.0000
  C   C1432     1.0  0.60065  0.98679  0.81705  1.0000
  H   H1146     1.0  0.52535  0.92532  0.88017  1.0000
  H   H1147     1.0  0.72832  0.97815  0.99553  1.0000
  C   C1433     1.0  0.64548  0.67159  0.62747  1.0000
  C   C1434     1.0  0.99533  0.92849  0.62152  1.0000
  C   C1435     1.0  0.83535  0.96751  0.74752  1.0000
  H   H1148     1.0  0.74185  0.69961  0.56277  1.0000
  H   H1149     1.0  0.56796  0.69359  0.96415  1.0000
  H   H1150     1.0  0.70235  0.70094  0.52170  1.0000
  H   H1151     1.0  0.99542  0.96667  0.71833  1.0000
  H   H1152     1.0  0.60416  0.67178  0.93359  1.0000
  C   C1436     1.0  0.51224  0.93922  0.80225  1.0000
  C   C1437     1.0  0.54779  0.92175  0.00712  1.0000
  P   P48       1.0  0.52108  0.99124  0.00712  1.0000
  C   C1438     1.0  0.52678  0.94305  0.00487  1.0000
  C   C1439     1.0  0.50611  0.73891  0.94226  1.0000
  C   C1440     1.0  0.94232  0.00362  0.01233  1.0000
