data_image0
_chemical_formula_structural       HCPS2CFeS2FeS2FeSFeS3HCFeSC8HC2H2C6H5C2HC2HPHC3H2C2H5C2H2C3HCH3C4H2C2H2C4PC10FeC3HCSC3HCH9C2H2C2H3CHC2H5C3HCHC3H3CHC2H2C4HCHSFeS2FeS2FeHFeS3H2SHC8H4C8H4C4H3C6PC18HCH10C2SH5C6PC18H21CPFeHCSHC3H2C2HCHC2HC8H6CFeH2CHCHC2H4CHCSH2C3HC2HCHCHC4H3SH2CFeCFeHSHPH2C4SHCFeS2FeSCFeSFeS3CSFeS2FeS2FeS2CHSC4H3CH2C5HCH2C5H2C2HCSHC3H2C6PC18H20C6PC18H20CH2C3HCHCHC3HCHC2HCH2S2FeCH2CHC2SC8HFeHC2HCHCFeC4SHC2H2CHCH7CH2SH2FeS2FeS2FeSFeS3H2C7H2CHC7H3C6HSCHC3HSCHC3SH4C2HCHCHCFeHC3HCH2CH2CPC11PC4H3C2HC3HC2HCH8C4HCHC2H3FeHC2H3C2H2CH2CH2C2H4C2H4PH2C2HCHFeSHFeS2HC2HC6HFeS2FeS2FeHSC6H4CHSC5SCHC2SCHCHC2HCHCHCHC3HCH2CHC2HC4PC7HCH3CH3CH3CHPH5CHC2HCHFeCH2CH3C2H4CHCH3C5PC5H5C4HCH2C2HSC3H4C2HC2H4CH4CHCHC2PCH5CHC2HCHC2HC2H2C2H2CHCFeH4C5H2CHC2HCHCHC2HCHC3PC4H2C5HC2HSC2H3CH3CH3C3HCH2FeS2FeS2FeSFeS3FeS2HCH3C5H2C6H6C4H6C3H3C3HC3H4CHCH2C6H2C6PC3HCHC5HC6H3CH2C2HCH2CH5CHC5HPHC3SHC3H5C2H4C2H2C2H2CHCHCHCHCH2C2H2CHC2PC3HC2HC5H3C4HCH2C2H4C3H3C2HC2H2CH2CHC2H3SHFeSHFeS2FeSFeS3HCH3C6H4C6HCHPC2H4C4HCHCHPCHSC3HFeHC4H5CH2C3HC2HCSHC2FeCH4C2H3SHPC2HC4HCHC7HC3HSH3C3HCH3CHPC2HC2H2C2HCHCH2C3HC2HCH2CPCHCH4CH2CPHC2HC5HC3H3CH2C4H2SCH3CHCHCHC2HC2HCHC3H2CHCHC2HC3H2C4HC2H2C3H2C2HCHCHCH2CSHCPCHC2H2FeS2CSHFeS2FeS2FeCFeHS2H2C4H3C6H4C6H3CSHC2HC2HC3H4C7PC18HCH6C2H10C2H2CH2CHC2HC2HPFeHCSH2SC3H2CSH2CH3PCH2C6HFeH2CH2C2FeS2CHFeSCFeSCFeSFeS2CHCPCHC3HCH5C6H4C4HCSC3HC2H2CH4CHCHSC2FeC4H2SH2CHCPHCHC6PC5HCHCH3C6H5CHCH2SCHC2H2C2H3C6HC3HC3H3CH3C2HC2HCHCHCHC5H4C2H4C2HSCHCPC3H3C3HC4H2CHC3HCHFeSHFeSHFeHFeSHSHSC2S2FeS2FeCSFeSFeS3H2C5H4CSC3HSHC7H3CHCHC7H2FeCSC2HC4PC15H14C6PC18HCH18C3HSC2H2CHC3HC3HCH4C2HC3H7CHCHSCH2C2SCSHCH3FeSH2C2HC5H3C2FeHCH
_chemical_formula_sum              "H864 C1080 P36 S144 Fe72"
_cell_length_a       35.8747
_cell_length_b       35.908
_cell_length_c       70.8045
_cell_angle_alpha    89.9145
_cell_angle_beta     89.8886
_cell_angle_gamma    119.951

_space_group_name_H-M_alt    "P 1"
_space_group_IT_number       1

loop_
  _space_group_symop_operation_xyz
  'x, y, z'

loop_
  _atom_site_type_symbol
  _atom_site_label
  _atom_site_symmetry_multiplicity
  _atom_site_fract_x
  _atom_site_fract_y
  _atom_site_fract_z
  _atom_site_occupancy
  H   H1        1.0  0.19979  0.02797  0.11953  1.0000
  C   C1        1.0  0.25674  0.10183  0.14140  1.0000
  P   P1        1.0  0.43106  0.09651  0.21336  1.0000
  S   S1        1.0  0.99210  0.01237  0.14245  1.0000
  S   S2        1.0  0.02448  0.04954  0.08792  1.0000
  C   C2        1.0  0.41157  0.03994  0.18290  1.0000
  Fe  Fe1       1.0  0.20531  0.34591  0.02645  1.0000
  S   S3        1.0  0.24577  0.41301  0.03764  1.0000
  S   S4        1.0  0.20175  0.33583  0.99431  1.0000
  Fe  Fe2       1.0  0.18872  0.30575  0.06590  1.0000
  S   S5        1.0  0.22868  0.37085  0.07939  1.0000
  S   S6        1.0  0.16104  0.25129  0.08802  1.0000
  Fe  Fe3       1.0  0.19450  0.39334  0.06005  1.0000
  S   S7        1.0  0.17819  0.44434  0.06992  1.0000
  Fe  Fe4       1.0  0.27786  0.38652  0.05629  1.0000
  S   S8        1.0  0.34909  0.42681  0.06582  1.0000
  S   S9        1.0  0.15152  0.32771  0.04763  1.0000
  S   S10       1.0  0.24018  0.31974  0.04403  1.0000
  H   H2        1.0  0.38601  0.40838  0.03224  1.0000
  C   C3        1.0  0.09236  0.00243  0.09583  1.0000
  Fe  Fe5       1.0  0.98922  0.00000  0.11139  1.0000
  S   S11       1.0  0.01016  0.41878  0.11319  1.0000
  C   C4        1.0  0.05712  0.42718  0.10094  1.0000
  C   C5        1.0  0.41097  0.15014  0.23442  1.0000
  C   C6        1.0  0.36794  0.16362  0.20458  1.0000
  C   C7        1.0  0.13103  0.43662  0.08176  1.0000
  C   C8        1.0  0.09427  0.39607  0.08352  1.0000
  C   C9        1.0  0.05757  0.39145  0.09305  1.0000
  C   C10       1.0  0.34087  0.47163  0.99531  1.0000
  C   C11       1.0  0.15135  0.98865  0.09959  1.0000
  H   H3        1.0  0.09414  0.36833  0.07751  1.0000
  C   C12       1.0  0.38654  0.13783  0.20193  1.0000
  C   C13       1.0  0.40657  0.02266  0.26106  1.0000
  H   H4        1.0  0.44581  0.05404  0.18062  1.0000
  H   H5        1.0  0.00467  0.10216  0.13937  1.0000
  C   C14       1.0  0.06143  0.10589  0.08849  1.0000
  C   C15       1.0  0.08051  0.12773  0.10523  1.0000
  C   C16       1.0  0.11066  0.17220  0.10478  1.0000
  C   C17       1.0  0.12187  0.19551  0.08767  1.0000
  C   C18       1.0  0.10277  0.17363  0.07097  1.0000
  C   C19       1.0  0.07281  0.12914  0.07140  1.0000
  H   H6        1.0  0.07241  0.11031  0.11846  1.0000
  H   H7        1.0  0.12585  0.18860  0.11772  1.0000
  H   H8        1.0  0.11140  0.19088  0.05769  1.0000
  H   H9        1.0  0.05854  0.11257  0.05834  1.0000
  H   H10       1.0  0.29780  0.36371  0.98914  1.0000
  C   C20       1.0  0.40795  0.13064  0.21688  1.0000
  C   C21       1.0  0.43782  0.47176  0.06974  1.0000
  H   H11       1.0  0.12255  0.34074  0.99660  1.0000
  C   C22       1.0  0.20104  0.13903  0.12101  1.0000
  C   C23       1.0  0.18856  0.14113  0.10241  1.0000
  H   H12       1.0  0.98301  0.35434  0.25434  1.0000
  P   P2        1.0  0.17460  0.08928  0.13433  1.0000
  H   H13       1.0  0.44779  0.03301  0.28486  1.0000
  C   C24       1.0  0.13397  0.08959  0.14946  1.0000
  C   C25       1.0  0.38341  0.00751  0.17067  1.0000
  C   C26       1.0  0.21397  0.08294  0.14785  1.0000
  H   H14       1.0  0.35116  0.16874  0.19305  1.0000
  H   H15       1.0  0.02938  0.35991  0.09437  1.0000
  C   C27       1.0  0.10068  0.12731  0.16399  1.0000
  C   C28       1.0  0.23138  0.04804  0.17307  1.0000
  H   H16       1.0  0.09873  0.15628  0.16566  1.0000
  H   H17       1.0  0.31925  0.10844  0.14564  1.0000
  H   H18       1.0  0.26686  0.12144  0.12874  1.0000
  H   H19       1.0  0.27621  0.41843  0.99116  1.0000
  H   H20       1.0  0.00761  0.17520  0.04314  1.0000
  C   C29       1.0  0.20701  0.18043  0.09281  1.0000
  C   C30       1.0  0.32221  0.39714  0.99107  1.0000
  H   H21       1.0  0.27338  0.24570  0.12714  1.0000
  H   H22       1.0  0.24112  0.17642  0.14436  1.0000
  C   C31       1.0  0.99803  0.12791  0.14230  1.0000
  C   C32       1.0  0.39539  0.05307  0.19799  1.0000
  C   C33       1.0  0.07201  0.08995  0.17373  1.0000
  H   H23       1.0  0.04782  0.08979  0.18298  1.0000
  C   C34       1.0  0.20159  0.05583  0.16376  1.0000
  H   H24       1.0  0.37310  0.01916  0.23561  1.0000
  H   H25       1.0  0.10316  0.02178  0.15628  1.0000
  H   H26       1.0  0.05102  0.02302  0.17844  1.0000
  C   C35       1.0  0.14926  0.04448  0.11822  1.0000
  C   C36       1.0  0.23750  0.21803  0.10173  1.0000
  C   C37       1.0  0.43624  0.07634  0.23607  1.0000
  C   C38       1.0  0.23190  0.17704  0.12986  1.0000
  H   H27       1.0  0.33727  0.04249  0.21219  1.0000
  H   H28       1.0  0.06282  0.99576  0.08884  1.0000
  C   C39       1.0  0.10382  0.05182  0.15872  1.0000
  C   C40       1.0  0.98894  0.31320  0.27470  1.0000
  H   H29       1.0  0.02379  0.33098  0.27449  1.0000
  H   H30       1.0  0.46193  0.43415  0.02250  1.0000
  C   C41       1.0  0.99369  0.26899  0.12043  1.0000
  C   C42       1.0  0.44444  0.04547  0.27143  1.0000
  C   C43       1.0  0.36550  0.40883  0.99272  1.0000
  C   C44       1.0  0.97998  0.19378  0.14970  1.0000
  P   P3        1.0  0.02419  0.24164  0.11763  1.0000
  C   C45       1.0  0.01891  0.22135  0.09384  1.0000
  C   C46       1.0  0.08039  0.27939  0.12187  1.0000
  C   C47       1.0  0.10803  0.26537  0.12868  1.0000
  C   C48       1.0  0.15220  0.29426  0.13021  1.0000
  C   C49       1.0  0.16907  0.33723  0.12489  1.0000
  C   C50       1.0  0.14173  0.35150  0.11823  1.0000
  C   C51       1.0  0.09759  0.32274  0.11678  1.0000
  C   C52       1.0  0.05226  0.24232  0.08057  1.0000
  C   C53       1.0  0.04793  0.22570  0.06235  1.0000
  C   C54       1.0  0.01045  0.18823  0.05720  1.0000
  Fe  Fe6       1.0  0.98964  0.46346  0.12690  1.0000
  C   C55       1.0  0.30996  0.42839  0.99230  1.0000
  C   C56       1.0  0.00452  0.19651  0.13371  1.0000
  C   C57       1.0  0.01318  0.16313  0.13006  1.0000
  H   H31       1.0  0.98644  0.34056  0.14972  1.0000
  C   C58       1.0  0.13175  0.12731  0.15201  1.0000
  S   S12       1.0  0.99070  0.47233  0.15859  1.0000
  C   C59       1.0  0.39243  0.17604  0.23700  1.0000
  C   C60       1.0  0.97707  0.16732  0.07027  1.0000
  C   C61       1.0  0.27383  0.06725  0.16665  1.0000
  H   H32       1.0  0.22110  0.02593  0.18495  1.0000
  C   C62       1.0  0.45543  0.44506  0.03567  1.0000
  H   H33       1.0  0.02780  0.30302  0.14561  1.0000
  H   H34       1.0  0.09602  0.23199  0.13213  1.0000
  H   H35       1.0  0.17366  0.28289  0.13464  1.0000
  H   H36       1.0  0.20347  0.35920  0.12540  1.0000
  H   H37       1.0  0.15489  0.38459  0.11363  1.0000
  H   H38       1.0  0.07712  0.33409  0.11114  1.0000
  H   H39       1.0  0.08208  0.27098  0.08421  1.0000
  H   H40       1.0  0.07417  0.24142  0.05233  1.0000
  H   H41       1.0  0.38416  0.12342  0.18822  1.0000
  C   C63       1.0  0.41225  0.43042  0.04111  1.0000
  C   C64       1.0  0.97859  0.31778  0.13830  1.0000
  H   H42       1.0  0.03149  0.16426  0.11769  1.0000
  H   H43       1.0  0.42741  0.14533  0.24615  1.0000
  C   C65       1.0  0.40303  0.44384  0.05816  1.0000
  C   C66       1.0  0.09370  0.46781  0.09901  1.0000
  H   H44       1.0  0.35634  0.20262  0.22417  1.0000
  H   H45       1.0  0.16393  0.11295  0.09531  1.0000
  H   H46       1.0  0.39464  0.19084  0.25059  1.0000
  C   C67       1.0  0.07384  0.05234  0.17120  1.0000
  H   H47       1.0  0.29651  0.06038  0.17368  1.0000
  C   C68       1.0  0.11003  0.03430  0.10969  1.0000
  C   C69       1.0  0.25011  0.21633  0.12022  1.0000
  H   H48       1.0  0.19644  0.18212  0.07865  1.0000
  H   H49       1.0  0.25051  0.24861  0.09439  1.0000
  H   H50       1.0  0.37485  0.38446  0.99207  1.0000
  H   H51       1.0  0.16880  0.03942  0.16881  1.0000
  H   H52       1.0  0.09373  0.05188  0.11327  1.0000
  C   C70       1.0  0.28654  0.09425  0.15085  1.0000
  C   C71       1.0  0.16963  0.02110  0.11318  1.0000
  C   C72       1.0  0.32267  0.00079  0.18838  1.0000
  H   H53       1.0  0.15338  0.15669  0.14464  1.0000
  C   C73       1.0  0.37085  0.18270  0.22212  1.0000
  H   H54       1.0  0.23251  0.45804  0.00640  1.0000
  C   C74       1.0  0.13037  0.47245  0.08944  1.0000
  C   C75       1.0  0.40240  0.03805  0.24349  1.0000
  C   C76       1.0  0.35064  0.03316  0.20063  1.0000
  H   H55       1.0  0.97536  0.46508  0.27768  1.0000
  H   H56       1.0  0.16703  0.43228  0.98751  1.0000
  H   H57       1.0  0.98505  0.26626  0.29487  1.0000
  C   C77       1.0  0.98134  0.18357  0.08856  1.0000
  H   H58       1.0  0.39611  0.99695  0.15928  1.0000
  C   C78       1.0  0.00228  0.29688  0.13577  1.0000
  C   C79       1.0  0.46049  0.98317  0.23120  1.0000
  H   H59       1.0  0.28823  0.98535  0.19057  1.0000
  H   H60       1.0  0.38077  0.99219  0.26626  1.0000
  C   C80       1.0  0.33898  0.98796  0.17340  1.0000
  C   C81       1.0  0.23554  0.46752  0.99172  1.0000
  C   C82       1.0  0.97353  0.12536  0.15810  1.0000
  C   C83       1.0  0.39652  0.45180  0.99579  1.0000
  H   H61       1.0  0.42997  0.46073  0.99754  1.0000
  C   C84       1.0  0.32983  0.10286  0.56585  1.0000
  H   H62       1.0  0.40755  0.04332  0.34296  1.0000
  S   S13       1.0  0.06569  0.07009  0.50026  1.0000
  Fe  Fe7       1.0  0.36413  0.25768  0.55907  1.0000
  S   S14       1.0  0.43049  0.29604  0.54686  1.0000
  S   S15       1.0  0.36317  0.26107  0.59134  1.0000
  Fe  Fe8       1.0  0.32229  0.23649  0.51994  1.0000
  S   S16       1.0  0.38684  0.27451  0.50553  1.0000
  S   S17       1.0  0.26694  0.20684  0.49848  1.0000
  Fe  Fe9       1.0  0.40906  0.24201  0.52601  1.0000
  H   H63       1.0  0.13070  0.03715  0.48397  1.0000
  Fe  Fe10      1.0  0.40351  0.32618  0.52741  1.0000
  S   S18       1.0  0.44277  0.39731  0.51766  1.0000
  S   S19       1.0  0.34412  0.20124  0.53951  1.0000
  S   S20       1.0  0.33752  0.29039  0.54050  1.0000
  H   H64       1.0  0.35936  0.41056  0.64727  1.0000
  H   H65       1.0  0.22440  0.01143  0.37945  1.0000
  S   S21       1.0  0.41256  0.04357  0.47981  1.0000
  H   H66       1.0  0.45764  0.02804  0.62398  1.0000
  C   C85       1.0  0.44018  0.45814  0.54173  1.0000
  C   C86       1.0  0.38154  0.05272  0.63736  1.0000
  C   C87       1.0  0.18413  0.03641  0.47029  1.0000
  C   C88       1.0  0.14113  0.01845  0.47585  1.0000
  C   C89       1.0  0.44482  0.17196  0.50766  1.0000
  C   C90       1.0  0.40216  0.13989  0.50472  1.0000
  C   C91       1.0  0.39305  0.10098  0.49603  1.0000
  C   C92       1.0  0.42640  0.09382  0.49010  1.0000
  H   H67       1.0  0.38723  0.02017  0.52294  1.0000
  H   H68       1.0  0.31963  0.99135  0.47717  1.0000
  H   H69       1.0  0.37622  0.14506  0.50914  1.0000
  H   H70       1.0  0.35994  0.07632  0.49388  1.0000
  C   C93       1.0  0.19742  0.01200  0.45982  1.0000
  C   C94       1.0  0.30756  0.03946  0.58520  1.0000
  C   C95       1.0  0.12235  0.10524  0.49922  1.0000
  C   C96       1.0  0.14579  0.11798  0.51620  1.0000
  C   C97       1.0  0.19022  0.14818  0.51628  1.0000
  C   C98       1.0  0.21177  0.16615  0.49931  1.0000
  C   C99       1.0  0.18855  0.15264  0.48228  1.0000
  C   C100      1.0  0.14412  0.12237  0.48220  1.0000
  H   H71       1.0  0.12932  0.10466  0.52943  1.0000
  H   H72       1.0  0.20762  0.15779  0.52945  1.0000
  H   H73       1.0  0.20505  0.16592  0.46904  1.0000
  H   H74       1.0  0.12664  0.11276  0.46902  1.0000
  C   C101      1.0  0.32124  0.14319  0.61519  1.0000
  C   C102      1.0  0.33073  0.17588  0.60182  1.0000
  C   C103      1.0  0.35376  0.21898  0.60722  1.0000
  C   C104      1.0  0.36779  0.22906  0.62605  1.0000
  H   H75       1.0  0.30269  0.10990  0.61092  1.0000
  H   H76       1.0  0.31947  0.16771  0.58746  1.0000
  H   H77       1.0  0.38597  0.26233  0.63032  1.0000
  C   C105      1.0  0.43045  0.05664  0.60580  1.0000
  C   C106      1.0  0.37686  0.06965  0.62032  1.0000
  C   C107      1.0  0.19890  0.98636  0.38784  1.0000
  C   C108      1.0  0.03025  0.20982  0.45938  1.0000
  C   C109      1.0  0.05009  0.18604  0.45426  1.0000
  C   C110      1.0  0.04189  0.14981  0.46499  1.0000
  P   P4        1.0  0.09002  0.20532  0.43574  1.0000
  C   C111      1.0  0.07524  0.22916  0.41681  1.0000
  C   C112      1.0  0.13976  0.24299  0.44710  1.0000
  C   C113      1.0  0.15320  0.28703  0.44744  1.0000
  C   C114      1.0  0.19144  0.31597  0.45653  1.0000
  C   C115      1.0  0.21605  0.30108  0.46563  1.0000
  C   C116      1.0  0.20203  0.25711  0.46598  1.0000
  C   C117      1.0  0.16378  0.22811  0.45692  1.0000
  C   C118      1.0  0.10695  0.26083  0.40515  1.0000
  C   C119      1.0  0.09529  0.27928  0.39053  1.0000
  C   C120      1.0  0.05191  0.26571  0.38730  1.0000
  C   C121      1.0  0.02015  0.23315  0.39843  1.0000
  C   C122      1.0  0.03172  0.21452  0.41295  1.0000
  C   C123      1.0  0.09268  0.16137  0.42480  1.0000
  C   C124      1.0  0.05453  0.12323  0.42063  1.0000
  C   C125      1.0  0.05603  0.08940  0.41161  1.0000
  C   C126      1.0  0.09558  0.09329  0.40676  1.0000
  C   C127      1.0  0.13371  0.13152  0.41050  1.0000
  C   C128      1.0  0.13230  0.16572  0.41925  1.0000
  H   H78       1.0  0.00117  0.39961  0.32535  1.0000
  C   C129      1.0  0.41921  0.44512  0.59141  1.0000
  H   H79       1.0  0.35636  0.03590  0.55085  1.0000
  H   H80       1.0  0.46593  0.05593  0.51858  1.0000
  H   H81       1.0  0.05815  0.13191  0.46191  1.0000
  H   H82       1.0  0.13413  0.29906  0.44079  1.0000
  H   H83       1.0  0.20204  0.35001  0.45651  1.0000
  H   H84       1.0  0.24585  0.32359  0.47251  1.0000
  H   H85       1.0  0.22076  0.24542  0.47330  1.0000
  H   H86       1.0  0.15287  0.19406  0.45767  1.0000
  H   H87       1.0  0.14062  0.27121  0.40730  1.0000
  H   H88       1.0  0.11984  0.30405  0.38168  1.0000
  C   C130      1.0  0.34662  0.35295  0.63259  1.0000
  C   C131      1.0  0.43493  0.03950  0.62288  1.0000
  S   S22       1.0  0.45787  0.22118  0.51878  1.0000
  H   H89       1.0  0.02352  0.11962  0.42424  1.0000
  H   H90       1.0  0.00693  0.10884  0.48842  1.0000
  H   H91       1.0  0.43970  0.47797  0.59589  1.0000
  H   H92       1.0  0.16436  0.13472  0.40653  1.0000
  H   H93       1.0  0.16210  0.19545  0.42152  1.0000
  C   C132      1.0  0.25326  0.22622  0.57447  1.0000
  C   C133      1.0  0.25997  0.24503  0.59230  1.0000
  C   C134      1.0  0.25328  0.27977  0.59518  1.0000
  C   C135      1.0  0.23942  0.29545  0.58026  1.0000
  C   C136      1.0  0.23147  0.27589  0.56242  1.0000
  C   C137      1.0  0.23916  0.24162  0.55957  1.0000
  P   P5        1.0  0.21417  0.29555  0.54276  1.0000
  C   C138      1.0  0.19417  0.33049  0.55008  1.0000
  C   C139      1.0  0.26006  0.32204  0.52717  1.0000
  C   C140      1.0  0.29383  0.36350  0.53139  1.0000
  C   C141      1.0  0.33057  0.38302  0.51994  1.0000
  C   C142      1.0  0.33430  0.36099  0.50447  1.0000
  C   C143      1.0  0.30129  0.31943  0.50042  1.0000
  C   C144      1.0  0.26431  0.29998  0.51172  1.0000
  C   C145      1.0  0.20497  0.36833  0.54002  1.0000
  C   C146      1.0  0.18808  0.39437  0.54550  1.0000
  C   C147      1.0  0.15965  0.38239  0.56079  1.0000
  C   C148      1.0  0.14771  0.34411  0.57050  1.0000
  C   C149      1.0  0.16460  0.31805  0.56507  1.0000
  C   C150      1.0  0.16880  0.25105  0.53148  1.0000
  C   C151      1.0  0.14341  0.21243  0.54135  1.0000
  C   C152      1.0  0.10829  0.17813  0.53255  1.0000
  C   C153      1.0  0.09803  0.18223  0.51397  1.0000
  C   C154      1.0  0.12208  0.22099  0.50426  1.0000
  C   C155      1.0  0.15727  0.25547  0.51301  1.0000
  H   H94       1.0  0.25987  0.20022  0.57212  1.0000
  H   H95       1.0  0.27134  0.23314  0.60372  1.0000
  H   H96       1.0  0.25934  0.29479  0.60894  1.0000
  H   H97       1.0  0.23537  0.32294  0.58268  1.0000
  H   H98       1.0  0.23486  0.22719  0.54572  1.0000
  H   H99       1.0  0.29213  0.38054  0.54364  1.0000
  H   H100      1.0  0.36348  0.37563  0.49600  1.0000
  H   H101      1.0  0.30507  0.30161  0.48893  1.0000
  H   H102      1.0  0.23994  0.26713  0.50878  1.0000
  H   H103      1.0  0.22583  0.37757  0.52777  1.0000
  H   H104      1.0  0.19670  0.42365  0.53775  1.0000
  H   H105      1.0  0.14639  0.40248  0.56493  1.0000
  H   H106      1.0  0.12500  0.33441  0.58211  1.0000
  H   H107      1.0  0.15432  0.28799  0.57245  1.0000
  H   H108      1.0  0.15066  0.20839  0.55577  1.0000
  H   H109      1.0  0.08953  0.14780  0.53991  1.0000
  H   H110      1.0  0.07179  0.15492  0.50710  1.0000
  H   H111      1.0  0.11361  0.22404  0.48990  1.0000
  H   H112      1.0  0.17572  0.28533  0.50533  1.0000
  H   H113      1.0  0.41607  0.43116  0.54968  1.0000
  H   H114      1.0  0.43839  0.16633  0.55491  1.0000
  C   C156      1.0  0.34055  0.07849  0.57785  1.0000
  P   P6        1.0  0.39639  0.09617  0.58273  1.0000
  Fe  Fe11      1.0  0.01691  0.02508  0.47843  1.0000
  H   H115      1.0  0.35397  0.36810  0.61884  1.0000
  C   C157      1.0  0.39097  0.05148  0.54946  1.0000
  S   S23       1.0  0.02397  0.01419  0.44763  1.0000
  H   H116      1.0  0.36497  0.45450  0.58741  1.0000
  C   C158      1.0  0.35895  0.19636  0.63935  1.0000
  C   C159      1.0  0.28677  0.08909  0.56172  1.0000
  C   C160      1.0  0.41059  0.03767  0.63867  1.0000
  H   H117      1.0  0.23060  0.02678  0.45521  1.0000
  H   H118      1.0  0.22074  0.04035  0.56633  1.0000
  C   C161      1.0  0.36446  0.36083  0.57963  1.0000
  C   C162      1.0  0.44893  0.21849  0.60398  1.0000
  H   H119      1.0  0.01689  0.46076  0.36105  1.0000
  C   C163      1.0  0.40827  0.04211  0.53366  1.0000
  H   H120      1.0  0.27878  0.10818  0.55248  1.0000
  C   C164      1.0  0.33525  0.15316  0.63401  1.0000
  C   C165      1.0  0.37656  0.43185  0.58667  1.0000
  H   H121      1.0  0.35689  0.41480  0.52328  1.0000
  C   C166      1.0  0.41825  0.08157  0.56287  1.0000
  C   C167      1.0  0.34919  0.38971  0.58076  1.0000
  C   C168      1.0  0.34963  0.37684  0.64863  1.0000
  C   C169      1.0  0.46909  0.12589  0.49302  1.0000
  C   C170      1.0  0.25410  0.05082  0.56947  1.0000
  C   C171      1.0  0.33534  0.30984  0.63436  1.0000
  C   C172      1.0  0.40743  0.37432  0.58381  1.0000
  C   C173      1.0  0.42485  0.15416  0.58493  1.0000
  H   H122      1.0  0.35441  0.08147  0.61967  1.0000
  H   H123      1.0  0.31622  0.37943  0.57710  1.0000
  H   H124      1.0  0.09657  0.06674  0.40000  1.0000
  H   H125      1.0  0.00658  0.18868  0.42112  1.0000
  H   H126      1.0  0.20704  0.06940  0.47400  1.0000
  H   H127      1.0  0.03708  0.23866  0.45168  1.0000
  C   C174      1.0  0.01276  0.13655  0.48006  1.0000
  Fe  Fe12      1.0  0.45277  0.01655  0.46734  1.0000
  H   H128      1.0  0.02636  0.06000  0.40846  1.0000
  H   H129      1.0  0.35467  0.13248  0.55962  1.0000
  C   C175      1.0  0.42873  0.17373  0.60256  1.0000
  H   H130      1.0  0.34298  0.32779  0.57565  1.0000
  C   C176      1.0  0.99784  0.46819  0.37053  1.0000
  H   H131      1.0  0.42785  0.35794  0.61862  1.0000
  C   C177      1.0  0.43520  0.41660  0.58975  1.0000
  C   C178      1.0  0.46200  0.22502  0.57033  1.0000
  H   H132      1.0  0.33416  0.29174  0.62193  1.0000
  H   H133      1.0  0.41540  0.15480  0.61522  1.0000
  H   H134      1.0  0.31488  0.01934  0.59403  1.0000
  H   H135      1.0  0.41887  0.35161  0.58256  1.0000
  C   C179      1.0  0.40124  0.07185  0.60437  1.0000
  H   H136      1.0  0.98644  0.22228  0.39584  1.0000
  C   C180      1.0  0.26450  0.02595  0.58116  1.0000
  S   S24       1.0  0.46315  0.01336  0.43600  1.0000
  H   H137      1.0  0.04276  0.28013  0.37608  1.0000
  H   H138      1.0  0.98510  0.21430  0.47798  1.0000
  C   C181      1.0  0.46528  0.24412  0.58786  1.0000
  C   C182      1.0  0.45802  0.45052  0.52561  1.0000
  C   C183      1.0  0.00103  0.19633  0.47442  1.0000
  H   H139      1.0  0.42951  0.03779  0.37563  1.0000
  C   C184      1.0  0.99212  0.15956  0.48470  1.0000
  C   C185      1.0  0.44164  0.18028  0.56880  1.0000
  H   H140      1.0  0.23892  0.99860  0.41220  1.0000
  C   C186      1.0  0.39057  0.01315  0.35057  1.0000
  H   H141      1.0  0.45085  0.23320  0.61755  1.0000
  C   C187      1.0  0.45547  0.37757  0.62738  1.0000
  H   H142      1.0  0.23915  0.99618  0.58711  1.0000
  C   C188      1.0  0.45630  0.36366  0.64576  1.0000
  C   C189      1.0  0.40294  0.01012  0.36897  1.0000
  C   C190      1.0  0.46302  0.10173  0.56026  1.0000
  C   C191      1.0  0.45279  0.06239  0.53117  1.0000
  H   H143      1.0  0.44996  0.05810  0.59387  1.0000
  H   H144      1.0  0.42230  0.98948  0.56214  1.0000
  H   H145      1.0  0.36288  0.05173  0.64964  1.0000
  S   S25       1.0  0.32150  0.11038  0.65021  1.0000
  H   H146      1.0  0.24436  0.23977  0.66785  1.0000
  H   H147      1.0  0.35262  0.22984  0.68460  1.0000
  C   C192      1.0  0.27389  0.32748  0.70364  1.0000
  Fe  Fe13      1.0  0.03939  0.30176  0.86358  1.0000
  C   C193      1.0  0.00353  0.11227  0.83707  1.0000
  Fe  Fe14      1.0  0.02931  0.38266  0.87261  1.0000
  H   H148      1.0  0.18362  0.01579  0.77124  1.0000
  S   S26       1.0  0.01309  0.32150  0.88819  1.0000
  H   H149      1.0  0.36112  0.21313  0.73634  1.0000
  P   P7        1.0  0.32133  0.29007  0.69144  1.0000
  H   H150      1.0  0.18624  0.11568  0.69435  1.0000
  H   H151      1.0  0.30207  0.21943  0.71739  1.0000
  C   C194      1.0  0.41493  0.02464  0.75077  1.0000
  C   C195      1.0  0.01967  0.17504  0.85670  1.0000
  C   C196      1.0  0.01758  0.13498  0.85419  1.0000
  C   C197      1.0  0.40741  0.33140  0.70262  1.0000
  S   S27       1.0  0.97522  0.40044  0.87357  1.0000
  H   H152      1.0  0.03045  0.19190  0.86997  1.0000
  C   C198      1.0  0.27722  0.20768  0.70669  1.0000
  Fe  Fe15      1.0  0.30212  0.07387  0.71993  1.0000
  S   S28       1.0  0.36674  0.08829  0.73153  1.0000
  S   S29       1.0  0.24547  0.04225  0.74095  1.0000
  Fe  Fe16      1.0  0.34132  0.10981  0.68084  1.0000
  S   S30       1.0  0.40822  0.12718  0.68985  1.0000
  C   C199      1.0  0.45317  0.29986  0.70010  1.0000
  Fe  Fe17      1.0  0.37834  0.06238  0.70433  1.0000
  S   S31       1.0  0.39886  0.01073  0.69939  1.0000
  Fe  Fe18      1.0  0.39225  0.15174  0.71640  1.0000
  S   S32       1.0  0.44225  0.21470  0.73019  1.0000
  S   S33       1.0  0.31164  0.04364  0.69389  1.0000
  S   S34       1.0  0.32743  0.13889  0.70627  1.0000
  C   C200      1.0  0.45269  0.32102  0.75631  1.0000
  S   S35       1.0  0.05056  0.36025  0.84719  1.0000
  Fe  Fe19      1.0  0.08138  0.35739  0.89906  1.0000
  S   S36       1.0  0.09686  0.41925  0.88407  1.0000
  S   S37       1.0  0.08551  0.35741  0.93145  1.0000
  Fe  Fe20      1.0  0.11701  0.39194  0.85975  1.0000
  S   S38       1.0  0.16859  0.42591  0.83690  1.0000
  S   S39       1.0  0.10654  0.33296  0.87553  1.0000
  Fe  Fe21      1.0  0.43216  0.41599  0.78025  1.0000
  S   S40       1.0  0.43745  0.42662  0.81162  1.0000
  S   S41       1.0  0.39544  0.34729  0.76865  1.0000
  C   C201      1.0  0.99108  0.16902  0.82531  1.0000
  H   H153      1.0  0.00836  0.46156  0.77547  1.0000
  S   S42       1.0  0.39710  0.45305  0.77631  1.0000
  C   C202      1.0  0.10712  0.34832  0.96777  1.0000
  C   C203      1.0  0.11882  0.35187  0.94857  1.0000
  C   C204      1.0  0.15655  0.35166  0.94374  1.0000
  C   C205      1.0  0.18171  0.34716  0.95792  1.0000
  H   H154      1.0  0.07812  0.34862  0.97171  1.0000
  H   H155      1.0  0.16625  0.35481  0.92908  1.0000
  H   H156      1.0  0.21060  0.34665  0.95401  1.0000
  C   C206      1.0  0.30607  0.44721  0.83227  1.0000
  H   H157      1.0  0.42927  0.33414  0.65107  1.0000
  H   H158      1.0  0.12291  0.45176  0.79710  1.0000
  C   C207      1.0  0.22037  0.43102  0.83535  1.0000
  C   C208      1.0  0.24177  0.42837  0.85130  1.0000
  C   C209      1.0  0.28453  0.43698  0.84979  1.0000
  C   C210      1.0  0.09882  0.45268  0.80602  1.0000
  C   C211      1.0  0.03653  0.45150  0.83010  1.0000
  H   H159      1.0  0.22589  0.42110  0.86492  1.0000
  C   C212      1.0  0.99757  0.40596  0.92305  1.0000
  H   H160      1.0  0.35009  0.32201  0.73028  1.0000
  H   H161      1.0  0.27300  0.37854  0.74402  1.0000
  C   C213      1.0  0.44741  0.33426  0.70515  1.0000
  C   C214      1.0  0.19446  0.03980  0.74265  1.0000
  C   C215      1.0  0.17675  0.05113  0.72763  1.0000
  C   C216      1.0  0.13559  0.04708  0.72944  1.0000
  C   C217      1.0  0.11144  0.03184  0.74627  1.0000
  H   H162      1.0  0.19423  0.06175  0.71445  1.0000
  H   H163      1.0  0.12196  0.05502  0.71756  1.0000
  C   C218      1.0  0.97803  0.42757  0.74997  1.0000
  C   C219      1.0  0.99025  0.12961  0.82261  1.0000
  H   H164      1.0  0.25788  0.31799  0.69010  1.0000
  C   C220      1.0  0.42917  0.25168  0.74077  1.0000
  S   S43       1.0  0.36029  0.45859  0.83149  1.0000
  H   H165      1.0  0.18663  0.16382  0.66912  1.0000
  C   C221      1.0  0.40999  0.31166  0.75787  1.0000
  C   C222      1.0  0.37713  0.27239  0.75069  1.0000
  C   C223      1.0  0.38668  0.24289  0.74199  1.0000
  H   H166      1.0  0.34395  0.26457  0.75184  1.0000
  H   H167      1.0  0.23662  0.35620  0.71291  1.0000
  C   C224      1.0  0.11550  0.11302  0.86351  1.0000
  C   C225      1.0  0.14755  0.10188  0.86482  1.0000
  C   C226      1.0  0.19089  0.13396  0.86437  1.0000
  C   C227      1.0  0.20219  0.17716  0.86239  1.0000
  C   C228      1.0  0.17010  0.18842  0.86043  1.0000
  C   C229      1.0  0.12681  0.15614  0.86169  1.0000
  P   P8        1.0  0.18335  0.24399  0.85949  1.0000
  C   C230      1.0  0.23835  0.27990  0.85243  1.0000
  C   C231      1.0  0.15101  0.25333  0.84273  1.0000
  C   C232      1.0  0.15225  0.29305  0.84276  1.0000
  C   C233      1.0  0.12624  0.30042  0.83040  1.0000
  C   C234      1.0  0.09920  0.26842  0.81781  1.0000
  C   C235      1.0  0.09880  0.22933  0.81728  1.0000
  C   C236      1.0  0.12474  0.22182  0.82962  1.0000
  C   C237      1.0  0.25717  0.26819  0.83789  1.0000
  C   C238      1.0  0.29935  0.29663  0.83200  1.0000
  C   C239      1.0  0.32247  0.33734  0.84014  1.0000
  C   C240      1.0  0.30364  0.34951  0.85431  1.0000
  C   C241      1.0  0.26163  0.32112  0.86036  1.0000
  C   C242      1.0  0.17273  0.25517  0.88309  1.0000
  C   C243      1.0  0.20207  0.26233  0.89765  1.0000
  C   C244      1.0  0.19251  0.26787  0.91625  1.0000
  C   C245      1.0  0.15343  0.26578  0.92045  1.0000
  C   C246      1.0  0.12403  0.25855  0.90605  1.0000
  C   C247      1.0  0.13338  0.25281  0.88746  1.0000
  H   H168      1.0  0.08177  0.08830  0.86394  1.0000
  H   H169      1.0  0.13867  0.06840  0.86634  1.0000
  H   H170      1.0  0.21570  0.12534  0.86579  1.0000
  H   H171      1.0  0.23583  0.20157  0.86279  1.0000
  H   H172      1.0  0.10176  0.16448  0.86133  1.0000
  H   H173      1.0  0.17269  0.31810  0.85257  1.0000
  H   H174      1.0  0.12628  0.33064  0.83090  1.0000
  H   H175      1.0  0.07770  0.27350  0.80884  1.0000
  H   H176      1.0  0.07728  0.20425  0.80773  1.0000
  H   H177      1.0  0.12372  0.19129  0.82891  1.0000
  H   H178      1.0  0.23904  0.23739  0.83093  1.0000
  H   H179      1.0  0.31389  0.28774  0.82078  1.0000
  H   H180      1.0  0.35470  0.35993  0.83525  1.0000
  H   H181      1.0  0.32153  0.38141  0.86033  1.0000
  H   H182      1.0  0.24720  0.33176  0.87096  1.0000
  H   H183      1.0  0.23205  0.26305  0.89468  1.0000
  H   H184      1.0  0.21512  0.27337  0.92751  1.0000
  H   H185      1.0  0.14575  0.26952  0.93490  1.0000
  H   H186      1.0  0.09379  0.25715  0.90935  1.0000
  H   H187      1.0  0.10956  0.24602  0.87662  1.0000
  C   C248      1.0  0.15203  0.10373  0.81596  1.0000
  C   C249      1.0  0.11000  0.09632  0.81508  1.0000
  C   C250      1.0  0.10014  0.12109  0.80312  1.0000
  C   C251      1.0  0.13228  0.15310  0.79187  1.0000
  C   C252      1.0  0.17466  0.16052  0.79250  1.0000
  C   C253      1.0  0.18435  0.13587  0.80485  1.0000
  P   P9        1.0  0.21536  0.19938  0.77673  1.0000
  C   C254      1.0  0.25914  0.18815  0.77530  1.0000
  C   C255      1.0  0.19182  0.19258  0.75356  1.0000
  C   C256      1.0  0.15816  0.15219  0.74790  1.0000
  C   C257      1.0  0.13832  0.14741  0.73042  1.0000
  C   C258      1.0  0.15257  0.18254  0.71824  1.0000
  C   C259      1.0  0.18694  0.22250  0.72349  1.0000
  C   C260      1.0  0.20658  0.22760  0.74109  1.0000
  C   C261      1.0  0.29296  0.20621  0.78842  1.0000
  C   C262      1.0  0.32675  0.19743  0.78733  1.0000
  C   C263      1.0  0.32653  0.16980  0.77341  1.0000
  C   C264      1.0  0.29246  0.15084  0.76066  1.0000
  C   C265      1.0  0.25865  0.15956  0.76168  1.0000
  C   C266      1.0  0.23411  0.25384  0.78474  1.0000
  C   C267      1.0  0.20590  0.26427  0.79400  1.0000
  C   C268      1.0  0.22048  0.30607  0.80053  1.0000
  C   C269      1.0  0.26336  0.33780  0.79794  1.0000
  C   C270      1.0  0.29142  0.32808  0.78833  1.0000
  C   C271      1.0  0.27676  0.28655  0.78143  1.0000
  H   H188      1.0  0.15930  0.08388  0.82502  1.0000
  H   H189      1.0  0.08485  0.07098  0.82353  1.0000
  H   H190      1.0  0.06727  0.11479  0.80239  1.0000
  H   H191      1.0  0.12365  0.17107  0.78227  1.0000
  H   H192      1.0  0.21641  0.14029  0.80558  1.0000
  H   H193      1.0  0.14674  0.12422  0.75699  1.0000
  H   H194      1.0  0.11161  0.11628  0.72646  1.0000
  H   H195      1.0  0.13710  0.17860  0.70468  1.0000
  H   H196      1.0  0.19815  0.24953  0.71394  1.0000
  H   H197      1.0  0.23303  0.25882  0.74495  1.0000
  H   H198      1.0  0.29326  0.22703  0.79950  1.0000
  H   H199      1.0  0.35330  0.21228  0.79716  1.0000
  H   H200      1.0  0.35290  0.16328  0.77235  1.0000
  H   H201      1.0  0.29230  0.12928  0.74996  1.0000
  H   H202      1.0  0.23200  0.14340  0.75201  1.0000
  H   H203      1.0  0.17264  0.24034  0.79619  1.0000
  H   H204      1.0  0.19869  0.31391  0.80777  1.0000
  H   H205      1.0  0.27495  0.36984  0.80350  1.0000
  H   H206      1.0  0.32478  0.35273  0.78646  1.0000
  H   H207      1.0  0.29902  0.28016  0.77370  1.0000
  C   C272      1.0  0.28442  0.44914  0.81623  1.0000
  H   H208      1.0  0.44579  0.34486  0.81535  1.0000
  H   H209      1.0  0.97867  0.32768  0.79695  1.0000
  C   C273      1.0  0.31418  0.35204  0.73875  1.0000
  C   C274      1.0  0.28203  0.36150  0.73405  1.0000
  C   C275      1.0  0.26169  0.34901  0.71652  1.0000
  H   H210      1.0  0.40390  0.35881  0.70617  1.0000
  C   C276      1.0  0.98258  0.43520  0.92325  1.0000
  H   H211      1.0  0.33037  0.36215  0.75221  1.0000
  C   C277      1.0  0.32584  0.32979  0.72607  1.0000
  H   H212      1.0  0.22566  0.44367  0.80539  1.0000
  C   C278      1.0  0.21170  0.14901  0.69380  1.0000
  C   C279      1.0  0.30649  0.31823  0.70824  1.0000
  C   C280      1.0  0.24500  0.21912  0.67883  1.0000
  H   H213      1.0  0.99701  0.45509  0.74094  1.0000
  C   C281      1.0  0.41890  0.26247  0.69264  1.0000
  H   H214      1.0  0.01255  0.44978  0.83983  1.0000
  C   C282      1.0  0.37239  0.29332  0.69576  1.0000
  C   C283      1.0  0.16978  0.34324  0.97711  1.0000
  H   H215      1.0  0.98760  0.45501  0.91090  1.0000
  C   C284      1.0  0.37867  0.25916  0.69045  1.0000
  H   H216      1.0  0.02655  0.12123  0.86569  1.0000
  H   H217      1.0  0.34488  0.37695  0.67879  1.0000
  S   S44       1.0  0.05970  0.02792  0.74774  1.0000
  S   S45       1.0  0.00392  0.06299  0.83445  1.0000
  Fe  Fe22      1.0  0.98084  0.01596  0.80937  1.0000
  C   C285      1.0  0.17050  0.02485  0.75952  1.0000
  H   H218      1.0  0.42322  0.23547  0.68910  1.0000
  H   H219      1.0  0.24377  0.14365  0.71841  1.0000
  C   C286      1.0  0.34099  0.35751  0.66647  1.0000
  H   H220      1.0  0.01407  0.40346  0.91069  1.0000
  C   C287      1.0  0.13231  0.34395  0.98195  1.0000
  C   C288      1.0  0.21198  0.17620  0.67959  1.0000
  S   S46       1.0  0.00601  0.24166  0.84475  1.0000
  C   C289      1.0  0.24410  0.16484  0.70741  1.0000
  C   C290      1.0  0.27855  0.23479  0.69206  1.0000
  C   C291      1.0  0.32870  0.31389  0.66833  1.0000
  C   C292      1.0  0.05554  0.43111  0.80062  1.0000
  C   C293      1.0  0.00624  0.19229  0.84227  1.0000
  C   C294      1.0  0.41326  0.98870  0.75947  1.0000
  C   C295      1.0  0.19814  0.45240  0.98097  1.0000
  C   C296      1.0  0.12942  0.02102  0.76136  1.0000
  H   H221      1.0  0.30118  0.43623  0.86237  1.0000
  Fe  Fe23      1.0  0.00695  0.99825  0.77086  1.0000
  H   H222      1.0  0.11153  0.00935  0.77442  1.0000
  C   C297      1.0  0.45290  0.06446  0.75099  1.0000
  C   C298      1.0  0.24185  0.44124  0.81780  1.0000
  H   H223      1.0  0.04654  0.41353  0.78746  1.0000
  C   C299      1.0  0.32677  0.29037  0.65217  1.0000
  H   H224      1.0  0.38736  0.02194  0.74341  1.0000
  C   C300      1.0  0.43633  0.99154  0.70282  1.0000
  Fe  Fe24      1.0  0.40651  0.46700  0.80741  1.0000
  C   C301      1.0  0.46214  0.29106  0.74787  1.0000
  C   C302      1.0  0.45035  0.99320  0.76830  1.0000
  C   C303      1.0  0.99114  0.37970  0.93869  1.0000
  C   C304      1.0  0.20083  0.46184  0.96172  1.0000
  S   S47       1.0  0.01853  0.98350  0.80042  1.0000
  H   H225      1.0  0.00304  0.35721  0.93846  1.0000
  C   C305      1.0  0.02418  0.43114  0.81252  1.0000
  C   C306      1.0  0.11092  0.47402  0.82335  1.0000
  H   H226      1.0  0.45402  0.09178  0.74391  1.0000
  H   H227      1.0  0.30069  0.45747  0.80270  1.0000
  C   C307      1.0  0.07974  0.47316  0.83545  1.0000
  H   H228      1.0  0.31941  0.25725  0.65333  1.0000
  C   C308      1.0  0.98452  0.43108  0.76952  1.0000
  H   H229      1.0  0.41434  0.02492  0.65202  1.0000
  H   H230      1.0  0.97886  0.11242  0.80943  1.0000
  H   H231      1.0  0.98012  0.18170  0.81411  1.0000
  H   H232      1.0  0.37011  0.20444  0.65374  1.0000
  H   H233      1.0  0.17173  0.44876  0.95332  1.0000
  H   H234      1.0  0.03424  0.64903  0.27916  1.0000
  H   H235      1.0  0.05498  0.51662  0.29738  1.0000
  C   C309      1.0  0.36653  0.56266  0.98793  1.0000
  H   H236      1.0  0.06294  0.74805  0.18547  1.0000
  H   H237      1.0  0.07442  0.55810  0.26766  1.0000
  S   S48       1.0  0.02128  0.59719  0.17002  1.0000
  H   H238      1.0  0.05004  0.67394  0.19141  1.0000
  H   H239      1.0  0.06573  0.91444  0.19971  1.0000
  Fe  Fe25      1.0  0.30040  0.89960  0.21791  1.0000
  S   S49       1.0  0.25575  0.92491  0.22552  1.0000
  S   S50       1.0  0.37137  0.93718  0.22801  1.0000
  Fe  Fe26      1.0  0.22335  0.81427  0.20350  1.0000
  S   S51       1.0  0.17415  0.83351  0.21028  1.0000
  S   S52       1.0  0.20882  0.75105  0.18980  1.0000
  Fe  Fe27      1.0  0.22165  0.89768  0.19789  1.0000
  S   S53       1.0  0.20349  0.93313  0.17587  1.0000
  Fe  Fe28      1.0  0.21137  0.85890  0.23741  1.0000
  S   S54       1.0  0.17580  0.85267  0.26496  1.0000
  S   S55       1.0  0.26960  0.87708  0.18932  1.0000
  S   S56       1.0  0.25718  0.83487  0.23158  1.0000
  H   H240      1.0  0.43131  0.48216  0.08305  1.0000
  H   H241      1.0  0.98452  0.69375  0.17072  1.0000
  C   C310      1.0  0.19259  0.69115  0.27258  1.0000
  C   C311      1.0  0.16936  0.81591  0.28315  1.0000
  C   C312      1.0  0.13733  0.80540  0.29695  1.0000
  C   C313      1.0  0.09268  0.75492  0.25038  1.0000
  C   C314      1.0  0.19139  0.77074  0.29974  1.0000
  C   C315      1.0  0.19615  0.79810  0.28452  1.0000
  C   C316      1.0  0.10220  0.94235  0.15474  1.0000
  H   H242      1.0  0.22105  0.80605  0.27407  1.0000
  H   H243      1.0  0.02005  0.81381  0.22243  1.0000
  C   C317      1.0  0.23724  0.71588  0.27035  1.0000
  H   H244      1.0  0.24215  0.73054  0.22275  1.0000
  C   C318      1.0  0.40701  0.64074  0.98910  1.0000
  C   C319      1.0  0.15644  0.70835  0.18456  1.0000
  C   C320      1.0  0.15186  0.67347  0.17376  1.0000
  C   C321      1.0  0.11080  0.63923  0.16902  1.0000
  C   C322      1.0  0.07389  0.63938  0.17527  1.0000
  C   C323      1.0  0.07847  0.67390  0.18634  1.0000
  C   C324      1.0  0.11950  0.70834  0.19091  1.0000
  H   H245      1.0  0.18029  0.67314  0.16886  1.0000
  H   H246      1.0  0.10774  0.61275  0.16059  1.0000
  H   H247      1.0  0.12259  0.73481  0.19934  1.0000
  C   C325      1.0  0.07455  0.93236  0.17029  1.0000
  C   C326      1.0  0.08640  0.92159  0.18751  1.0000
  C   C327      1.0  0.12481  0.92011  0.18921  1.0000
  C   C328      1.0  0.15284  0.93086  0.17383  1.0000
  C   C329      1.0  0.15944  0.76029  0.31354  1.0000
  C   C330      1.0  0.99330  0.78650  0.12475  1.0000
  H   H248      1.0  0.13321  0.91169  0.20259  1.0000
  S   S57       1.0  0.02530  0.93331  0.16936  1.0000
  C   C331      1.0  0.22833  0.71926  0.23667  1.0000
  H   H249      1.0  0.30245  0.90886  0.26061  1.0000
  C   C332      1.0  0.05101  0.67853  0.27111  1.0000
  C   C333      1.0  0.33796  0.51024  0.03605  1.0000
  C   C334      1.0  0.04810  0.76768  0.18736  1.0000
  H   H250      1.0  0.09902  0.95501  0.08002  1.0000
  S   S58       1.0  0.99181  0.93891  0.11532  1.0000
  C   C335      1.0  0.30034  0.90578  0.27586  1.0000
  H   H251      1.0  0.05189  0.76693  0.21766  1.0000
  C   C336      1.0  0.03636  0.70802  0.27198  1.0000
  C   C337      1.0  0.97447  0.52239  0.99388  1.0000
  C   C338      1.0  0.28147  0.92507  0.28628  1.0000
  S   S59       1.0  0.00114  0.53021  0.12060  1.0000
  H   H252      1.0  0.26872  0.53824  0.01627  1.0000
  H   H253      1.0  0.34558  0.50570  0.06601  1.0000
  H   H254      1.0  0.04686  0.76979  0.26271  1.0000
  H   H255      1.0  0.99567  0.66143  0.04787  1.0000
  C   C339      1.0  0.42532  0.96379  0.21864  1.0000
  C   C340      1.0  0.25510  0.73001  0.25241  1.0000
  H   H256      1.0  0.28964  0.74964  0.25067  1.0000
  C   C341      1.0  0.07746  0.57452  0.28085  1.0000
  H   H257      1.0  0.33039  0.86694  0.27687  1.0000
  C   C342      1.0  0.27693  0.53362  0.04598  1.0000
  H   H258      1.0  0.31709  0.96246  0.16408  1.0000
  C   C343      1.0  0.01848  0.80985  0.17440  1.0000
  Fe  Fe29      1.0  0.99637  0.53663  0.15210  1.0000
  H   H259      1.0  0.10386  0.55260  0.20964  1.0000
  C   C344      1.0  0.09251  0.61895  0.28121  1.0000
  C   C345      1.0  0.98705  0.65605  0.11965  1.0000
  C   C346      1.0  0.02546  0.57770  0.21744  1.0000
  H   H260      1.0  0.99532  0.57207  0.21143  1.0000
  C   C347      1.0  0.10514  0.59481  0.23158  1.0000
  H   H261      1.0  0.08429  0.89883  0.10901  1.0000
  H   H262      1.0  0.21294  0.75801  0.30097  1.0000
  C   C348      1.0  0.28592  0.53121  0.02693  1.0000
  H   H263      1.0  0.00964  0.87154  0.09756  1.0000
  H   H264      1.0  0.11641  0.81896  0.29597  1.0000
  C   C349      1.0  0.31541  0.51800  0.02180  1.0000
  P   P10       1.0  0.10752  0.65039  0.25964  1.0000
  C   C350      1.0  0.08389  0.61476  0.23977  1.0000
  C   C351      1.0  0.10776  0.72583  0.24963  1.0000
  C   C352      1.0  0.08739  0.68760  0.26020  1.0000
  C   C353      1.0  0.16539  0.68044  0.25683  1.0000
  C   C354      1.0  0.14135  0.94212  0.15660  1.0000
  C   C355      1.0  0.17621  0.82927  0.15523  1.0000
  C   C356      1.0  0.18584  0.79735  0.15038  1.0000
  C   C357      1.0  0.15309  0.75717  0.14451  1.0000
  C   C358      1.0  0.11070  0.74883  0.14348  1.0000
  C   C359      1.0  0.10073  0.78101  0.14812  1.0000
  C   C360      1.0  0.13383  0.82103  0.15439  1.0000
  P   P11       1.0  0.04566  0.77000  0.14816  1.0000
  C   C361      1.0  0.03555  0.80141  0.13108  1.0000
  C   C362      1.0  0.01062  0.71399  0.14249  1.0000
  C   C363      1.0  0.01083  0.69979  0.12402  1.0000
  C   C364      1.0  0.31607  0.88208  0.28509  1.0000
  H   H265      1.0  0.45436  0.98100  0.24622  1.0000
  H   H266      1.0  0.16289  0.95076  0.14462  1.0000
  H   H267      1.0  0.02695  0.62115  0.23850  1.0000
  C   C365      1.0  0.04380  0.60588  0.23263  1.0000
  C   C366      1.0  0.01704  0.85187  0.10672  1.0000
  H   H268      1.0  0.10939  0.78494  0.24263  1.0000
  C   C367      1.0  0.05904  0.86713  0.11309  1.0000
  C   C368      1.0  0.06838  0.84202  0.12516  1.0000
  C   C369      1.0  0.98420  0.81152  0.11251  1.0000
  H   H269      1.0  0.15856  0.50399  0.08809  1.0000
  C   C370      1.0  0.01213  0.82030  0.19269  1.0000
  C   C371      1.0  0.29842  0.52443  0.06003  1.0000
  H   H270      1.0  0.25223  0.54116  0.04991  1.0000
  C   C372      1.0  0.08681  0.56690  0.21630  1.0000
  H   H271      1.0  0.20155  0.86014  0.16007  1.0000
  H   H272      1.0  0.21844  0.80324  0.15177  1.0000
  H   H273      1.0  0.16038  0.73192  0.14145  1.0000
  H   H274      1.0  0.08604  0.71671  0.13973  1.0000
  H   H275      1.0  0.12688  0.84564  0.15907  1.0000
  H   H276      1.0  0.03062  0.72247  0.11319  1.0000
  H   H277      1.0  0.25796  0.72460  0.28259  1.0000
  H   H278      1.0  0.35470  0.60157  0.00776  1.0000
  C   C373      1.0  0.13208  0.77737  0.31198  1.0000
  C   C374      1.0  0.03587  0.78283  0.17162  1.0000
  C   C375      1.0  0.37404  0.60148  0.99603  1.0000
  C   C376      1.0  0.32944  0.51350  0.05507  1.0000
  H   H279      1.0  0.40854  0.51575  0.00036  1.0000
  C   C377      1.0  0.07067  0.57126  0.31499  1.0000
  H   H280      1.0  0.10100  0.85500  0.13008  1.0000
  C   C378      1.0  0.06638  0.55079  0.29769  1.0000
  C   C379      1.0  0.43422  0.96658  0.19927  1.0000
  H   H281      1.0  0.13570  0.73386  0.24100  1.0000
  H   H282      1.0  0.13610  0.60116  0.23685  1.0000
  H   H283      1.0  0.32470  0.85841  0.31150  1.0000
  Fe  Fe30      1.0  0.98953  0.94869  0.14644  1.0000
  H   H284      1.0  0.99918  0.84163  0.19467  1.0000
  C   C380      1.0  0.27859  0.92096  0.30596  1.0000
  C   C381      1.0  0.02401  0.80475  0.20830  1.0000
  H   H285      1.0  0.10879  0.67345  0.29930  1.0000
  H   H286      1.0  0.44535  0.59519  0.01017  1.0000
  H   H287      1.0  0.17964  0.68129  0.28666  1.0000
  C   C382      1.0  0.09677  0.63916  0.29866  1.0000
  C   C383      1.0  0.31273  0.87736  0.30475  1.0000
  H   H288      1.0  0.26818  0.94238  0.27900  1.0000
  H   H289      1.0  0.40788  0.95142  0.18939  1.0000
  C   C384      1.0  0.18369  0.69470  0.23883  1.0000
  H   H290      1.0  0.16359  0.68759  0.22642  1.0000
  H   H291      1.0  0.01046  0.82368  0.16259  1.0000
  C   C385      1.0  0.04199  0.77845  0.20562  1.0000
  H   H292      1.0  0.29025  0.52475  0.07476  1.0000
  H   H293      1.0  0.36078  0.49984  0.03268  1.0000
  C   C386      1.0  0.05737  0.74634  0.26170  1.0000
  C   C387      1.0  0.08597  0.61544  0.31546  1.0000
  H   H294      1.0  0.00915  0.70155  0.28087  1.0000
  H   H295      1.0  0.26389  0.93620  0.31378  1.0000
  H   H296      1.0  0.97524  0.59397  0.06554  1.0000
  H   H297      1.0  0.09370  0.95077  0.14139  1.0000
  C   C388      1.0  0.04697  0.55831  0.20926  1.0000
  C   C389      1.0  0.98509  0.68396  0.15635  1.0000
  H   H298      1.0  0.09388  0.49561  0.10497  1.0000
  H   H299      1.0  0.44470  0.56624  0.04206  1.0000
  H   H300      1.0  0.00360  0.54151  0.00194  1.0000
  H   H301      1.0  0.03333  0.53771  0.19704  1.0000
  P   P12       1.0  0.32476  0.51184  0.99717  1.0000
  H   H302      1.0  0.98813  0.64483  0.10556  1.0000
  H   H303      1.0  0.41277  0.67055  0.99550  1.0000
  C   C390      1.0  0.11293  0.97961  0.09079  1.0000
  C   C391      1.0  0.29362  0.89651  0.31536  1.0000
  H   H304      1.0  0.16729  0.97087  0.09573  1.0000
  C   C392      1.0  0.38424  0.48300  0.99732  1.0000
  H   H305      1.0  0.31726  0.93828  0.42263  1.0000
  Fe  Fe31      1.0  0.05360  0.64818  0.38674  1.0000
  S   S60       1.0  0.04711  0.68787  0.36349  1.0000
  H   H306      1.0  0.09253  0.91126  0.38534  1.0000
  Fe  Fe32      1.0  0.06381  0.73996  0.38538  1.0000
  S   S61       1.0  0.03109  0.78113  0.38512  1.0000
  S   S62       1.0  0.06504  0.69853  0.40891  1.0000
  H   H307      1.0  0.03853  0.83320  0.45050  1.0000
  C   C393      1.0  0.23489  0.89454  0.36806  1.0000
  C   C394      1.0  0.38099  0.97129  0.37883  1.0000
  H   H308      1.0  0.04671  0.78823  0.42600  1.0000
  C   C395      1.0  0.28191  0.67468  0.46260  1.0000
  C   C396      1.0  0.03585  0.81030  0.42207  1.0000
  C   C397      1.0  0.02586  0.81280  0.40320  1.0000
  C   C398      1.0  0.25607  0.76809  0.35571  1.0000
  C   C399      1.0  0.30065  0.83149  0.49042  1.0000
  C   C400      1.0  0.25946  0.93888  0.43066  1.0000
  H   H309      1.0  0.04017  0.53729  0.36814  1.0000
  Fe  Fe33      1.0  0.43006  0.94176  0.44039  1.0000
  S   S63       1.0  0.38327  0.89761  0.41790  1.0000
  S   S64       1.0  0.41640  0.94463  0.47101  1.0000
  Fe  Fe34      1.0  0.13592  0.72843  0.40204  1.0000
  S   S65       1.0  0.13501  0.77208  0.37964  1.0000
  S   S66       1.0  0.18448  0.75606  0.42621  1.0000
  Fe  Fe35      1.0  0.11864  0.71738  0.35975  1.0000
  H   H310      1.0  0.29701  0.74212  0.36256  1.0000
  S   S67       1.0  0.12476  0.67527  0.38188  1.0000
  C   C401      1.0  0.32762  0.85961  0.42065  1.0000
  C   C402      1.0  0.30625  0.85223  0.43799  1.0000
  C   C403      1.0  0.26211  0.82120  0.43941  1.0000
  C   C404      1.0  0.23880  0.79771  0.42349  1.0000
  C   C405      1.0  0.26002  0.80575  0.40612  1.0000
  C   C406      1.0  0.30424  0.83607  0.40480  1.0000
  H   H311      1.0  0.32374  0.87013  0.45032  1.0000
  H   H312      1.0  0.24590  0.81519  0.45290  1.0000
  H   H313      1.0  0.24262  0.78760  0.39384  1.0000
  H   H314      1.0  0.32056  0.84084  0.39143  1.0000
  C   C407      1.0  0.33214  0.84613  0.35011  1.0000
  H   H315      1.0  0.24273  0.92292  0.41786  1.0000
  S   S68       1.0  0.15399  0.72460  0.33203  1.0000
  C   C408      1.0  0.25313  0.70633  0.43334  1.0000
  C   C409      1.0  0.01539  0.86370  0.43124  1.0000
  C   C410      1.0  0.01125  0.51181  0.37456  1.0000
  C   C411      1.0  0.25426  0.80471  0.35048  1.0000
  C   C412      1.0  0.30316  0.71909  0.45895  1.0000
  S   S69       1.0  0.00104  0.57690  0.39198  1.0000
  C   C413      1.0  0.23935  0.88483  0.34926  1.0000
  H   H316      1.0  0.30571  0.76850  0.44045  1.0000
  C   C414      1.0  0.45441  0.80909  0.42594  1.0000
  C   C415      1.0  0.30479  0.79880  0.48170  1.0000
  S   S70       1.0  0.00969  0.89467  0.44951  1.0000
  C   C416      1.0  0.19511  0.88733  0.37475  1.0000
  H   H317      1.0  0.42895  0.75792  0.48584  1.0000
  C   C417      1.0  0.37360  0.86307  0.50200  1.0000
  H   H318      1.0  0.36464  0.81137  0.35753  1.0000
  C   C418      1.0  0.30274  0.97681  0.46416  1.0000
  C   C419      1.0  0.33505  0.86365  0.50055  1.0000
  H   H319      1.0  0.33204  0.88927  0.50711  1.0000
  C   C420      1.0  0.44235  0.76959  0.43452  1.0000
  H   H320      1.0  0.41696  0.79119  0.54865  1.0000
  C   C421      1.0  0.23900  0.95032  0.44458  1.0000
  H   H321      1.0  0.13570  0.84657  0.33497  1.0000
  C   C422      1.0  0.24586  0.64655  0.45197  1.0000
  H   H322      1.0  0.29681  0.70385  0.50359  1.0000
  C   C423      1.0  0.41097  0.71980  0.51095  1.0000
  C   C424      1.0  0.45950  0.93695  0.58948  1.0000
  C   C425      1.0  0.43510  0.83279  0.43157  1.0000
  H   H323      1.0  0.20313  0.64080  0.42931  1.0000
  C   C426      1.0  0.15770  0.96190  0.38021  1.0000
  H   H324      1.0  0.27745  0.77395  0.47420  1.0000
  H   H325      1.0  0.10704  0.76915  0.32240  1.0000
  C   C427      1.0  0.29226  0.84408  0.34774  1.0000
  H   H326      1.0  0.19156  0.89389  0.38932  1.0000
  C   C428      1.0  0.44740  0.80548  0.55606  1.0000
  C   C429      1.0  0.37813  0.83093  0.49300  1.0000
  H   H327      1.0  0.98493  0.56674  0.34961  1.0000
  C   C430      1.0  0.12464  0.93003  0.39112  1.0000
  C   C431      1.0  0.13283  0.92223  0.40957  1.0000
  C   C432      1.0  0.17433  0.94583  0.41716  1.0000
  C   C433      1.0  0.23127  0.66243  0.43746  1.0000
  P   P13       1.0  0.18390  0.93732  0.44133  1.0000
  C   C434      1.0  0.28909  0.73454  0.44393  1.0000
  C   C435      1.0  0.15328  0.88108  0.44740  1.0000
  C   C436      1.0  0.13846  0.86822  0.46596  1.0000
  C   C437      1.0  0.11669  0.82460  0.47084  1.0000
  C   C438      1.0  0.11045  0.79369  0.45732  1.0000
  C   C439      1.0  0.12594  0.80641  0.43897  1.0000
  C   C440      1.0  0.14733  0.84985  0.43400  1.0000
  H   H328      1.0  0.44431  0.86118  0.56427  1.0000
  C   C441      1.0  0.33383  0.80948  0.35545  1.0000
  H   H329      1.0  0.44308  0.72477  0.51311  1.0000
  H   H330      1.0  0.40120  0.72261  0.45488  1.0000
  H   H331      1.0  0.22644  0.73786  0.35780  1.0000
  C   C442      1.0  0.46323  0.84537  0.56490  1.0000
  H   H332      1.0  0.06235  0.55304  0.32807  1.0000
  H   H333      1.0  0.12828  0.86349  0.36814  1.0000
  H   H334      1.0  0.38957  0.83634  0.45000  1.0000
  C   C443      1.0  0.45336  0.50071  0.54745  1.0000
  H   H335      1.0  0.31174  0.67129  0.53126  1.0000
  H   H336      1.0  0.00224  0.84281  0.38397  1.0000
  H   H337      1.0  0.38473  0.68107  0.53594  1.0000
  C   C444      1.0  0.30157  0.94726  0.43334  1.0000
  H   H338      1.0  0.10670  0.89795  0.41794  1.0000
  P   P14       1.0  0.29000  0.89139  0.34087  1.0000
  H   H339      1.0  0.14405  0.89183  0.47672  1.0000
  H   H340      1.0  0.10508  0.81477  0.48513  1.0000
  H   H341      1.0  0.09402  0.75988  0.46104  1.0000
  H   H342      1.0  0.12144  0.78254  0.42853  1.0000
  H   H343      1.0  0.15950  0.85882  0.41975  1.0000
  C   C445      1.0  0.29579  0.77049  0.35831  1.0000
  H   H344      1.0  0.44333  0.86272  0.42449  1.0000
  C   C446      1.0  0.03066  0.83556  0.43597  1.0000
  C   C447      1.0  0.43447  0.95496  0.58393  1.0000
  H   H345      1.0  0.36191  0.87605  0.34790  1.0000
  C   C448      1.0  0.26055  0.96825  0.46159  1.0000
  H   H346      1.0  0.40047  0.88814  0.50972  1.0000
  Fe  Fe36      1.0  0.98642  0.94315  0.45439  1.0000
  C   C449      1.0  0.15946  0.87038  0.36279  1.0000
  H   H347      1.0  0.00362  0.83000  0.49036  1.0000
  H   H348      1.0  0.24196  0.71858  0.42199  1.0000
  C   C450      1.0  0.33414  0.93811  0.35180  1.0000
  H   H349      1.0  0.99431  0.88812  0.40840  1.0000
  H   H350      1.0  0.26164  0.90664  0.37774  1.0000
  H   H351      1.0  0.22924  0.61238  0.45494  1.0000
  C   C451      1.0  0.34672  0.93551  0.37032  1.0000
  C   C452      1.0  0.41106  0.75385  0.44875  1.0000
  H   H352      1.0  0.07766  0.96285  0.47457  1.0000
  H   H353      1.0  0.29319  0.66149  0.47343  1.0000
  H   H354      1.0  0.33012  0.90580  0.37825  1.0000
  H   H355      1.0  0.97490  0.86917  0.50862  1.0000
  C   C453      1.0  0.01038  0.84076  0.39849  1.0000
  H   H356      1.0  0.27081  0.83201  0.48922  1.0000
  C   C454      1.0  0.00557  0.86634  0.41235  1.0000
  H   H357      1.0  0.40846  0.83130  0.49406  1.0000
  H   H358      1.0  0.22308  0.80200  0.34857  1.0000
  H   H359      1.0  0.35604  0.97325  0.45209  1.0000
  C   C455      1.0  0.37814  0.69533  0.52382  1.0000
  C   C456      1.0  0.33703  0.68965  0.52111  1.0000
  C   C457      1.0  0.32860  0.70783  0.50535  1.0000
  C   C458      1.0  0.36104  0.73113  0.49196  1.0000
  C   C459      1.0  0.40264  0.73811  0.49523  1.0000
  P   P15       1.0  0.34997  0.75627  0.47228  1.0000
  C   C460      1.0  0.34382  0.79865  0.48273  1.0000
  C   C461      1.0  0.39267  0.77824  0.45497  1.0000
  C   C462      1.0  0.40454  0.81765  0.44610  1.0000
  C   C463      1.0  0.20316  0.86725  0.33742  1.0000
  C   C464      1.0  0.16357  0.86054  0.34412  1.0000
  H   H360      1.0  0.08982  0.63156  0.32888  1.0000
  H   H361      1.0  0.10054  0.91973  0.45610  1.0000
  H   H362      1.0  0.45234  0.91984  0.60280  1.0000
  H   H363      1.0  0.45901  0.75343  0.54964  1.0000
  H   H364      1.0  0.43927  0.50607  0.55992  1.0000
  C   C465      1.0  0.12444  0.95192  0.46032  1.0000
  C   C466      1.0  0.98708  0.52232  0.38679  1.0000
  C   C467      1.0  0.35631  0.97732  0.34200  1.0000
  C   C468      1.0  0.47107  0.78424  0.55653  1.0000
  H   H365      1.0  0.40893  0.95225  0.59306  1.0000
  C   C469      1.0  0.32332  0.96656  0.45002  1.0000
  H   H366      1.0  0.20512  0.85769  0.32314  1.0000
  H   H367      1.0  0.15129  0.96773  0.36588  1.0000
  C   C470      1.0  0.16784  0.96908  0.45526  1.0000
  C   C471      1.0  0.20711  0.97873  0.40634  1.0000
  H   H368      1.0  0.39057  0.96874  0.39310  1.0000
  S   S71       1.0  0.98322  0.95475  0.48555  1.0000
  C   C472      1.0  0.11126  0.97640  0.47071  1.0000
  C   C473      1.0  0.44193  0.97588  0.56651  1.0000
  C   C474      1.0  0.97439  0.56736  0.31966  1.0000
  H   H369      1.0  0.24482  0.97525  0.47296  1.0000
  H   H370      1.0  0.34732  0.98039  0.32776  1.0000
  H   H371      1.0  0.45700  0.75096  0.43007  1.0000
  H   H372      1.0  0.99710  0.60144  0.31816  1.0000
  C   C475      1.0  0.35780  0.95202  0.79774  1.0000
  C   C476      1.0  0.41234  0.76266  0.80011  1.0000
  H   H373      1.0  0.25941  0.97000  0.72941  1.0000
  C   C477      1.0  0.30169  0.91396  0.70855  1.0000
  C   C478      1.0  0.05874  0.57741  0.92115  1.0000
  H   H374      1.0  0.00845  0.52902  0.96812  1.0000
  H   H375      1.0  0.28732  0.56360  0.86188  1.0000
  H   H376      1.0  0.03777  0.52201  0.93887  1.0000
  H   H377      1.0  0.42043  0.79598  0.79892  1.0000
  C   C479      1.0  0.32965  0.93516  0.74033  1.0000
  H   H378      1.0  0.34780  0.90013  0.72101  1.0000
  H   H379      1.0  0.27341  0.91462  0.82846  1.0000
  H   H380      1.0  0.40750  0.80559  0.74961  1.0000
  H   H381      1.0  0.28994  0.56314  0.79179  1.0000
  C   C480      1.0  0.25025  0.53904  0.83649  1.0000
  H   H382      1.0  0.99308  0.60426  0.89746  1.0000
  C   C481      1.0  0.97705  0.51536  0.97462  1.0000
  H   H383      1.0  0.38857  0.52347  0.75827  1.0000
  C   C482      1.0  0.38242  0.73574  0.81360  1.0000
  C   C483      1.0  0.32801  0.91462  0.72325  1.0000
  P   P16       1.0  0.36416  0.93713  0.75933  1.0000
  C   C484      1.0  0.04639  0.60085  0.90955  1.0000
  H   H384      1.0  0.34888  0.67255  0.82567  1.0000
  H   H385      1.0  0.44562  0.90251  0.69295  1.0000
  H   H386      1.0  0.35646  0.61479  0.73573  1.0000
  H   H387      1.0  0.39633  0.93189  0.68830  1.0000
  H   H388      1.0  0.34518  0.79195  0.76983  1.0000
  C   C485      1.0  0.42493  0.60308  0.96569  1.0000
  H   H389      1.0  0.25722  0.93404  0.69926  1.0000
  C   C486      1.0  0.35329  0.85506  0.76542  1.0000
  C   C487      1.0  0.42627  0.95079  0.69577  1.0000
  H   H390      1.0  0.36723  0.74821  0.82290  1.0000
  C   C488      1.0  0.26884  0.89611  0.79926  1.0000
  H   H391      1.0  0.07046  0.62938  0.90227  1.0000
  C   C489      1.0  0.27614  0.49353  0.98343  1.0000
  C   C490      1.0  0.00282  0.58690  0.90695  1.0000
  H   H392      1.0  0.45814  0.67200  0.96867  1.0000
  C   C491      1.0  0.27686  0.93372  0.71079  1.0000
  C   C492      1.0  0.37229  0.56728  0.74501  1.0000
  H   H393      1.0  0.22040  0.51877  0.84398  1.0000
  H   H394      1.0  0.02883  0.49511  0.87035  1.0000
  C   C493      1.0  0.29086  0.91861  0.81540  1.0000
  C   C494      1.0  0.29121  0.90150  0.78235  1.0000
  H   H395      1.0  0.22180  0.51877  0.80904  1.0000
  H   H396      1.0  0.43404  0.54526  0.84430  1.0000
  C   C495      1.0  0.37212  0.69275  0.81514  1.0000
  H   H397      1.0  0.45010  0.87598  0.73354  1.0000
  C   C496      1.0  0.43198  0.74662  0.78816  1.0000
  Fe  Fe37      1.0  0.46329  0.51126  0.77263  1.0000
  H   H398      1.0  0.37824  0.55059  0.82648  1.0000
  H   H399      1.0  0.45533  0.76734  0.77767  1.0000
  H   H400      1.0  0.37289  0.55603  0.73088  1.0000
  H   H401      1.0  0.00931  0.55235  0.86785  1.0000
  C   C497      1.0  0.33586  0.92971  0.78142  1.0000
  C   C498      1.0  0.28804  0.56422  0.84658  1.0000
  C   C499      1.0  0.45434  0.93397  0.69836  1.0000
  C   C500      1.0  0.39907  0.83044  0.75157  1.0000
  C   C501      1.0  0.46223  0.65190  0.81873  1.0000
  H   H402      1.0  0.27357  0.88387  0.76996  1.0000
  H   H403      1.0  0.23430  0.87473  0.79980  1.0000
  C   C502      1.0  0.42174  0.70373  0.78966  1.0000
  H   H404      1.0  0.35589  0.60854  0.84502  1.0000
  C   C503      1.0  0.37775  0.89523  0.75657  1.0000
  C   C504      1.0  0.02751  0.54016  0.93024  1.0000
  H   H405      1.0  0.35665  0.64143  0.76776  1.0000
  C   C505      1.0  0.98353  0.52605  0.92785  1.0000
  H   H406      1.0  0.44451  0.60365  0.95390  1.0000
  C   C506      1.0  0.39170  0.67634  0.80315  1.0000
  H   H407      1.0  0.32594  0.84845  0.77419  1.0000
  C   C507      1.0  0.98417  0.51920  0.86940  1.0000
  C   C508      1.0  0.36408  0.82287  0.76297  1.0000
  H   H408      1.0  0.39083  0.55057  0.79034  1.0000
  C   C509      1.0  0.25111  0.53910  0.81676  1.0000
  H   H409      1.0  0.30158  0.89926  0.69519  1.0000
  C   C510      1.0  0.32682  0.58937  0.83697  1.0000
  C   C511      1.0  0.32815  0.58899  0.81713  1.0000
  C   C512      1.0  0.28989  0.56404  0.80707  1.0000
  P   P17       1.0  0.37869  0.62079  0.80489  1.0000
  C   C513      1.0  0.42007  0.61690  0.81785  1.0000
  C   C514      1.0  0.37502  0.59896  0.78152  1.0000
  C   C515      1.0  0.36401  0.61587  0.76596  1.0000
  C   C516      1.0  0.36328  0.60048  0.74776  1.0000
  H   H410      1.0  0.43104  0.93259  0.73763  1.0000
  H   H411      1.0  0.09253  0.58777  0.92289  1.0000
  C   C517      1.0  0.38285  0.56477  0.77868  1.0000
  C   C518      1.0  0.41026  0.57846  0.82718  1.0000
  C   C519      1.0  0.27821  0.95411  0.72777  1.0000
  C   C520      1.0  0.38129  0.54898  0.76049  1.0000
  C   C521      1.0  0.30456  0.95497  0.74247  1.0000
  H   H412      1.0  0.43717  0.69196  0.78015  1.0000
  C   C522      1.0  0.42309  0.87007  0.74251  1.0000
  C   C523      1.0  0.41232  0.90220  0.74489  1.0000
  H   H413      1.0  0.44999  0.96589  0.77500  1.0000
  S   S72       1.0  0.47015  0.52789  0.80340  1.0000
  C   C524      1.0  0.44192  0.57530  0.83735  1.0000
  C   C525      1.0  0.33532  0.94645  0.81465  1.0000
  H   H414      1.0  0.30583  0.97177  0.75536  1.0000
  H   H415      1.0  0.30931  0.52197  0.95713  1.0000
  H   H416      1.0  0.38622  0.53424  0.96589  1.0000
  C   C526      1.0  0.99539  0.48668  0.87072  1.0000
  H   H417      1.0  0.08879  0.48814  0.84922  1.0000
  H   H418      1.0  0.35235  0.96402  0.82716  1.0000
  H   H419      1.0  0.47085  0.68184  0.81167  1.0000
  C   C527      1.0  0.24104  0.48713  0.95325  1.0000
  H   H420      1.0  0.39213  0.97396  0.79748  1.0000
  H   H421      1.0  0.14426  0.48989  0.82771  1.0000
  H   H422      1.0  0.99452  0.49125  0.81497  1.0000
  C   C528      1.0  0.39192  0.56378  0.97256  1.0000
  C   C529      1.0  0.27857  0.50304  0.96405  1.0000
  C   C530      1.0  0.43256  0.64155  0.97399  1.0000
  H   H423      1.0  0.24301  0.49377  0.93825  1.0000
  C   C531      1.0  0.77517  0.32804  0.12426  1.0000
  H   H424      1.0  0.66121  0.15072  0.12472  1.0000
  H   H425      1.0  0.73329  0.24924  0.24033  1.0000
  Fe  Fe38      1.0  0.63757  0.07217  0.20530  1.0000
  S   S73       1.0  0.66773  0.05261  0.22833  1.0000
  S   S74       1.0  0.56614  0.03767  0.19566  1.0000
  Fe  Fe39      1.0  0.72770  0.14779  0.19302  1.0000
  S   S75       1.0  0.76312  0.13317  0.21538  1.0000
  S   S76       1.0  0.76428  0.19696  0.16973  1.0000
  Fe  Fe40      1.0  0.72006  0.06381  0.20716  1.0000
  S   S77       1.0  0.74060  0.01310  0.20302  1.0000
  Fe  Fe41      1.0  0.70865  0.12350  0.23454  1.0000
  S   S78       1.0  0.71361  0.15366  0.26353  1.0000
  S   S79       1.0  0.68740  0.07884  0.18377  1.0000
  S   S80       1.0  0.67580  0.14284  0.21250  1.0000
  Fe  Fe42      1.0  0.91945  0.44441  0.15581  1.0000
  S   S81       1.0  0.91743  0.43287  0.12455  1.0000
  S   S82       1.0  0.87621  0.40020  0.17924  1.0000
  H   H426      1.0  0.85849  0.33832  0.04530  1.0000
  C   C532      1.0  0.72490  0.33726  0.08830  1.0000
  H   H427      1.0  0.53755  0.03635  0.26907  1.0000
  H   H428      1.0  0.94354  0.36590  0.21509  1.0000
  H   H429      1.0  0.94812  0.13824  0.06625  1.0000
  C   C533      1.0  0.75219  0.16366  0.28138  1.0000
  C   C534      1.0  0.78355  0.15168  0.27938  1.0000
  C   C535      1.0  0.81321  0.15989  0.29405  1.0000
  C   C536      1.0  0.70736  0.21353  0.11406  1.0000
  C   C537      1.0  0.75093  0.18395  0.29817  1.0000
  H   H430      1.0  0.78477  0.13582  0.26660  1.0000
  H   H431      1.0  0.72682  0.19329  0.29990  1.0000
  C   C538      1.0  0.79617  0.25323  0.17291  1.0000
  C   C539      1.0  0.79250  0.27343  0.18908  1.0000
  C   C540      1.0  0.81763  0.31843  0.19093  1.0000
  C   C541      1.0  0.84654  0.34359  0.17662  1.0000
  C   C542      1.0  0.85042  0.32335  0.16048  1.0000
  C   C543      1.0  0.82524  0.27837  0.15863  1.0000
  H   H432      1.0  0.76973  0.25432  0.19997  1.0000
  H   H433      1.0  0.81414  0.33391  0.20335  1.0000
  H   H434      1.0  0.87264  0.34245  0.14944  1.0000
  H   H435      1.0  0.82838  0.26298  0.14612  1.0000
  H   H436      1.0  0.84771  0.23624  0.23064  1.0000
  H   H437      1.0  0.77860  0.28017  0.29741  1.0000
  C   C544      1.0  0.85046  0.01430  0.16795  1.0000
  C   C545      1.0  0.84849  0.05224  0.17030  1.0000
  C   C546      1.0  0.81556  0.05253  0.18116  1.0000
  C   C547      1.0  0.78350  0.01467  0.18952  1.0000
  H   H438      1.0  0.69225  0.36876  0.07670  1.0000
  H   H439      1.0  0.85355  0.31149  0.28607  1.0000
  H   H440      1.0  0.87258  0.08164  0.16368  1.0000
  H   H441      1.0  0.81505  0.08205  0.18320  1.0000
  H   H442      1.0  0.74477  0.36430  0.09730  1.0000
  H   H443      1.0  0.92720  0.36775  0.06299  1.0000
  C   C548      1.0  0.71577  0.05981  0.06874  1.0000
  C   C549      1.0  0.96091  0.26228  0.10769  1.0000
  C   C550      1.0  0.81206  0.18040  0.31077  1.0000
  H   H444      1.0  0.89968  0.26492  0.17441  1.0000
  H   H445      1.0  0.95526  0.07513  0.11003  1.0000
  H   H446      1.0  0.82827  0.43161  0.14004  1.0000
  C   C551      1.0  0.92279  0.33235  0.21171  1.0000
  C   C552      1.0  0.48376  0.12715  0.20270  1.0000
  C   C553      1.0  0.89876  0.27528  0.18866  1.0000
  H   H447      1.0  0.86421  0.24658  0.27450  1.0000
  C   C554      1.0  0.94591  0.31075  0.12566  1.0000
  C   C555      1.0  0.94705  0.46769  0.25125  1.0000
  C   C556      1.0  0.80658  0.39717  0.14013  1.0000
  H   H448      1.0  0.59704  0.19098  0.17936  1.0000
  H   H449      1.0  0.95398  0.24158  0.09559  1.0000
  H   H450      1.0  0.88560  0.03780  0.05792  1.0000
  H   H451      1.0  0.73854  0.07007  0.31033  1.0000
  C   C557      1.0  0.91310  0.37829  0.24988  1.0000
  H   H452      1.0  0.73979  0.31673  0.16979  1.0000
  C   C558      1.0  0.49634  0.16636  0.19347  1.0000
  H   H453      1.0  0.82030  0.38911  0.11142  1.0000
  H   H454      1.0  0.73066  0.38078  0.30273  1.0000
  C   C559      1.0  0.76213  0.38524  0.29939  1.0000
  C   C560      1.0  0.89897  0.26616  0.27470  1.0000
  C   C561      1.0  0.77937  0.00289  0.12457  1.0000
  C   C562      1.0  0.62240  0.10665  0.29579  1.0000
  C   C563      1.0  0.90343  0.39938  0.23563  1.0000
  C   C564      1.0  0.78353  0.37703  0.15650  1.0000
  H   H455      1.0  0.50299  0.08056  0.20989  1.0000
  H   H456      1.0  0.90552  0.22448  0.29470  1.0000
  C   C565      1.0  0.74631  0.09737  0.07774  1.0000
  C   C566      1.0  0.92056  0.30374  0.26372  1.0000
  C   C567      1.0  0.88749  0.04692  0.07262  1.0000
  C   C568      1.0  0.74155  0.01894  0.08608  1.0000
  C   C569      1.0  0.77185  0.05642  0.09541  1.0000
  C   C570      1.0  0.77449  0.09578  0.09091  1.0000
  P   P18       1.0  0.80811  0.05410  0.11242  1.0000
  C   C571      1.0  0.53850  0.03798  0.29953  1.0000
  C   C572      1.0  0.85462  0.05800  0.10053  1.0000
  C   C573      1.0  0.89215  0.06872  0.11078  1.0000
  H   H457      1.0  0.81976  0.45983  0.10914  1.0000
  C   C574      1.0  0.75651  0.33249  0.15688  1.0000
  H   H458      1.0  0.63131  0.18001  0.31032  1.0000
  C   C575      1.0  0.85261  0.04720  0.08134  1.0000
  C   C576      1.0  0.93846  0.40217  0.26526  1.0000
  C   C577      1.0  0.83457  0.40475  0.30920  1.0000
  C   C578      1.0  0.92082  0.44394  0.23619  1.0000
  C   C579      1.0  0.78076  0.19247  0.31277  1.0000
  H   H459      1.0  0.50046  0.12933  0.24146  1.0000
  C   C580      1.0  0.82362  0.09832  0.12869  1.0000
  C   C581      1.0  0.79611  0.09509  0.14352  1.0000
  C   C582      1.0  0.80600  0.13060  0.15487  1.0000
  C   C583      1.0  0.84349  0.16966  0.15164  1.0000
  C   C584      1.0  0.87135  0.17329  0.13704  1.0000
  C   C585      1.0  0.86137  0.13790  0.12551  1.0000
  H   H460      1.0  0.90044  0.20363  0.13461  1.0000
  H   H461      1.0  0.73194  0.27353  0.14174  1.0000
  H   H462      1.0  0.54675  0.21962  0.17804  1.0000
  C   C586      1.0  0.55302  0.13420  0.19485  1.0000
  H   H463      1.0  0.79810  0.12526  0.09758  1.0000
  H   H464      1.0  0.89400  0.07586  0.12573  1.0000
  C   C587      1.0  0.67316  0.26920  0.06424  1.0000
  C   C588      1.0  0.92454  0.05733  0.08295  1.0000
  H   H465      1.0  0.65314  0.24292  0.05486  1.0000
  C   C589      1.0  0.80237  0.37286  0.12404  1.0000
  H   H466      1.0  0.90515  0.48093  0.29369  1.0000
  H   H467      1.0  0.91247  0.27855  0.10030  1.0000
  C   C590      1.0  0.50358  0.00512  0.22455  1.0000
  H   H468      1.0  0.94545  0.34148  0.18296  1.0000
  H   H469      1.0  0.96115  0.09762  0.16740  1.0000
  H   H470      1.0  0.76703  0.06536  0.14663  1.0000
  H   H471      1.0  0.78449  0.12767  0.16629  1.0000
  H   H472      1.0  0.85043  0.19703  0.16040  1.0000
  C   C591      1.0  0.56548  0.17333  0.18585  1.0000
  H   H473      1.0  0.88275  0.14171  0.11395  1.0000
  C   C592      1.0  0.75124  0.26354  0.26956  1.0000
  C   C593      1.0  0.72466  0.15874  0.12298  1.0000
  C   C594      1.0  0.76778  0.18666  0.11844  1.0000
  C   C595      1.0  0.78083  0.22807  0.11176  1.0000
  C   C596      1.0  0.75071  0.24190  0.10951  1.0000
  H   H474      1.0  0.83712  0.15015  0.29241  1.0000
  P   P19       1.0  0.76815  0.29706  0.10312  1.0000
  H   H475      1.0  0.74815  0.12776  0.07451  1.0000
  C   C597      1.0  0.81840  0.31930  0.09026  1.0000
  C   C598      1.0  0.85739  0.33550  0.10008  1.0000
  C   C599      1.0  0.89637  0.35286  0.09021  1.0000
  S   S83       1.0  0.89265  0.01624  0.15378  1.0000
  H   H476      1.0  0.91422  0.45999  0.22476  1.0000
  C   C600      1.0  0.81901  0.32014  0.07041  1.0000
  C   C601      1.0  0.75241  0.30801  0.14087  1.0000
  C   C602      1.0  0.72886  0.30022  0.08824  1.0000
  H   H477      1.0  0.71496  0.12729  0.12889  1.0000
  H   H478      1.0  0.79133  0.17674  0.12089  1.0000
  H   H479      1.0  0.81462  0.24947  0.10899  1.0000
  H   H480      1.0  0.85771  0.33499  0.11537  1.0000
  H   H481      1.0  0.92650  0.36615  0.09783  1.0000
  C   C603      1.0  0.51242  0.00833  0.20514  1.0000
  C   C604      1.0  0.89678  0.35389  0.07051  1.0000
  H   H482      1.0  0.78952  0.30770  0.06243  1.0000
  H   H483      1.0  0.85075  0.21231  0.19831  1.0000
  H   H484      1.0  0.68212  0.08878  0.30693  1.0000
  H   H485      1.0  0.70615  0.23791  0.07531  1.0000
  C   C605      1.0  0.81184  0.38360  0.27673  1.0000
  C   C606      1.0  0.77119  0.37759  0.28106  1.0000
  H   H486      1.0  0.92846  0.32793  0.12748  1.0000
  H   H487      1.0  0.74638  0.44675  0.10192  1.0000
  C   C607      1.0  0.82755  0.29843  0.27602  1.0000
  C   C608      1.0  0.84325  0.39682  0.29076  1.0000
  H   H488      1.0  0.57481  0.12147  0.19527  1.0000
  H   H489      1.0  0.71829  0.24832  0.27454  1.0000
  C   C609      1.0  0.60524  0.09242  0.31393  1.0000
  H   H490      1.0  0.78785  0.39578  0.16912  1.0000
  C   C610      1.0  0.85810  0.33742  0.06060  1.0000
  H   H491      1.0  0.50764  0.10152  0.27226  1.0000
  C   C611      1.0  0.78520  0.28112  0.28243  1.0000
  H   H492      1.0  0.80795  0.28154  0.22891  1.0000
  C   C612      1.0  0.66913  0.30597  0.06456  1.0000
  H   H493      1.0  0.82390  0.03800  0.07317  1.0000
  C   C613      1.0  0.69443  0.17209  0.12070  1.0000
  H   H494      1.0  0.81885  0.37749  0.26253  1.0000
  H   H495      1.0  0.74675  0.36701  0.27020  1.0000
  C   C614      1.0  0.92458  0.31848  0.19347  1.0000
  C   C615      1.0  0.80208  0.28155  0.24385  1.0000
  H   H496      1.0  0.87436  0.40083  0.28726  1.0000
  H   H497      1.0  0.70606  0.44194  0.01655  1.0000
  C   C616      1.0  0.89429  0.30318  0.22518  1.0000
  H   H498      1.0  0.88310  0.38155  0.22382  1.0000
  C   C617      1.0  0.87124  0.24577  0.20212  1.0000
  C   C618      1.0  0.75970  0.26393  0.25027  1.0000
  P   P20       1.0  0.89116  0.32079  0.24873  1.0000
  C   C619      1.0  0.70304  0.26637  0.07595  1.0000
  C   C620      1.0  0.59806  0.08666  0.27970  1.0000
  C   C621      1.0  0.83625  0.29813  0.25672  1.0000
  H   H499      1.0  0.61227  0.09735  0.26578  1.0000
  C   C622      1.0  0.55613  0.05227  0.28156  1.0000
  C   C623      1.0  0.95550  0.44675  0.26588  1.0000
  H   H500      1.0  0.64599  0.30821  0.05549  1.0000
  C   C624      1.0  0.51230  0.11110  0.20316  1.0000
  C   C625      1.0  0.69511  0.34003  0.07653  1.0000
  C   C626      1.0  0.93711  0.28310  0.11035  1.0000
  C   C627      1.0  0.86926  0.25955  0.22037  1.0000
  C   C628      1.0  0.53713  0.18938  0.18513  1.0000
  H   H501      1.0  0.65503  0.13276  0.29404  1.0000
  H   H502      1.0  0.68377  0.22388  0.11308  1.0000
  H   H503      1.0  0.69392  0.06104  0.05854  1.0000
  C   C629      1.0  0.92691  0.06833  0.10199  1.0000
  C   C630      1.0  0.92230  0.25313  0.28603  1.0000
  C   C631      1.0  0.56291  0.05783  0.31566  1.0000
  C   C632      1.0  0.79371  0.39895  0.31341  1.0000
  H   H504      1.0  0.95129  0.05635  0.07629  1.0000
  C   C633      1.0  0.96437  0.15818  0.16177  1.0000
  H   H505      1.0  0.94481  0.38649  0.27688  1.0000
  H   H506      1.0  0.72144  0.00649  0.12917  1.0000
  C   C634      1.0  0.96574  0.32645  0.26339  1.0000
  C   C635      1.0  0.47814  0.08394  0.26429  1.0000
  H   H507      1.0  0.95552  0.16650  0.09863  1.0000
  H   H508      1.0  0.48340  0.99100  0.17757  1.0000
  H   H509      1.0  0.94491  0.15576  0.17395  1.0000
  H   H510      1.0  0.47492  0.17934  0.19266  1.0000
  C   C636      1.0  0.77428  0.47549  0.09668  1.0000
  C   C637      1.0  0.71352  0.02066  0.07287  1.0000
  C   C638      1.0  0.96720  0.27670  0.28611  1.0000
  H   H511      1.0  0.52997  0.01970  0.23441  1.0000
  H   H512      1.0  0.74292  0.45576  0.98546  1.0000
  H   H513      1.0  0.50615  0.01091  0.30095  1.0000
  C   C639      1.0  0.47727  0.98895  0.19260  1.0000
  C   C640      1.0  0.47402  0.09945  0.24673  1.0000
  H   H514      1.0  0.86586  0.46474  0.99955  1.0000
  C   C641      1.0  0.73707  0.47056  0.01439  1.0000
  C   C642      1.0  0.49023  0.47317  0.04718  1.0000
  H   H515      1.0  0.83021  0.98702  0.12183  1.0000
  H   H516      1.0  0.67181  0.25903  0.30951  1.0000
  C   C643      1.0  0.75784  0.47837  0.99692  1.0000
  H   H517      1.0  0.97256  0.21877  0.15290  1.0000
  H   H518      1.0  0.68999  0.99154  0.06584  1.0000
  C   C644      1.0  0.89692  0.47904  0.99256  1.0000
  H   H519      1.0  0.73954  0.98835  0.08904  1.0000
  C   C645      1.0  0.73722  0.98779  0.13119  1.0000
  C   C646      1.0  0.83731  0.08860  0.36610  1.0000
  H   H520      1.0  0.84516  0.47130  0.34877  1.0000
  H   H521      1.0  0.53517  0.06488  0.40132  1.0000
  H   H522      1.0  0.48215  0.41630  0.55578  1.0000
  S   S84       1.0  0.58790  0.03867  0.42825  1.0000
  H   H523      1.0  0.72920  0.29978  0.33307  1.0000
  Fe  Fe43      1.0  0.85219  0.22140  0.35702  1.0000
  S   S85       1.0  0.83280  0.27093  0.36228  1.0000
  H   H524      1.0  0.96950  0.14904  0.49637  1.0000
  Fe  Fe44      1.0  0.88070  0.22287  0.39791  1.0000
  S   S86       1.0  0.86354  0.27343  0.40616  1.0000
  S   S87       1.0  0.90673  0.19709  0.42108  1.0000
  Fe  Fe45      1.0  0.80330  0.23353  0.38915  1.0000
  S   S88       1.0  0.73747  0.22124  0.39896  1.0000
  Fe  Fe46      1.0  0.89458  0.30774  0.37886  1.0000
  S   S89       1.0  0.94501  0.37947  0.37288  1.0000
  S   S90       1.0  0.81844  0.18136  0.38265  1.0000
  S   S91       1.0  0.91591  0.25959  0.37181  1.0000
  H   H525      1.0  0.93976  0.09256  0.45047  1.0000
  C   C647      1.0  0.93645  0.44467  0.39107  1.0000
  H   H526      1.0  0.47458  0.24485  0.55779  1.0000
  H   H527      1.0  0.90793  0.41927  0.39774  1.0000
  H   H528      1.0  0.82189  0.34691  0.38811  1.0000
  C   C648      1.0  0.62919  0.09029  0.42080  1.0000
  C   C649      1.0  0.66536  0.09344  0.41153  1.0000
  C   C650      1.0  0.69892  0.13336  0.40510  1.0000
  C   C651      1.0  0.69642  0.17064  0.40755  1.0000
  C   C652      1.0  0.66003  0.16753  0.41663  1.0000
  C   C653      1.0  0.62671  0.12762  0.42339  1.0000
  H   H529      1.0  0.66730  0.06475  0.40922  1.0000
  H   H530      1.0  0.72646  0.13528  0.39797  1.0000
  H   H531      1.0  0.65770  0.19618  0.41855  1.0000
  H   H532      1.0  0.59901  0.12573  0.43041  1.0000
  C   C654      1.0  0.92927  0.08107  0.42063  1.0000
  C   C655      1.0  0.93182  0.10268  0.43743  1.0000
  C   C656      1.0  0.92437  0.13776  0.43733  1.0000
  C   C657      1.0  0.91417  0.15164  0.42051  1.0000
  C   C658      1.0  0.91192  0.13020  0.40373  1.0000
  C   C659      1.0  0.91914  0.09499  0.40381  1.0000
  H   H533      1.0  0.84818  0.10918  0.46269  1.0000
  C   C660      1.0  0.51196  0.40897  0.58091  1.0000
  H   H534      1.0  0.90541  0.14132  0.39064  1.0000
  P   P21       1.0  0.76298  0.01355  0.41014  1.0000
  C   C661      1.0  0.77423  0.01526  0.49417  1.0000
  C   C662      1.0  0.76446  0.08704  0.42356  1.0000
  H   H535      1.0  0.51422  0.38623  0.53430  1.0000
  H   H536      1.0  0.76716  0.14550  0.43285  1.0000
  H   H537      1.0  0.77934  0.20805  0.32558  1.0000
  H   H538      1.0  0.87428  0.03761  0.48028  1.0000
  C   C663      1.0  0.50306  0.40557  0.56152  1.0000
  C   C664      1.0  0.74237  0.07708  0.34059  1.0000
  C   C665      1.0  0.81472  0.07522  0.38320  1.0000
  C   C666      1.0  0.59357  0.12800  0.36435  1.0000
  H   H539      1.0  0.61540  0.03867  0.46746  1.0000
  C   C667      1.0  0.78026  0.05858  0.42599  1.0000
  H   H540      1.0  0.91727  0.07872  0.39069  1.0000
  C   C668      1.0  0.69955  0.19801  0.34706  1.0000
  H   H541      1.0  0.75835  0.03066  0.50094  1.0000
  P   P22       1.0  0.87618  0.42281  0.32697  1.0000
  C   C669      1.0  0.60507  0.10003  0.35562  1.0000
  H   H542      1.0  0.68034  0.02439  0.59093  1.0000
  S   S92       1.0  0.51664  0.02322  0.47554  1.0000
  C   C670      1.0  0.56818  0.11520  0.38069  1.0000
  C   C671      1.0  0.85233  0.41492  0.35025  1.0000
  C   C672      1.0  0.54746  0.37326  0.55642  1.0000
  H   H543      1.0  0.68727  0.05650  0.45551  1.0000
  Fe  Fe47      1.0  0.95847  0.00880  0.44430  1.0000
  H   H544      1.0  0.72132  0.01531  0.46632  1.0000
  C   C673      1.0  0.55610  0.37591  0.57577  1.0000
  C   C674      1.0  0.83976  0.05878  0.35430  1.0000
  C   C675      1.0  0.84589  0.38017  0.36163  1.0000
  C   C676      1.0  0.52130  0.38850  0.54930  1.0000
  H   H545      1.0  0.82361  0.04571  0.44243  1.0000
  H   H546      1.0  0.74011  0.08815  0.37034  1.0000
  H   H547      1.0  0.51127  0.18933  0.50414  1.0000
  H   H548      1.0  0.70730  0.18184  0.35798  1.0000
  H   H549      1.0  0.83691  0.07205  0.49569  1.0000
  C   C677      1.0  0.90215  0.39100  0.32445  1.0000
  H   H550      1.0  0.55471  0.46760  0.62651  1.0000
  H   H551      1.0  0.59924  0.03706  0.35703  1.0000
  C   C678      1.0  0.82092  0.43763  0.37501  1.0000
  C   C679      1.0  0.69035  0.00756  0.47214  1.0000
  C   C680      1.0  0.52671  0.43900  0.63184  1.0000
  H   H552      1.0  0.60461  0.15992  0.35878  1.0000
  C   C681      1.0  0.82635  0.37369  0.37936  1.0000
  C   C682      1.0  0.53869  0.39396  0.58798  1.0000
  H   H553      1.0  0.57640  0.36405  0.58127  1.0000
  C   C683      1.0  0.81870  0.03886  0.49121  1.0000
  S   S93       1.0  0.85065  0.19083  0.32864  1.0000
  H   H554      1.0  0.85314  0.12227  0.36203  1.0000
  C   C684      1.0  0.83978  0.01957  0.48254  1.0000
  C   C685      1.0  0.67112  0.03093  0.46584  1.0000
  Fe  Fe48      1.0  0.52464  0.01485  0.44442  1.0000
  C   C686      1.0  0.66361  0.00148  0.56240  1.0000
  H   H555      1.0  0.56072  0.35915  0.54692  1.0000
  H   H556      1.0  0.76796  0.06961  0.34184  1.0000
  H   H557      1.0  0.55474  0.01520  0.38609  1.0000
  H   H558      1.0  0.49502  0.12074  0.48858  1.0000
  C   C687      1.0  0.47819  0.16467  0.50188  1.0000
  C   C688      1.0  0.48016  0.09213  0.54447  1.0000
  H   H559      1.0  0.92664  0.15440  0.45035  1.0000
  H   H560      1.0  0.68853  0.98765  0.43445  1.0000
  H   H561      1.0  0.54619  0.39605  0.60285  1.0000
  S   S94       1.0  0.95410  0.02426  0.47451  1.0000
  H   H562      1.0  0.85690  0.35863  0.35716  1.0000
  P   P23       1.0  0.63842  0.11639  0.33465  1.0000
  C   C689      1.0  0.72152  0.24293  0.34685  1.0000
  C   C690      1.0  0.94152  0.34052  0.32134  1.0000
  H   H563      1.0  0.79958  0.39778  0.39999  1.0000
  C   C691      1.0  0.96665  0.38496  0.32379  1.0000
  C   C692      1.0  0.79628  0.00187  0.37648  1.0000
  C   C693      1.0  0.59053  0.05903  0.36344  1.0000
  C   C694      1.0  0.80853  0.13078  0.44936  1.0000
  H   H564      1.0  0.85755  0.06937  0.34113  1.0000
  C   C695      1.0  0.79397  0.03172  0.38851  1.0000
  H   H565      1.0  0.81199  0.46036  0.38037  1.0000
  C   C696      1.0  0.77858  0.12300  0.43517  1.0000
  C   C697      1.0  0.72671  0.08757  0.35658  1.0000
  C   C698      1.0  0.91483  0.47931  0.32385  1.0000
  C   C699      1.0  0.67776  0.09908  0.33692  1.0000
  C   C700      1.0  0.81011  0.06642  0.44040  1.0000
  C   C701      1.0  0.69458  0.09854  0.35477  1.0000
  C   C702      1.0  0.87716  0.34634  0.32185  1.0000
  H   H566      1.0  0.82066  0.15952  0.45790  1.0000
  C   C703      1.0  0.63051  0.02086  0.47252  1.0000
  C   C704      1.0  0.96035  0.43412  0.37874  1.0000
  C   C705      1.0  0.81396  0.40245  0.38608  1.0000
  H   H567      1.0  0.56044  0.13729  0.38772  1.0000
  S   S95       1.0  0.93884  0.03696  0.41981  1.0000
  H   H568      1.0  0.84022  0.00699  0.41519  1.0000
  H   H569      1.0  0.74546  0.26052  0.35758  1.0000
  H   H570      1.0  0.51464  0.10867  0.54222  1.0000
  C   C706      1.0  0.65703  0.19699  0.32033  1.0000
  C   C707      1.0  0.66742  0.17457  0.33366  1.0000
  C   C708      1.0  0.82403  0.10237  0.45205  1.0000
  H   H571      1.0  0.96704  0.44421  0.32809  1.0000
  C   C709      1.0  0.71202  0.26495  0.33316  1.0000
  H   H572      1.0  0.81413  0.09911  0.39225  1.0000
  H   H573      1.0  0.74216  0.08213  0.41231  1.0000
  H   H574      1.0  0.68346  0.10740  0.36728  1.0000
  C   C710      1.0  0.69349  0.08806  0.32095  1.0000
  H   H575      1.0  0.95653  0.32079  0.32080  1.0000
  P   P24       1.0  0.48991  0.43317  0.59643  1.0000
  C   C711      1.0  0.49036  0.41582  0.62039  1.0000
  C   C712      1.0  0.83990  0.44381  0.35714  1.0000
  H   H576      1.0  0.48462  0.12562  0.57023  1.0000
  C   C713      1.0  0.81926  0.01542  0.35949  1.0000
  C   C714      1.0  0.89681  0.32121  0.32034  1.0000
  H   H577      1.0  0.47985  0.27872  0.58886  1.0000
  H   H578      1.0  0.82124  0.99232  0.35033  1.0000
  C   C715      1.0  0.72568  0.07720  0.32281  1.0000
  C   C716      1.0  0.65480  0.00297  0.58152  1.0000
  H   H579      1.0  0.54865  0.04570  0.32937  1.0000
  C   C717      1.0  0.70689  0.99442  0.40505  1.0000
  H   H580      1.0  0.69591  0.02159  0.55696  1.0000
  C   C718      1.0  0.94710  0.41018  0.32538  1.0000
  H   H581      1.0  0.78589  0.40476  0.32745  1.0000
  H   H582      1.0  0.71407  0.99936  0.37453  1.0000
  C   C719      1.0  0.56500  0.04633  0.37973  1.0000
  C   C720      1.0  0.55382  0.07437  0.38834  1.0000
  C   C721      1.0  0.69245  0.99198  0.38641  1.0000
  H   H583      1.0  0.84239  0.33072  0.32155  1.0000
  C   C722      1.0  0.67787  0.98525  0.42003  1.0000
  C   C723      1.0  0.60902  0.98734  0.48545  1.0000
  H   H584      1.0  0.47941  0.99389  0.54085  1.0000
  C   C724      1.0  0.67971  0.24199  0.31993  1.0000
  H   H585      1.0  0.87736  0.28655  0.31892  1.0000
  H   H586      1.0  0.50325  0.48108  0.50282  1.0000
  C   C725      1.0  0.52745  0.42499  0.65022  1.0000
  P   P25       1.0  0.96792  0.40084  0.80649  1.0000
  C   C726      1.0  0.60290  0.45613  0.76169  1.0000
  H   H587      1.0  0.82402  0.37624  0.89864  1.0000
  C   C727      1.0  0.87116  0.42338  0.82259  1.0000
  H   H588      1.0  0.51715  0.03597  0.77480  1.0000
  H   H589      1.0  0.60214  0.29413  0.81481  1.0000
  H   H590      1.0  0.49608  0.20202  0.76062  1.0000
  H   H591      1.0  0.89495  0.40037  0.87424  1.0000
  C   C728      1.0  0.92010  0.43359  0.87302  1.0000
  H   H592      1.0  0.55276  0.41062  0.77968  1.0000
  H   H593      1.0  0.51792  0.27737  0.81068  1.0000
  C   C729      1.0  0.95430  0.41164  0.95483  1.0000
  P   P26       1.0  0.58785  0.36223  0.79903  1.0000
  H   H594      1.0  0.55567  0.26454  0.74448  1.0000
  C   C730      1.0  0.91764  0.30188  0.84470  1.0000
  C   C731      1.0  0.55921  0.31129  0.78690  1.0000
  H   H595      1.0  0.66637  0.43280  0.81570  1.0000
  C   C732      1.0  0.90892  0.46622  0.87208  1.0000
  C   C733      1.0  0.58541  0.42248  0.77482  1.0000
  C   C734      1.0  0.66056  0.32619  0.83066  1.0000
  C   C735      1.0  0.52640  0.27510  0.79621  1.0000
  C   C736      1.0  0.62825  0.32502  0.81918  1.0000
  H   H596      1.0  0.92198  0.24410  0.84455  1.0000
  C   C737      1.0  0.92850  0.27289  0.83686  1.0000
  C   C738      1.0  0.50348  0.99852  0.71500  1.0000
  C   C739      1.0  0.83609  0.40439  0.90755  1.0000
  H   H597      1.0  0.53334  0.01740  0.72254  1.0000
  H   H598      1.0  0.72271  0.43450  0.83591  1.0000
  H   H599      1.0  0.70252  0.46771  0.75695  1.0000
  C   C740      1.0  0.96016  0.39553  0.78130  1.0000
  H   H600      1.0  0.59980  0.41435  0.83307  1.0000
  H   H601      1.0  0.87552  0.45793  0.87252  1.0000
  C   C741      1.0  0.89189  0.45672  0.92806  1.0000
  C   C742      1.0  0.65228  0.42112  0.77493  1.0000
  C   C743      1.0  0.50378  0.23582  0.78677  1.0000
  C   C744      1.0  0.96336  0.44343  0.87233  1.0000
  H   H602      1.0  0.87660  0.36891  0.81406  1.0000
  H   H603      1.0  0.51933  0.09924  0.75947  1.0000
  S   S96       1.0  0.49797  0.47321  0.77442  1.0000
  C   C745      1.0  0.64512  0.47253  0.75530  1.0000
  H   H604      1.0  0.96425  0.36176  0.96661  1.0000
  H   H605      1.0  0.59598  0.33412  0.76091  1.0000
  H   H606      1.0  0.65907  0.29652  0.83498  1.0000
  C   C746      1.0  0.66972  0.45489  0.76185  1.0000
  H   H607      1.0  0.48377  0.30146  0.70253  1.0000
  C   C747      1.0  0.82894  0.46277  0.92058  1.0000
  H   H608      1.0  0.89739  0.32340  0.74776  1.0000
  C   C748      1.0  0.50742  0.35173  0.80851  1.0000
  H   H609      1.0  0.67183  0.40786  0.77981  1.0000
  C   C749      1.0  0.69648  0.40383  0.83117  1.0000
  C   C750      1.0  0.93878  0.42706  0.81434  1.0000
  H   H610      1.0  0.55553  0.44306  0.65901  1.0000
  C   C751      1.0  0.69463  0.36559  0.83667  1.0000
  C   C752      1.0  0.56616  0.39784  0.82926  1.0000
  H   H611      1.0  0.49520  0.29870  0.74662  1.0000
  C   C753      1.0  0.94887  0.34917  0.81759  1.0000
  H   H612      1.0  0.83673  0.40473  0.82480  1.0000
  C   C754      1.0  0.89392  0.40319  0.81666  1.0000
  C   C755      1.0  0.53796  0.40547  0.84002  1.0000
  C   C756      1.0  0.62987  0.36337  0.81358  1.0000
  H   H613      1.0  0.89336  0.40302  0.91480  1.0000
  H   H614      1.0  0.71952  0.36659  0.84566  1.0000
  C   C757      1.0  0.61020  0.40513  0.78177  1.0000
  H   H615      1.0  0.48446  0.04695  0.71757  1.0000
  C   C758      1.0  0.66433  0.40276  0.81968  1.0000
  H   H616      1.0  0.49516  0.33214  0.79596  1.0000
  C   C759      1.0  0.49221  0.38743  0.65719  1.0000
  C   C760      1.0  0.51437  0.23212  0.76814  1.0000
  H   H617      1.0  0.47835  0.35118  0.76163  1.0000
  C   C761      1.0  0.54798  0.26752  0.75901  1.0000
  C   C762      1.0  0.89292  0.46763  0.82592  1.0000
  C   C763      1.0  0.55104  0.37049  0.81352  1.0000
  H   H618      1.0  0.58381  0.46987  0.75669  1.0000
  H   H619      1.0  0.90808  0.32943  0.78224  1.0000
  C   C764      1.0  0.57043  0.30700  0.76834  1.0000
  C   C765      1.0  0.49452  0.38592  0.83519  1.0000
  C   C766      1.0  0.48969  0.06859  0.75970  1.0000
  C   C767      1.0  0.92826  0.35685  0.77337  1.0000
  H   H620      1.0  0.95955  0.26013  0.81382  1.0000
  C   C768      1.0  0.92189  0.35341  0.75382  1.0000
  C   C769      1.0  0.96152  0.43884  0.93928  1.0000
  H   H621      1.0  0.55013  0.42770  0.85177  1.0000
  H   H622      1.0  0.92079  0.36271  0.84188  1.0000
  C   C770      1.0  0.94685  0.38870  0.74212  1.0000
  C   C771      1.0  0.94973  0.28199  0.81946  1.0000
  C   C772      1.0  0.96037  0.32021  0.80995  1.0000
  H   H623      1.0  0.94176  0.38601  0.72698  1.0000
  H   H624      1.0  0.90293  0.29580  0.85858  1.0000
  C   C773      1.0  0.92781  0.33990  0.83513  1.0000
  C   C774      1.0  0.87551  0.41971  0.91680  1.0000
  H   H625      1.0  0.66300  0.98253  0.65202  1.0000
  C   C775      1.0  0.96019  0.47174  0.81718  1.0000
  H   H626      1.0  0.78284  0.41474  0.90191  1.0000
  C   C776      1.0  0.81295  0.42605  0.90935  1.0000
  H   H627      1.0  0.93740  0.41308  0.96722  1.0000
  C   C777      1.0  0.48844  0.03295  0.76832  1.0000
  H   H628      1.0  0.49299  0.37642  0.67135  1.0000
  H   H629      1.0  0.81117  0.47980  0.92183  1.0000
  C   C778      1.0  0.47552  0.01537  0.71232  1.0000
  S   S97       1.0  0.97141  0.03295  0.77991  1.0000
  H   H630      1.0  0.86998  0.45062  0.96586  1.0000
  C   C779      1.0  0.86811  0.47797  0.92996  1.0000
  P   P27       1.0  0.94338  0.47765  0.93965  1.0000
  C   C780      1.0  0.89941  0.47156  0.97333  1.0000
  H   H631      1.0  0.47378  0.36290  0.71130  1.0000
  C   C781      1.0  0.47925  0.35908  0.81943  1.0000
  C   C782      1.0  0.96933  0.38238  0.95454  1.0000
  H   H632      1.0  0.47766  0.20831  0.79379  1.0000
  H   H633      1.0  0.47303  0.39267  0.84339  1.0000
  Fe  Fe49      1.0  0.91921  0.90398  0.11641  1.0000
  S   S98       1.0  0.89252  0.84156  0.09907  1.0000
  S   S99       1.0  0.91681  0.91156  0.14804  1.0000
  C   C783      1.0  0.58670  0.55735  0.99699  1.0000
  S   S100      1.0  0.90509  0.52987  0.09840  1.0000
  H   H634      1.0  0.80451  0.61401  0.02196  1.0000
  Fe  Fe50      1.0  0.70335  0.58362  0.02637  1.0000
  S   S101      1.0  0.66201  0.51456  0.03526  1.0000
  S   S102      1.0  0.73441  0.61481  0.99810  1.0000
  Fe  Fe51      1.0  0.69245  0.61781  0.06445  1.0000
  S   S103      1.0  0.64861  0.55089  0.07590  1.0000
  S   S104      1.0  0.70772  0.67829  0.08128  1.0000
  Fe  Fe52      1.0  0.69725  0.53581  0.06311  1.0000
  C   C784      1.0  0.79735  0.51591  0.99402  1.0000
  Fe  Fe53      1.0  0.61578  0.53392  0.04756  1.0000
  H   H635      1.0  0.92624  0.68158  0.99264  1.0000
  S   S105      1.0  0.74240  0.60337  0.05328  1.0000
  S   S106      1.0  0.65580  0.60200  0.03713  1.0000
  H   H636      1.0  0.89586  0.80983  0.13576  1.0000
  H   H637      1.0  0.74022  0.49363  0.04267  1.0000
  C   C785      1.0  0.85208  0.51958  0.09395  1.0000
  C   C786      1.0  0.84634  0.54920  0.08309  1.0000
  C   C787      1.0  0.80481  0.54220  0.07919  1.0000
  C   C788      1.0  0.76854  0.50503  0.08578  1.0000
  H   H638      1.0  0.87416  0.57806  0.07789  1.0000
  H   H639      1.0  0.80080  0.56549  0.07111  1.0000
  H   H640      1.0  0.66998  0.73256  0.05335  1.0000
  C   C789      1.0  0.84062  0.79647  0.09450  1.0000
  C   C790      1.0  0.83742  0.76370  0.08249  1.0000
  C   C791      1.0  0.79719  0.72725  0.07843  1.0000
  C   C792      1.0  0.75949  0.72300  0.08634  1.0000
  C   C793      1.0  0.76269  0.75558  0.09844  1.0000
  C   C794      1.0  0.80295  0.79203  0.10254  1.0000
  H   H641      1.0  0.86630  0.76661  0.07624  1.0000
  H   H642      1.0  0.79530  0.70270  0.06902  1.0000
  H   H643      1.0  0.73377  0.75270  0.10463  1.0000
  H   H644      1.0  0.80479  0.81676  0.11184  1.0000
  C   C795      1.0  0.51189  0.61520  0.00467  1.0000
  C   C796      1.0  0.86483  0.71982  0.01142  1.0000
  C   C797      1.0  0.72105  0.70916  0.01890  1.0000
  C   C798      1.0  0.71505  0.94839  0.14067  1.0000
  C   C799      1.0  0.86635  0.64258  0.00774  1.0000
  C   C800      1.0  0.51139  0.58374  0.04086  1.0000
  H   H645      1.0  0.60798  0.68982  0.03254  1.0000
  H   H646      1.0  0.93127  0.81355  0.16618  1.0000
  H   H647      1.0  0.56546  0.55001  0.00895  1.0000
  C   C801      1.0  0.96720  0.63179  0.04385  1.0000
  S   S107      1.0  0.92468  0.50882  0.15157  1.0000
  H   H648      1.0  0.57732  0.60294  0.03583  1.0000
  C   C802      1.0  0.83123  0.68160  0.01872  1.0000
  C   C803      1.0  0.75619  0.49986  0.02909  1.0000
  H   H649      1.0  0.86567  0.52501  0.02990  1.0000
  C   C804      1.0  0.95207  0.54290  0.30395  1.0000
  C   C805      1.0  0.47431  0.59705  0.01563  1.0000
  H   H650      1.0  0.58067  0.49468  0.99763  1.0000
  C   C806      1.0  0.83182  0.64313  0.01681  1.0000
  C   C807      1.0  0.93446  0.50412  0.00286  1.0000
  C   C808      1.0  0.79575  0.53725  0.02630  1.0000
  H   H651      1.0  0.69138  0.67005  0.99476  1.0000
  H   H652      1.0  0.81037  0.55922  0.03797  1.0000
  H   H653      1.0  0.71176  0.52677  0.98843  1.0000
  H   H654      1.0  0.91813  0.68396  0.05543  1.0000
  C   C809      1.0  0.92231  0.49903  0.30601  1.0000
  C   C810      1.0  0.91098  0.74587  0.16654  1.0000
  C   C811      1.0  0.91353  0.78300  0.15892  1.0000
  C   C812      1.0  0.89353  0.78093  0.14176  1.0000
  C   C813      1.0  0.87075  0.74178  0.13224  1.0000
  C   C814      1.0  0.86686  0.70405  0.14006  1.0000
  C   C815      1.0  0.88810  0.70660  0.15710  1.0000
  P   P28       1.0  0.83725  0.65379  0.12748  1.0000
  C   C816      1.0  0.78079  0.63616  0.12499  1.0000
  C   C817      1.0  0.86217  0.66211  0.10454  1.0000
  C   C818      1.0  0.83834  0.65537  0.08793  1.0000
  C   C819      1.0  0.85859  0.66319  0.07030  1.0000
  C   C820      1.0  0.90264  0.67781  0.06912  1.0000
  C   C821      1.0  0.77540  0.93704  0.13595  1.0000
  C   C822      1.0  0.90645  0.67722  0.10326  1.0000
  C   C823      1.0  0.75267  0.59369  0.11925  1.0000
  C   C824      1.0  0.70883  0.57899  0.11711  1.0000
  C   C825      1.0  0.69274  0.60672  0.12037  1.0000
  C   C826      1.0  0.72046  0.64899  0.12607  1.0000
  C   C827      1.0  0.76434  0.66373  0.12847  1.0000
  C   C828      1.0  0.83827  0.61062  0.14014  1.0000
  C   C829      1.0  0.81906  0.59878  0.15809  1.0000
  C   C830      1.0  0.81757  0.56407  0.16778  1.0000
  C   C831      1.0  0.83440  0.54037  0.15943  1.0000
  C   C832      1.0  0.85254  0.55133  0.14139  1.0000
  C   C833      1.0  0.85462  0.58635  0.13177  1.0000
  H   H655      1.0  0.92682  0.74753  0.17978  1.0000
  C   C834      1.0  0.94139  0.63160  0.02900  1.0000
  H   H656      1.0  0.80392  0.68140  0.02543  1.0000
  H   H657      1.0  0.85599  0.74096  0.11880  1.0000
  H   H658      1.0  0.88750  0.67865  0.16312  1.0000
  H   H659      1.0  0.80426  0.64451  0.08845  1.0000
  H   H660      1.0  0.84004  0.65816  0.05758  1.0000
  H   H661      1.0  0.95147  0.80024  0.10784  1.0000
  C   C835      1.0  0.63928  0.69488  0.02850  1.0000
  C   C836      1.0  0.92661  0.68486  0.08561  1.0000
  H   H662      1.0  0.76462  0.57195  0.11613  1.0000
  H   H663      1.0  0.68755  0.54629  0.11248  1.0000
  H   H664      1.0  0.65900  0.59582  0.11802  1.0000
  H   H665      1.0  0.70811  0.67080  0.12800  1.0000
  H   H666      1.0  0.78493  0.69668  0.13270  1.0000
  H   H667      1.0  0.80494  0.61628  0.16451  1.0000
  H   H668      1.0  0.51128  0.57135  0.05483  1.0000
  H   H669      1.0  0.83302  0.51323  0.16680  1.0000
  H   H670      1.0  0.86473  0.53245  0.13472  1.0000
  H   H671      1.0  0.86843  0.59377  0.11775  1.0000
  C   C837      1.0  0.81641  0.54607  0.00864  1.0000
  C   C838      1.0  0.64448  0.67564  0.01218  1.0000
  H   H672      1.0  0.94281  0.58655  0.99126  1.0000
  H   H673      1.0  0.51117  0.62704  0.99072  1.0000
  C   C839      1.0  0.67443  0.71969  0.04024  1.0000
  H   H674      1.0  0.91069  0.52630  0.05629  1.0000
  H   H675      1.0  0.86394  0.74943  0.01275  1.0000
  C   C840      1.0  0.73419  0.92309  0.14310  1.0000
  H   H676      1.0  0.68321  0.93771  0.14636  1.0000
  C   C841      1.0  0.54965  0.61770  0.01177  1.0000
  C   C842      1.0  0.89898  0.71956  0.00205  1.0000
  H   H677      1.0  0.94511  0.59236  0.13030  1.0000
  C   C843      1.0  0.54898  0.60188  0.03001  1.0000
  C   C844      1.0  0.89969  0.68114  0.00014  1.0000
  H   H678      1.0  0.75248  0.71378  0.01536  1.0000
  P   P29       1.0  0.86885  0.59356  0.00562  1.0000
  Fe  Fe54      1.0  0.92895  0.50003  0.12051  1.0000
  H   H679      1.0  0.74204  0.74447  0.04502  1.0000
  C   C845      1.0  0.71521  0.72651  0.03553  1.0000
  S   S108      1.0  0.54415  0.49114  0.03916  1.0000
  H   H680      1.0  0.80281  0.55519  0.18164  1.0000
  H   H681      1.0  0.92516  0.68293  0.11598  1.0000
  S   S109      1.0  0.71555  0.49372  0.08056  1.0000
  C   C846      1.0  0.89380  0.55519  0.03357  1.0000
  C   C847      1.0  0.90391  0.59344  0.02398  1.0000
  C   C848      1.0  0.91954  0.55558  0.04845  1.0000
  H   H682      1.0  0.95760  0.55811  0.29021  1.0000
  H   H683      1.0  0.82014  0.94723  0.17519  1.0000
  C   C849      1.0  0.68597  0.68412  0.00720  1.0000
  S   S110      1.0  0.91692  0.96454  0.11012  1.0000
  H   H684      1.0  0.79061  0.91778  0.13805  1.0000
  H   H685      1.0  0.71734  0.89293  0.15074  1.0000
  C   C850      1.0  0.96105  0.64028  0.15185  1.0000
  H   H686      1.0  0.93267  0.50902  0.01784  1.0000
  H   H687      1.0  0.76134  0.94737  0.19387  1.0000
  H   H688      1.0  0.50710  0.50719  0.07357  1.0000
  P   P30       1.0  0.59854  0.64068  0.99773  1.0000
  C   C851      1.0  0.95599  0.59386  0.05370  1.0000
  H   H689      1.0  0.92467  0.74909  0.99607  1.0000
  H   H690      1.0  0.62888  0.73270  0.99243  1.0000
  C   C852      1.0  0.48099  0.48609  0.06438  1.0000
  C   C853      1.0  0.81904  0.97662  0.17672  1.0000
  C   C854      1.0  0.78569  0.97681  0.18733  1.0000
  C   C855      1.0  0.60644  0.59811  0.98844  1.0000
  C   C856      1.0  0.47394  0.58099  0.03365  1.0000
  C   C857      1.0  0.79798  0.97678  0.12679  1.0000
  H   H691      1.0  0.96080  0.69644  0.08473  1.0000
  Fe  Fe55      1.0  0.91960  0.97492  0.14170  1.0000
  H   H692      1.0  0.95055  0.66139  0.02169  1.0000
  H   H693      1.0  0.96083  0.50229  0.25153  1.0000
  C   C858      1.0  0.96247  0.62633  0.13359  1.0000
  H   H694      1.0  0.94270  0.61688  0.16271  1.0000
  H   H695      1.0  0.96711  0.75608  0.12966  1.0000
  C   C859      1.0  0.59511  0.52554  0.99048  1.0000
  C   C860      1.0  0.81581  0.48280  0.10082  1.0000
  Fe  Fe56      1.0  0.92099  0.95294  0.47944  1.0000
  S   S111      1.0  0.92134  0.93676  0.44885  1.0000
  S   S112      1.0  0.86492  0.92764  0.50028  1.0000
  C   C861      1.0  0.89097  0.81376  0.47874  1.0000
  H   H696      1.0  0.90288  0.85907  0.50105  1.0000
  Fe  Fe57      1.0  0.54524  0.65976  0.53576  1.0000
  S   S113      1.0  0.61125  0.70149  0.54860  1.0000
  C   C862      1.0  0.62304  0.81185  0.46172  1.0000
  Fe  Fe58      1.0  0.55101  0.73714  0.51383  1.0000
  S   S114      1.0  0.61606  0.78302  0.52523  1.0000
  C   C863      1.0  0.61756  0.84582  0.45558  1.0000
  Fe  Fe59      1.0  0.63203  0.73140  0.51958  1.0000
  S   S115      1.0  0.69200  0.74602  0.50255  1.0000
  Fe  Fe60      1.0  0.58996  0.75026  0.55323  1.0000
  S   S116      1.0  0.60974  0.79763  0.57771  1.0000
  S   S117      1.0  0.56775  0.68624  0.50645  1.0000
  C   C864      1.0  0.66780  0.89225  0.47948  1.0000
  H   H697      1.0  0.94448  0.76247  0.42557  1.0000
  C   C865      1.0  0.56076  0.58065  0.58896  1.0000
  P   P31       1.0  0.52509  0.91691  0.58496  1.0000
  C   C866      1.0  0.51383  0.85885  0.51409  1.0000
  H   H698      1.0  0.84128  0.91981  0.58687  1.0000
  C   C867      1.0  0.63994  0.88597  0.46435  1.0000
  C   C868      1.0  0.52171  0.82444  0.51184  1.0000
  C   C869      1.0  0.50238  0.52893  0.52107  1.0000
  H   H699      1.0  0.52387  0.96304  0.55046  1.0000
  C   C870      1.0  0.67341  0.85802  0.48541  1.0000
  H   H700      1.0  0.68450  0.84167  0.59983  1.0000
  H   H701      1.0  0.69409  0.86179  0.49726  1.0000
  H   H702      1.0  0.69726  0.91572  0.61166  1.0000
  H   H703      1.0  0.57504  0.61501  0.58676  1.0000
  H   H704      1.0  0.62537  0.85480  0.60852  1.0000
  C   C871      1.0  0.81539  0.87845  0.49956  1.0000
  C   C872      1.0  0.80662  0.84755  0.48567  1.0000
  C   C873      1.0  0.76840  0.80738  0.48659  1.0000
  C   C874      1.0  0.73811  0.79811  0.50111  1.0000
  C   C875      1.0  0.74595  0.82991  0.51445  1.0000
  C   C876      1.0  0.78448  0.86979  0.51369  1.0000
  H   H705      1.0  0.82962  0.85440  0.47445  1.0000
  H   H706      1.0  0.76245  0.78325  0.47608  1.0000
  H   H707      1.0  0.72289  0.82330  0.52565  1.0000
  H   H708      1.0  0.79076  0.89380  0.52432  1.0000
  C   C877      1.0  0.59847  0.82411  0.61249  1.0000
  C   C878      1.0  0.58300  0.78971  0.59969  1.0000
  C   C879      1.0  0.54727  0.75041  0.60472  1.0000
  C   C880      1.0  0.52778  0.74549  0.62256  1.0000
  H   H709      1.0  0.53482  0.72376  0.59495  1.0000
  C   C881      1.0  0.67661  0.96225  0.64884  1.0000
  S   S118      1.0  0.50011  0.58954  0.54550  1.0000
  C   C882      1.0  0.68171  0.92696  0.51727  1.0000
  C   C883      1.0  0.64072  0.89385  0.52275  1.0000
  C   C884      1.0  0.63205  0.88097  0.54165  1.0000
  H   H710      1.0  0.60457  0.78032  0.45540  1.0000
  C   C885      1.0  0.71406  0.94625  0.53102  1.0000
  C   C886      1.0  0.49965  0.96105  0.56016  1.0000
  H   H711      1.0  0.47829  0.82113  0.41477  1.0000
  H   H712      1.0  0.91779  0.89000  0.41331  1.0000
  C   C887      1.0  0.82058  0.94674  0.42894  1.0000
  H   H713      1.0  0.65503  0.79154  0.48144  1.0000
  H   H714      1.0  0.61000  0.93722  0.50135  1.0000
  H   H715      1.0  0.61561  0.87716  0.51237  1.0000
  H   H716      1.0  0.60058  0.85492  0.54572  1.0000
  C   C888      1.0  0.57967  0.94950  0.57638  1.0000
  H   H717      1.0  0.52638  0.55587  0.51298  1.0000
  C   C889      1.0  0.94751  0.79704  0.47277  1.0000
  H   H718      1.0  0.55810  0.85727  0.58121  1.0000
  S   S119      1.0  0.52306  0.70776  0.54214  1.0000
  C   C890      1.0  0.52466  0.91311  0.61054  1.0000
  C   C891      1.0  0.65130  0.81810  0.47649  1.0000
  Fe  Fe61      1.0  0.48084  0.95093  0.47684  1.0000
  C   C892      1.0  0.88705  0.64830  0.44764  1.0000
  C   C893      1.0  0.77780  0.88498  0.57490  1.0000
  C   C894      1.0  0.51949  0.80721  0.49393  1.0000
  C   C895      1.0  0.54412  0.77952  0.63560  1.0000
  H   H719      1.0  0.96931  0.71159  0.41778  1.0000
  H   H720      1.0  0.59485  0.84056  0.44442  1.0000
  S   S120      1.0  0.49210  0.94268  0.44644  1.0000
  H   H721      1.0  0.89774  0.85329  0.38234  1.0000
  H   H722      1.0  0.70465  0.92864  0.42791  1.0000
  C   C896      1.0  0.52309  0.51775  0.60898  1.0000
  H   H723      1.0  0.57084  0.56861  0.56017  1.0000
  C   C897      1.0  0.78641  0.90927  0.43656  1.0000
  P   P32       1.0  0.69289  0.94201  0.49260  1.0000
  H   H724      1.0  0.63427  0.91138  0.45963  1.0000
  C   C898      1.0  0.79215  0.89872  0.60841  1.0000
  H   H725      1.0  0.85986  0.81001  0.47549  1.0000
  C   C899      1.0  0.74402  0.70510  0.45108  1.0000
  C   C900      1.0  0.73418  0.69275  0.46998  1.0000
  C   C901      1.0  0.76663  0.69781  0.48236  1.0000
  C   C902      1.0  0.80903  0.71557  0.47590  1.0000
  C   C903      1.0  0.81946  0.72921  0.45704  1.0000
  C   C904      1.0  0.78647  0.72326  0.44460  1.0000
  P   P33       1.0  0.87511  0.75614  0.44943  1.0000
  C   C905      1.0  0.90694  0.79145  0.46832  1.0000
  C   C906      1.0  0.89301  0.71840  0.44406  1.0000
  C   C907      1.0  0.94235  0.70186  0.42740  1.0000
  C   C908      1.0  0.97176  0.82473  0.48739  1.0000
  C   C909      1.0  0.91522  0.84140  0.49331  1.0000
  H   H726      1.0  0.50024  0.71491  0.62639  1.0000
  C   C910      1.0  0.92809  0.73062  0.43179  1.0000
  H   H727      1.0  0.60708  0.97915  0.60333  1.0000
  C   C911      1.0  0.70530  0.93302  0.54990  1.0000
  H   H728      1.0  0.59217  0.84562  0.64025  1.0000
  H   H729      1.0  0.75519  0.91918  0.47628  1.0000
  H   H730      1.0  0.78035  0.96810  0.38023  1.0000
  C   C912      1.0  0.88157  0.78722  0.42830  1.0000
  C   C913      1.0  0.87028  0.76665  0.41066  1.0000
  C   C914      1.0  0.87601  0.79039  0.39416  1.0000
  C   C915      1.0  0.89279  0.83478  0.39514  1.0000
  C   C916      1.0  0.90390  0.85545  0.41262  1.0000
  C   C917      1.0  0.89858  0.83186  0.42915  1.0000
  H   H731      1.0  0.71878  0.70140  0.44157  1.0000
  H   H732      1.0  0.70156  0.68010  0.47518  1.0000
  H   H733      1.0  0.75894  0.68890  0.49708  1.0000
  H   H734      1.0  0.83386  0.71986  0.48580  1.0000
  H   H735      1.0  0.79335  0.73339  0.43002  1.0000
  C   C918      1.0  0.80703  0.90295  0.58978  1.0000
  H   H736      1.0  0.52831  0.81042  0.52399  1.0000
  C   C919      1.0  0.53100  0.94841  0.62155  1.0000
  H   H737      1.0  0.93041  0.49559  0.40440  1.0000
  H   H738      1.0  0.96102  0.78098  0.46476  1.0000
  S   S121      1.0  0.52333  0.76042  0.49085  1.0000
  C   C920      1.0  0.58911  0.94764  0.55725  1.0000
  H   H739      1.0  0.73051  0.94744  0.56039  1.0000
  C   C921      1.0  0.93811  0.50401  0.33945  1.0000
  C   C922      1.0  0.62804  0.96381  0.49178  1.0000
  H   H740      1.0  0.85749  0.73228  0.40965  1.0000
  H   H741      1.0  0.86793  0.77442  0.38058  1.0000
  C   C923      1.0  0.50334  0.86024  0.48045  1.0000
  C   C924      1.0  0.53079  0.94611  0.64129  1.0000
  H   H742      1.0  0.90872  0.84877  0.44244  1.0000
  H   H743      1.0  0.87123  0.61635  0.45377  1.0000
  H   H744      1.0  0.51414  0.87101  0.52806  1.0000
  C   C925      1.0  0.63073  0.97393  0.55027  1.0000
  C   C926      1.0  0.64977  0.98100  0.38292  1.0000
  C   C927      1.0  0.63523  0.97410  0.41651  1.0000
  C   C928      1.0  0.87262  0.67703  0.45202  1.0000
  C   C929      1.0  0.51077  0.80303  0.56567  1.0000
  C   C930      1.0  0.67724  0.78183  0.62836  1.0000
  H   H745      1.0  0.56422  0.92620  0.54763  1.0000
  C   C931      1.0  0.52705  0.84316  0.57430  1.0000
  C   C932      1.0  0.69598  0.92416  0.62618  1.0000
  C   C933      1.0  0.48913  0.48632  0.51533  1.0000
  H   H746      1.0  0.53598  0.97770  0.61486  1.0000
  C   C934      1.0  0.95568  0.84696  0.49762  1.0000
  C   C935      1.0  0.67911  0.95102  0.63018  1.0000
  C   C936      1.0  0.50324  0.86454  0.57413  1.0000
  H   H747      1.0  0.54418  0.58266  0.61800  1.0000
  H   H748      1.0  0.53530  0.97319  0.64976  1.0000
  H   H749      1.0  0.65756  0.88986  0.56979  1.0000
  C   C937      1.0  0.66428  0.90053  0.55522  1.0000
  H   H750      1.0  0.85303  0.95182  0.42927  1.0000
  H   H751      1.0  0.81535  0.91262  0.61971  1.0000
  H   H752      1.0  0.50801  0.50406  0.62242  1.0000
  C   C938      1.0  0.74780  0.87641  0.61227  1.0000
  C   C939      1.0  0.53864  0.50997  0.57638  1.0000
  H   H753      1.0  0.70007  0.78667  0.61729  1.0000
  C   C940      1.0  0.54321  0.56233  0.60650  1.0000
  C   C941      1.0  0.74472  0.90307  0.43611  1.0000
  H   H754      1.0  0.93299  0.63843  0.43186  1.0000
  C   C942      1.0  0.61301  0.97720  0.58851  1.0000
  H   H755      1.0  0.51393  0.84792  0.61180  1.0000
  C   C943      1.0  0.73365  0.86307  0.57862  1.0000
  H   H756      1.0  0.58844  0.96474  0.39536  1.0000
  C   C944      1.0  0.70988  0.90777  0.64089  1.0000
  H   H757      1.0  0.78934  0.88768  0.56051  1.0000
  C   C945      1.0  0.51085  0.82560  0.47822  1.0000
  C   C946      1.0  0.77148  0.97233  0.42055  1.0000
  C   C947      1.0  0.55859  0.55448  0.57396  1.0000
  C   C948      1.0  0.71876  0.85900  0.59719  1.0000
  C   C949      1.0  0.92185  0.66069  0.43531  1.0000
  H   H758      1.0  0.49584  0.87347  0.46829  1.0000
  H   H759      1.0  0.74632  0.97080  0.52725  1.0000
  H   H760      1.0  0.63750  0.97268  0.53544  1.0000
  H   H761      1.0  0.50900  0.81234  0.46433  1.0000
  C   C950      1.0  0.52451  0.90871  0.65023  1.0000
  C   C951      1.0  0.50433  0.87671  0.49844  1.0000
  H   H762      1.0  0.79231  0.88520  0.44293  1.0000
  H   H763      1.0  0.71825  0.87400  0.44207  1.0000
  H   H764      1.0  0.84565  0.66685  0.46156  1.0000
  H   H765      1.0  0.66744  0.96263  0.61882  1.0000
  C   C952      1.0  0.57947  0.81905  0.63043  1.0000
  C   C953      1.0  0.73720  0.93443  0.42815  1.0000
  H   H766      1.0  0.71078  0.84864  0.56715  1.0000
  S   S122      1.0  0.49266  0.91860  0.50200  1.0000
  C   C954      1.0  0.52080  0.49111  0.59395  1.0000
  H   H767      1.0  0.61332  0.96837  0.42818  1.0000
  C   C955      1.0  0.68253  0.81618  0.63976  1.0000
  P   P34       1.0  0.72794  0.86971  0.63629  1.0000
  C   C956      1.0  0.66916  0.97400  0.48534  1.0000
  C   C957      1.0  0.51874  0.87574  0.61968  1.0000
  C   C958      1.0  0.62123  0.97222  0.39797  1.0000
  H   H768      1.0  0.52903  0.78647  0.56597  1.0000
  H   H769      1.0  0.58357  0.70182  0.64689  1.0000
  H   H770      1.0  0.53598  0.49062  0.56423  1.0000
  C   C959      1.0  0.77207  0.95269  0.48021  1.0000
  C   C960      1.0  0.49295  0.94059  0.57780  1.0000
  C   C961      1.0  0.81646  0.97657  0.47707  1.0000
  H   H771      1.0  0.63670  0.71490  0.62150  1.0000
  C   C962      1.0  0.64162  0.74076  0.63088  1.0000
  C   C963      1.0  0.48456  0.53652  0.53721  1.0000
  C   C964      1.0  0.51854  0.87364  0.63943  1.0000
  C   C965      1.0  0.61182  0.73329  0.64520  1.0000
  H   H772      1.0  0.57721  0.97921  0.49034  1.0000
  H   H773      1.0  0.83309  0.96139  0.47079  1.0000
  C   C966      1.0  0.75042  0.97205  0.48851  1.0000
  H   H774      1.0  0.93337  0.48946  0.35331  1.0000
  C   C967      1.0  0.47426  0.97859  0.55458  1.0000
  C   C968      1.0  0.81319  0.97809  0.42096  1.0000
  C   C969      1.0  0.94952  0.48824  0.39492  1.0000
  H   H775      1.0  0.51356  0.84462  0.64641  1.0000
  C   C970      1.0  0.96755  0.54785  0.33738  1.0000
  H   H776      1.0  0.63900  0.97996  0.36854  1.0000
  Fe  Fe62      1.0  0.53817  0.79888  0.72701  1.0000
  S   S123      1.0  0.58237  0.79591  0.70549  1.0000
  H   H777      1.0  0.67543  0.50009  0.80020  1.0000
  Fe  Fe63      1.0  0.54518  0.88204  0.70952  1.0000
  S   S124      1.0  0.59091  0.88392  0.68687  1.0000
  H   H778      1.0  0.86772  0.60545  0.93639  1.0000
  Fe  Fe64      1.0  0.54623  0.81262  0.68435  1.0000
  H   H779      1.0  0.62318  0.77370  0.96572  1.0000
  Fe  Fe65      1.0  0.62387  0.86714  0.70999  1.0000
  S   S125      1.0  0.69699  0.89376  0.70959  1.0000
  H   H780      1.0  0.55367  0.65710  0.93378  1.0000
  S   S126      1.0  0.58153  0.86983  0.73279  1.0000
  H   H781      1.0  0.48873  0.61527  0.77996  1.0000
  S   S127      1.0  0.91803  0.95323  0.80963  1.0000
  C   C971      1.0  0.93954  0.49001  0.96413  1.0000
  C   C972      1.0  0.56992  0.67349  0.94662  1.0000
  S   S128      1.0  0.93566  0.85095  0.80180  1.0000
  S   S129      1.0  0.94468  0.93496  0.76777  1.0000
  Fe  Fe66      1.0  0.85263  0.64004  0.86977  1.0000
  S   S130      1.0  0.85544  0.59801  0.84694  1.0000
  S   S131      1.0  0.87954  0.71308  0.86921  1.0000
  Fe  Fe67      1.0  0.80290  0.56328  0.89678  1.0000
  C   C973      1.0  0.64203  0.57404  0.96632  1.0000
  S   S132      1.0  0.77217  0.53362  0.92533  1.0000
  Fe  Fe68      1.0  0.87113  0.56383  0.86989  1.0000
  S   S133      1.0  0.92901  0.55216  0.86769  1.0000
  Fe  Fe69      1.0  0.78552  0.55300  0.85426  1.0000
  S   S134      1.0  0.73734  0.52184  0.83010  1.0000
  S   S135      1.0  0.87343  0.60955  0.89240  1.0000
  S   S136      1.0  0.78187  0.59667  0.87598  1.0000
  H   H782      1.0  0.67490  0.62729  0.79306  1.0000
  H   H783      1.0  0.59984  0.58155  0.78209  1.0000
  C   C974      1.0  0.92099  0.59804  0.94559  1.0000
  C   C975      1.0  0.60910  0.73915  0.96461  1.0000
  C   C976      1.0  0.76043  0.55691  0.94496  1.0000
  C   C977      1.0  0.77428  0.60084  0.94595  1.0000
  C   C978      1.0  0.76604  0.61799  0.96233  1.0000
  H   H784      1.0  0.84257  0.93936  0.73349  1.0000
  H   H785      1.0  0.79183  0.62166  0.93422  1.0000
  H   H786      1.0  0.77723  0.65206  0.96304  1.0000
  H   H787      1.0  0.93815  0.53886  0.91291  1.0000
  C   C979      1.0  0.68773  0.52166  0.82911  1.0000
  S   S137      1.0  0.51227  0.75073  0.75158  1.0000
  C   C980      1.0  0.66612  0.71012  0.81638  1.0000
  C   C981      1.0  0.67164  0.53289  0.84476  1.0000
  C   C982      1.0  0.74380  0.59151  0.97784  1.0000
  H   H788      1.0  0.68595  0.74015  0.80915  1.0000
  S   S138      1.0  0.52969  0.93764  0.71266  1.0000
  H   H789      1.0  0.71791  0.90733  0.67116  1.0000
  C   C983      1.0  0.80307  0.84871  0.67343  1.0000
  C   C984      1.0  0.91913  0.81313  0.82080  1.0000
  C   C985      1.0  0.91877  0.82470  0.83964  1.0000
  C   C986      1.0  0.90658  0.79368  0.85417  1.0000
  C   C987      1.0  0.89419  0.75059  0.85014  1.0000
  C   C988      1.0  0.89353  0.73880  0.83126  1.0000
  C   C989      1.0  0.90606  0.76989  0.81674  1.0000
  H   H790      1.0  0.50843  0.60720  0.84565  1.0000
  H   H791      1.0  0.90699  0.80323  0.86869  1.0000
  H   H792      1.0  0.88400  0.70589  0.82788  1.0000
  C   C990      1.0  0.66306  0.50833  0.81246  1.0000
  H   H793      1.0  0.88012  0.50671  0.93846  1.0000
  C   C991      1.0  0.88436  0.60162  0.94838  1.0000
  H   H794      1.0  0.49479  0.62094  0.71938  1.0000
  C   C992      1.0  0.73562  0.90784  0.72806  1.0000
  C   C993      1.0  0.77802  0.91850  0.72337  1.0000
  C   C994      1.0  0.81010  0.93087  0.73738  1.0000
  C   C995      1.0  0.80027  0.93316  0.75634  1.0000
  C   C996      1.0  0.75764  0.92168  0.76106  1.0000
  C   C997      1.0  0.72549  0.90894  0.74707  1.0000
  C   C998      1.0  0.50634  0.69847  0.75045  1.0000
  H   H795      1.0  0.69313  0.90080  0.75096  1.0000
  H   H796      1.0  0.52414  0.90686  0.66555  1.0000
  Fe  Fe70      1.0  0.50064  0.48643  0.80570  1.0000
  C   C999      1.0  0.58796  0.71803  0.94806  1.0000
  S   S139      1.0  0.83951  0.95038  0.77471  1.0000
  C   C1000     1.0  0.93734  0.49179  0.82311  1.0000
  C   C1001     1.0  0.62293  0.53393  0.97521  1.0000
  H   H797      1.0  0.92848  0.85767  0.84304  1.0000
  C   C1002     1.0  0.77237  0.84263  0.65979  1.0000
  C   C1003     1.0  0.73762  0.53041  0.96036  1.0000
  C   C1004     1.0  0.65772  0.65401  0.83794  1.0000
  C   C1005     1.0  0.68382  0.69487  0.82996  1.0000
  P   P35       1.0  0.74045  0.72452  0.83568  1.0000
  C   C1006     1.0  0.76629  0.78044  0.82873  1.0000
  C   C1007     1.0  0.74785  0.72527  0.86089  1.0000
  C   C1008     1.0  0.71521  0.71990  0.87347  1.0000
  C   C1009     1.0  0.72142  0.71980  0.89299  1.0000
  C   C1010     1.0  0.76034  0.72549  0.90002  1.0000
  C   C1011     1.0  0.79324  0.73182  0.88755  1.0000
  C   C1012     1.0  0.78713  0.73207  0.86808  1.0000
  C   C1013     1.0  0.80887  0.80166  0.82204  1.0000
  C   C1014     1.0  0.82795  0.84420  0.81582  1.0000
  C   C1015     1.0  0.76404  0.69588  0.82451  1.0000
  C   C1016     1.0  0.78166  0.70680  0.80624  1.0000
  C   C1017     1.0  0.79949  0.68408  0.79775  1.0000
  C   C1018     1.0  0.79929  0.64993  0.80732  1.0000
  C   C1019     1.0  0.78116  0.63846  0.82532  1.0000
  C   C1020     1.0  0.76333  0.66102  0.83385  1.0000
  H   H798      1.0  0.85493  0.89464  0.69083  1.0000
  H   H799      1.0  0.67098  0.64070  0.84787  1.0000
  H   H800      1.0  0.68501  0.71571  0.86827  1.0000
  H   H801      1.0  0.69608  0.71518  0.90268  1.0000
  H   H802      1.0  0.76515  0.72505  0.91510  1.0000
  H   H803      1.0  0.82355  0.73625  0.89287  1.0000
  H   H804      1.0  0.81295  0.73707  0.85861  1.0000
  H   H805      1.0  0.82772  0.78573  0.82166  1.0000
  H   H806      1.0  0.86039  0.85981  0.81018  1.0000
  H   H807      1.0  0.78234  0.73324  0.79862  1.0000
  H   H808      1.0  0.81412  0.69333  0.78390  1.0000
  H   H809      1.0  0.81347  0.63248  0.80092  1.0000
  H   H810      1.0  0.78124  0.61221  0.83277  1.0000
  H   H811      1.0  0.74941  0.65130  0.84783  1.0000
  C   C1021     1.0  0.60161  0.63029  0.76365  1.0000
  C   C1022     1.0  0.61927  0.61389  0.77653  1.0000
  C   C1023     1.0  0.66163  0.63962  0.78263  1.0000
  C   C1024     1.0  0.68631  0.68170  0.77582  1.0000
  C   C1025     1.0  0.66930  0.69802  0.76243  1.0000
  C   C1026     1.0  0.62635  0.67223  0.75671  1.0000
  P   P36       1.0  0.70047  0.75258  0.75365  1.0000
  C   C1027     1.0  0.67798  0.78253  0.76451  1.0000
  C   C1028     1.0  0.75768  0.77685  0.75792  1.0000
  C   C1029     1.0  0.78269  0.82101  0.76179  1.0000
  C   C1030     1.0  0.82663  0.83944  0.76550  1.0000
  C   C1031     1.0  0.84638  0.81442  0.76476  1.0000
  C   C1032     1.0  0.82236  0.77109  0.75978  1.0000
  C   C1033     1.0  0.77826  0.75243  0.75615  1.0000
  C   C1034     1.0  0.69395  0.80372  0.78178  1.0000
  C   C1035     1.0  0.67693  0.82756  0.78988  1.0000
  C   C1036     1.0  0.64342  0.82983  0.78096  1.0000
  C   C1037     1.0  0.62664  0.80792  0.76406  1.0000
  C   C1038     1.0  0.64350  0.78404  0.75591  1.0000
  C   C1039     1.0  0.69589  0.75352  0.72832  1.0000
  C   C1040     1.0  0.68515  0.71681  0.71748  1.0000
  C   C1041     1.0  0.68161  0.71803  0.69785  1.0000
  C   C1042     1.0  0.68926  0.75595  0.68892  1.0000
  C   C1043     1.0  0.70082  0.79283  0.69959  1.0000
  C   C1044     1.0  0.70446  0.79173  0.71920  1.0000
  H   H812      1.0  0.56856  0.61052  0.75913  1.0000
  C   C1045     1.0  0.49664  0.63604  0.73283  1.0000
  H   H813      1.0  0.71815  0.70158  0.78138  1.0000
  H   H814      1.0  0.61181  0.68450  0.74692  1.0000
  H   H815      1.0  0.76864  0.84159  0.76187  1.0000
  H   H816      1.0  0.84548  0.87332  0.76891  1.0000
  H   H817      1.0  0.88048  0.82887  0.76778  1.0000
  H   H818      1.0  0.83819  0.75220  0.75871  1.0000
  H   H819      1.0  0.76032  0.71902  0.75199  1.0000
  H   H820      1.0  0.72017  0.80267  0.78881  1.0000
  H   H821      1.0  0.69023  0.84501  0.80286  1.0000
  H   H822      1.0  0.63061  0.84882  0.78703  1.0000
  H   H823      1.0  0.60077  0.80978  0.75712  1.0000
  H   H824      1.0  0.62975  0.76724  0.74281  1.0000
  H   H825      1.0  0.67945  0.68726  0.72413  1.0000
  H   H826      1.0  0.67275  0.68949  0.68955  1.0000
  H   H827      1.0  0.68619  0.75671  0.67375  1.0000
  H   H828      1.0  0.70675  0.82238  0.69277  1.0000
  H   H829      1.0  0.71357  0.82064  0.72727  1.0000
  H   H830      1.0  0.72637  0.49635  0.95963  1.0000
  C   C1046     1.0  0.59690  0.64516  0.81957  1.0000
  C   C1047     1.0  0.61442  0.62949  0.83287  1.0000
  C   C1048     1.0  0.49026  0.61256  0.74962  1.0000
  H   H831      1.0  0.84068  0.60342  0.96860  1.0000
  S   S140      1.0  0.51903  0.77109  0.65803  1.0000
  C   C1049     1.0  0.61238  0.71580  0.97972  1.0000
  C   C1050     1.0  0.57316  0.65006  0.96170  1.0000
  H   H832      1.0  0.71313  0.78915  0.83726  1.0000
  H   H833      1.0  0.74800  0.86505  0.82670  1.0000
  C   C1051     1.0  0.62270  0.68558  0.81139  1.0000
  H   H834      1.0  0.59466  0.59781  0.83897  1.0000
  C   C1052     1.0  0.50132  0.67544  0.76727  1.0000
  C   C1053     1.0  0.69130  0.94689  0.66350  1.0000
  C   C1054     1.0  0.60582  0.51541  0.82746  1.0000
  H   H835      1.0  0.69014  0.54311  0.85766  1.0000
  C   C1055     1.0  0.76444  0.84686  0.82505  1.0000
  C   C1056     1.0  0.92619  0.59062  0.97942  1.0000
  C   C1057     1.0  0.74486  0.80393  0.83095  1.0000
  H   H836      1.0  0.75059  0.81044  0.65485  1.0000
  C   C1058     1.0  0.72934  0.54754  0.97670  1.0000
  H   H837      1.0  0.56370  0.62537  0.81521  1.0000
  H   H838      1.0  0.55899  0.61552  0.96042  1.0000
  H   H839      1.0  0.50373  0.69079  0.78067  1.0000
  H   H840      1.0  0.60946  0.69717  0.80064  1.0000
  C   C1059     1.0  0.80558  0.86668  0.81707  1.0000
  C   C1060     1.0  0.82979  0.92532  0.67283  1.0000
  H   H841      1.0  0.61855  0.53784  0.85623  1.0000
  C   C1061     1.0  0.50460  0.67869  0.73321  1.0000
  C   C1062     1.0  0.48382  0.61016  0.83806  1.0000
  C   C1063     1.0  0.86895  0.60026  0.96664  1.0000
  H   H842      1.0  0.82052  0.89974  0.81219  1.0000
  H   H843      1.0  0.59469  0.76090  0.66821  1.0000
  H   H844      1.0  0.58570  0.73624  0.93633  1.0000
  H   H845      1.0  0.66445  0.58080  0.95477  1.0000
  H   H846      1.0  0.64991  0.63725  0.96611  1.0000
  H   H847      1.0  0.74951  0.92314  0.77565  1.0000
  H   H848      1.0  0.90603  0.76045  0.80224  1.0000
  C   C1064     1.0  0.63094  0.52975  0.84391  1.0000
  H   H849      1.0  0.81238  0.52111  0.98029  1.0000
  C   C1065     1.0  0.70770  0.91970  0.65955  1.0000
  H   H850      1.0  0.85174  0.95728  0.67808  1.0000
  S   S141      1.0  0.47924  0.55847  0.74817  1.0000
  C   C1066     1.0  0.76959  0.87783  0.65286  1.0000
  H   H851      1.0  0.93304  0.59965  0.93138  1.0000
  H   H852      1.0  0.52654  0.67539  0.82916  1.0000
  C   C1067     1.0  0.83159  0.89000  0.68003  1.0000
  C   C1068     1.0  0.62227  0.50517  0.81163  1.0000
  S   S142      1.0  0.80144  0.51579  0.87537  1.0000
  C   C1069     1.0  0.63380  0.60600  0.97286  1.0000
  S   S143      1.0  0.49859  0.81110  0.70576  1.0000
  H   H853      1.0  0.78619  0.91754  0.70876  1.0000
  C   C1070     1.0  0.94188  0.59248  0.96109  1.0000
  H   H854      1.0  0.80448  0.82136  0.67905  1.0000
  H   H855      1.0  0.60342  0.49454  0.79887  1.0000
  H   H856      1.0  0.50844  0.69592  0.72014  1.0000
  Fe  Fe71      1.0  0.95413  0.92201  0.79812  1.0000
  S   S144      1.0  0.55404  0.51039  0.82768  1.0000
  H   H857      1.0  0.79780  0.94705  0.65399  1.0000
  H   H858      1.0  0.63035  0.50967  0.97048  1.0000
  C   C1071     1.0  0.49398  0.64843  0.82873  1.0000
  C   C1072     1.0  0.94089  0.50937  0.87008  1.0000
  H   H859      1.0  0.95411  0.52603  0.82599  1.0000
  C   C1073     1.0  0.79904  0.91934  0.65924  1.0000
  C   C1074     1.0  0.59465  0.67112  0.97831  1.0000
  C   C1075     1.0  0.49311  0.63269  0.76690  1.0000
  C   C1076     1.0  0.97150  0.54953  0.91590  1.0000
  C   C1077     1.0  0.49325  0.95761  0.70813  1.0000
  H   H860      1.0  0.68921  0.95519  0.67805  1.0000
  H   H861      1.0  0.65669  0.83328  0.66391  1.0000
  H   H862      1.0  0.87562  0.48329  0.83098  1.0000
  C   C1078     1.0  0.61802  0.76670  0.65719  1.0000
  C   C1079     1.0  0.65318  0.80797  0.65454  1.0000
  Fe  Fe72      1.0  0.91021  0.96792  0.77937  1.0000
  H   H863      1.0  0.65883  0.49902  0.74533  1.0000
  C   C1080     1.0  0.88953  0.59447  0.98227  1.0000
  H   H864      1.0  0.97034  0.58982  0.95885  1.0000
