data_image0
_chemical_formula_structural       HCFeS2FeS2FeSFeS3C2FeS2FeS2FeSFeCS2FeCSFeHSHSHS2FeSHFeS2FeSFeS4HCHCHSH3CHC2HC3HC2HC2PC7H4C6H2CHC3H2C2HC3H4C4H2C5H3C7H4C6HSH2PC4H5CHC4HC2H2CHSC2PHC3H8C4SHC2HC3HCSH4C6HC2HC3HC5HC3HFeH4C3H3CH4C2H2C2HC2HC3H2CH2CH3C5HCHSCH3CH3CHC4HCH2CH2C5HCH3C3HCHC4H2C3HCHCPC7H3C10HC2H2CH2C2HCH6C2HCH2PHC3HC9HC3SC4FeH2CH7CHCH2C6PHCHC4HCHC7H8C3H4CH3CH2C6PC8H3C2H2C3H2CH10CHCHCH3C5HPC2HC4HC2HC3HC3H4C2H3C2H3C3HCHCHCH2CHC2H2FeHCHCPC5HC3H5CHC2H2CHPC2HC2HC3H2CHC2HPCSHCSCH4C3H2CHC2FeHC3HC2H3CHC2HC2HCSC3PHC3H2C2HC3H4CHCH2CHC4H2CH2CFeCHCH2C4H2FeSCFeS2FeS2FeSFeS3CSHS2H2FeSH2SC2SCFe2S2FeS2FeSFeS3FeS4PFeSFeCSCHFeSC3HC6H4C6H5C5H3CHC6H4C6H4C6H4C6H5C7H3CHCH2CHC3PC4HC13SH3CH13C5HCH2C3HCHC2SH4CH6CH2SC2SHCHC2SC2HFeHC4PC17HCH15CH2C3H2CHPCHC2H2FeC2HC2HC2HSH2C8PC18H18C6PC15H10FeH6CH4CH2C2HC3HC2HCHC7PC18H19C2H2CHCHFeCHC3HC3HSCHCHC2H5SH3CH3CHC2H2CHC3HFeH3SCH3CHFeS2CFeHFeS3HSCH2FeSCH2C2HFeSFeSHFeSFeS4HFeSCHCHSCSH2C7H4C2HC5H2C4HCH3FeCHCH2C3HSH2CHCHC2H2C8HCH2CHC8HSCPC3HCSC7PC2H2C2HCHC5HCHCH5CHCH2C2H3CHC2HC6PC12S2CHC2HPHCH7CHC2HCHCHCH2SHC3SCHC2H3CH2CHC4HCHSHC3HCSFeCHCPC7HC10H7C2HC2H5SHCH4C3H2C2SC2HCH2C6H2SH5CSCH2CHFeHC2H2CPHC2HC3H2C2HC10HCH3C2H6C6PC4H3C7HC3PH12CHCSC3HCH2CFeCHCH2CHC3HCPH2C2HCHC2HCHC2H2C4H3FeH2CH2C2HC2H2CH2CHSH2C2H3CHCH4CH3C3H2CH4FeCHCH3C2FeS2FeS2FeSFeS3HS2CSFeSHFeSHFeCSFeS2FeS2FeSFeS3PC2SHCHFeHS2H2C2PCHC6H2CHC6H4C6H4C3H2C6H4C6H4C6H4C6H5C2H2C4H2C3HSC4HC2H2CHC2HCHC6PC18H19C6HC2HCH7C2HC4H4SC2HC5PHCHFeCH2C3HC2H4FeC2H2C3H3CHC2HC2HC3PHC3H2C5H2CHCHC3H2CH4C3H3CHC2H5C2SCSCSCHCHCHCHC4HC4HCSH2C3H4C2HC5H4C2HCHPC9HC7H3CH10CHCH4C2HCH3PHC2H2C3SCH2C2HC2H2CFeC2SHC4H2CFeHC6H3CHC2HCH4C3PC3HC2H3PCH2C2HCHCHC2H4C3H2C2HC6H2CHCH2C2H2C4H3CHCFeS2FeSHFe2S3HFeS2FeSFeHFeS2C2H2SC3HFeS2FeS2FeS2HFeS2FeS2FeSFeS2FeS2FeS2FeSFeHS2FeS3FeSCSC5HC2HCH2C7H2CHC6H4C6H4C6H4CSC2H2C7H4C2HC6H2C3H2CH2CHC6H5C3PC13H6CH3C6PC3FeHPC12H6C3H11C8PH2CHC2SH3C3H5CHCHC2H2C2H2CH3SC2HCHC10H10C2HC2HCHCSC2HPHC2H2C2H2C2HCHCHC5HCHCH5CPHCHCH6C2H2C2HC3H2C3PHCH4C2HCH6CHCH2C2SC4HCH2CH3C4HCHC4PH2CHC2H2CPHCHC2HSCH2CH2CHC2H2C3HC2H2C2HC3HCHCHCHCH3C3H3CFeHCH5C2HC2HC2H4C2H2CHFeHCSHC2HC2HCSHPC2H2C8HSCHC4HCH2CHCH4C4H4CHC2HCHCH2C5HCHFeH4C4HC2H2C3HCH3CH2CH2C2H2CHCH3S2Fe2S2FeSFeS2CPHFeS2FeSFeS3CSCHFeSCHCFeS2FeS2FeSFeS3CFeS2HFeSC7H4C6H5C4H2C7H3C7H3C6H6C7H4C6H6CH3CHC4HC6HCH2C4SC2HC3PC4PC7H2C12H5CHSCHC2H5C3H4PC4FeC3PC4HC13H3FeH2C3H11C3HCS2C5H3CHCHC2HCHC2HC4H2C2H2SHCHFeH3CHC2PC14FeC3HCH13CH2C4H2CHCH2CHCHC6PC15H2CH7CH10FeH3CHCH3CHC3SPHSCFeH3C2H2C2H2C2HC2HC3H4C2H2C2H2C4PHCSCHSHC6PC18H21C3H3CHCSHSH2C7HC2H2C2HC2H2CH2C2H3CHCHC3H2CHC4H3C2H2PHCSC2HC2HCH2SCHCHCHCSH2CH4C2HC2HCHC2HC2PC2HC4HCH2C2HC2PCHSH2C2H2CHSHCFeS2FeS2FeSFeS3FeSFeS2HFeS3FeSHFeS2FeS2FeSFeS3FeSFeSCH2CH2SC6H4C6H4C6H4CHC2FeHC7H4C6H4C6H4C6H3CH2CH3CH3PC4HCHC3HC4H2CHC2HCH2C4H3C3H2C6PC18H12CH7CHSHCSCHCPC3H4CHC2HC3H3CPC2HC3H3C2H2CHPH2CH2C2HC4H3C5H5CHC2H3C4H3C6PC9HC8H7CH2CH8PH6C2HC5H5C2H4CH4C2HCH3C3H2CHC3HCHC3HCHCHC8PCHC3HCHS2H2CH4CSH2C2H3CHC5HCHCHC3HCHC2H5CHCHC4HCFeSH3FePHC9HCHCH2CS2C6H2C3HCHC4H3C2HC5HCH3CH3C3HCFe2S2FeSCFe2CSFeS2FeSHCHCHSFeS2FeS2FeSFeS2FeS2FeHFeSHSHCH3SC2HCSC7H4C6H4C2H2C2SHC2HC2HC6H2C6H5C6H4CH2C2H2CFeC2HCHC2HC5H2CHCHCHC8H2CHFeCSC2H3CPCH4C3HC2HC2PC11HC6H3CH2SCH5CH6CHSC2HC8H2SHC6PH2CHCH2CHCH4CH6CHCSPCHC2H3CHC4HCHC3SH2C2H2FeHCH6CH2C3FeSC3HCPC2FeCH4CH4CHC3H3C2HCHCH2CHC2SCH3CHCHC4HC4H2CH2CH6CH3CSHCH2C4HCSH2CH6C2H3C4HCHC2H2C11HC3HC2H6PC2HFeC2PC2H4C3H2CH3C2H2CHC2SFeC5HSPC2HCSH2CHCHCHCHCHC3H4C4HC2HC2HC3HCHC2SCHCHSHFeS2CFeS2FeS2FeSFeS3FeSCFeSHFeS2C2HFeS2FeS2FeSFeS4FeCSHCFeSHSHC6H4C6H4C6H4C6H4C6H4C4H2CHCHC2H3C6H4CH2CHC10HCH3CHC2HC2PC18H4C2H3CH5PC8HCHCH4CHSH2SHC4PC2HC12H3CH10C7H3C6HCSPH3CH5CH2CHC5PHC4HPHCHCH2CH2C2H5CHCHCH2C2H2CPC10H7PC13HCHCH3CH2CH2C3PC20SH16C2HCH4CHCH4CH2FeHSHC3HFeCH2SH2C6PC18H23C4H7C2H6C2SCFeC4H2C2HCHCHC2H2C3HC2H2CH4C2HCH4CHC8PC14HC3H10C2HC2HCHC3H2CHC2HCH4CHC3HCH3C2H2C3S2HCH2CHC2SC4FeC2SPHC2HCHC3H2CFeCSH3CHCHCHC2H4C3FeSFeS2FeSFeS3HFeS2FeS2FeHFeS3FeS2FeS2HFeS3H2S2FeS2FeSCFeS3FeSHFeS2FeSFeS3C2S2C6H4FeC2H2C6H4C6H4C2HC6H8C6H4C6H4C2HC3HCHC6H4C6HCHSHSCH2C2H2CSHC2FeC4H2PC3HC2FeCH2C7H4CH2C2H2CHPCH2CHCHCSHCH6C6H2CHCHC4HCH2CH5C5HCHC2HC2H3FeSH3CH3C5HC2HC3H3CHC6PC18H21C5PC13H2CH8C4PC18H16CH2C3H2C4H4SC2H2C3HCPSC2H4C4HCH4C7PC3H2C13H5CH15FeCSC2H2CHC3H2C4PHC3PCFeHC2HCHC11HC3H2CHCH2C2H2C5H2CH3CH4SHC2H2CHCH2FeCH3CHC4H2C2HC2HCHPHC2H2SCHFeS2FeSFeS2C2FeHS2C2S2FeSCFeS2FeSCSFeS2FeSFeSCSCPCFeHSFeS2C2HCH2C7H3C3H3C3H3CHC2SH4CHC5H2C4H2C7H4C4H4CHFeC2H2C8H6SHC8PC15H18C6PCHC8HCHC3H2CH4CHC3H2CH2C3S2HC2H5CH2C3H2SH2CHC2HC2HC2HC2SCPHCHC2HSHCHC6PC18H8CH11C7HC3H3C2HCH4CH6C3SHFeC4S2C4PC14H5CH6CHCSC2HCHC2H2CH2CH2CH2C4HSCH2CHC3HFeC2H2CHC2PC12HCH8CH2FeHCFe2HC2HCH2C3H2CH3CHCHC3SCPSCHCH8CSHCH7C8HC3H4CH3CSCHFeCH2C3HCH2CHCHC5H4CHSH4CH4C2H2C2SCHCH2FeC3SCFeSFeS2FeS2FeSFeS4FeSH2C2FeSHCFeS2H2FeCHFeSHSFeS2FeS2FeSFeS4FeSC2HC3H4C6H7CHC9H4C6H4C6H5C2SCHFeC6H4C6H3C2HC2HCHCHC2HCH2C3HCH3CSC4H3CHCHCPH2C3H2CH4CH2C2H3CH4C2HCH4C3H2CHFeH4C2H5SCHCH3C5PC2HCHCH3CHPC2HC7HCH5CHCH5C2H2C6PC10HC7H11CH8C6PC9H2CH3C3H3C4HC2HC3SH2C5H6C2H2C2HC4HCHC4HC7HCH2C2HC3HCHC4HPHC2HC2HC4HC4PC18H12CH8C2H3CHC3H2SH2C2H3C2H2SHCH2C2HC2HCH3CH2C6H2C2HPFeSFe2SFeSFeS2FeS2FeSFeS3CFeSFeS2FeSFeS3HFeS2C2SHCSH2C2PHC6H4C2HC7H5CHC2HC2HC3H4C6H3C7H4CHC2HC7SPC5HC3H2CHCH2CHC6H2C3SC2HC2SC5H2C2HCH5FeCHCH3CHCPC10PC18H17CH3C2H3PCH2C10H2CH2C5HSHC2H2C2H5C3HC3H6C2PHCHC2HCH2C3HC3HC2HC5HCHC3PCH2C2HC2H7C2H2C8HCH6C2H4C2H2SC2H5C3HSCHC2HCHCH2C7HCHCHCHCHCHFeH2C2HSHC3HC3H2C4H2SC3H2CH3CHCHCH3CH3C2H2C2HC2H4C3H3C4H2C2SH5C3H3CHCH3CHC2H5C2HCHCPC2HFeS2FeS2FeSFeS3CHFeSCFeS2FeSFeS3HFeS2FeS2FeSFeS3PSHCSFe2SH3SCHCSH2C6H3C7H2SHC6H3C6H4CHC7HCH2C4H4C2HC6H4C6H4C6H4CH2C3H2CHSCHC5HC3H5C2HC6H2C4H2CHC6HCH12C2H4SC3H3SC2H2CHC2H2C2HC9HC3HC9HCH3C2H3C3HSHC3HFeC2HCHC2HC2HCHCH3C4FeCHC2HCHCHPC14HCH9CHC6H3C3HCHCH2C2H4CHCH4SCH2C2HCHCH2C2H3CHC6PC18H21CPC4PC18H2CH17C6PC4PC18H8CH11C2HCHCPCPC2H7C3HCSCFeCH2SHCH2CPC2H3P2CH2CH2CH2C3PC7HC4SHC6HC2HCHC2HC3FeH7CHCHCH2CSH3CH2C2HC4H5C4HC2HCHFeS2FeS2Fe2S3FeSFeS2Fe2H2SFeS2FeHCFeSCS2CS3HS2FeS2FeSHFeSFeCS2CSHCHFeSC2SC6SCHC2H2C6H3CHC2HC2H4C7H4C6H7SC3H5C3FeHC6H2CHC6H4C6H4C3SC3H3CHCHC2SCHC4H2SCHCHCHC2H5C4H4C6PC18H20C4HCH3C2H7CH3CHCH3C2HC2HCHC2SC2H4C5H5C6PC16H17C7PC18H16CH5CHC2HPCHC3HC2HCHCH2C6HC2HPC7HC7H2C5H2CH8CH2SH3C4HC2H2CFeCH5C4SC2HCH2C4HCHSPC4HCHC3HC2H4CH4SCHSH2C2H2PC4HSH2SC2HC2HFeC2H4CPC2H2CH2C4HCHCHCHCH2FeSH3CHC7FeHPFeH2C3H2C3HC2H2C2SHC3HC2HCHC2H3FeCSFeS2FeHFeS2C4HC3S2CHCHFeSC2HFeS2H2CH2SFeHSHC2SHSHCHCSFeS2FeS2FeS2HFeCSCHC6HCH2C3H2CH5C8HSH2C6H4C3H5CHSHCHCHC3HC3H3CSHC3H2C5HCH2C4HFeHCH2C7HC7HCH2C3HC2HC2HSHCSCHPHCHCHCH2C13FeCH4S2CH2CH6CH3CSH5CH2C4HCHC2HCHCHC2H3C2HCH3CHC2PC8HC7H2CH3CH6SHC8PC9H7SHSH3CHC2HCHC3H3C3PH4CH2CFePH3CHC4HCPHC3HC9H5FeH2CPC8HC6H6C2H3PCH4CHCHC4HCH2PC3HFeH2C5HCH3CH2CHCHSCH3CH2PSHC3H2C2HCH2C2H2CSHC6HSH2C3HCH2C4HC3H2FeH2CHC3HC3H6CHC2Fe2C3HCH3C2HC2H2C4FeS2FeS2FeSFeS3FeS2CSCFeS2CSFeS2FeS2FeSFeS3FeS4CFeHCFeC6H4C6H4C6H7C6H4C6H4C6HCH2C6H2CHSC2H2C3HC4FeHC3HC2PHC2HC4H6CHC3HC2PSH4C2H2CHC4H2CH3C6PC18H21CH10SCHC2HC2H6SCHC2HC5H2C2H4FeC9PC18H22PHPC8HCH2C4H4C3H2C2HPC2H2CFeC2H2PC2SH4CHP2C12HC3HCH2CH10C3HC2H3C9HCH2CHCHCH2C3HCH2CHCHC2HC3H3C3HC3HCHFeHSH4CH3C3HCHC2HSHCSC2HCSHC2HFeSCFeS2FeSFeSFeS2H2S2CSFeSCSHSHFeSCFeSFeSHSFeS2FeS2FeSFeS3HCHC3HCHC3HC2HC2H4C6H5C2H2CHC6H9PH2CSH2C7H3C2HC6H4C6HCH2CHC2H2CH2C5HC2H4CHCH3PCH2C2HCHCHCH3C3H3C3HCH4CH5CHC2HCHC4HCFeH2C3H4FeH2SCH4CPC4HPC2HC2H2CHC4HCH2C5H2C5HC5HC3HC2H2CPH2C3SCSC3HCHC2HCHC6PC2HCH2C3HC8H3FeH2CSC2H2CH7PHC5SC6SHC3HC2H4C2H3CHCHCH4PC2HC2HC6PC15HSCH6C2H3C3H3CH2C5HC3H3CSHC4HCH3CFeCH2C2H3CH9C2SC4HCH4C2HC3HCS2HC2FeS2FeS2FeSFeS3CS2CSFeSFeHSCFeS2FeS2CHFeS2FeS2FeS2FeSFeS4PSC6H4C6H4C6H4C6H4C6H4C6H3CHC2HCFeC8H2C5H2C7SH2CH2CHC3H3CH6CSC2HSCSHCHPHC3H3C2H3C6HC3H2CH2CH2S2H6CHC5HCH4FeCHC3HCHC2HC3HPC11HC6HCH12CH7C4HCH2C2HCHCHCH2C2FeHC4HCFeC3H3CH4C7H9C6PC19H11CH6C6PC4HC13H7CH8SC2HCSC10H2CH4PH3CHCH2CHPHCH2C4HC7HCH4C3H5CHCH2CH2C4HFeHC7H2CH6C6PC2H3C10HC2H4CH3CH5C2H5CH2CHCHCH2C4FeS2FeSHFeSCSHCFeC3FeS2FeS2FeSFeSFeS3FeS2HSFeSFeSHSFeS2FeSFeSFeS4FeHSHFeS2H2FeH2C2HCSC3H3C4H2C3HC2H3C7H4C6H4C4H3PHC6H4C6H4C7H4CH3CH2CHC6H5C3HFeCH2C3HCPHCH3CHC2HC2HCHPSC3PC13HC5H14CHSH3CH4PC12HC2SH2CHC2H6C2H2C2H2C14H3PCHSH6C3HC2HC4SH2C2H3C2HFeCFeC2H5C7PC18H7CH12CPC13H3CH6C2H2CSHCH3C3H6C2HCHCHC3H4CH3CS2HC4H2SC3HCHCH2C3HCSCHC2SC3H2C2H2CH2C8PC18H20C6PC8H2C5H2SCHC3H2CHC2SC2SC2HC4HCH5CH3FeHSCHCH2FeSHCHCH3C2
_chemical_formula_sum              "H4608 C5760 Fe384 S768 P192"
_cell_length_a       62.1696
_cell_length_b       62.6513
_cell_length_c       98.3586
_cell_angle_alpha    78.6362
_cell_angle_beta     78.6225
_cell_angle_gamma    79.0146

_space_group_name_H-M_alt    "P 1"
_space_group_IT_number       1

loop_
  _space_group_symop_operation_xyz
  'x, y, z'

loop_
  _atom_site_type_symbol
  _atom_site_label
  _atom_site_symmetry_multiplicity
  _atom_site_fract_x
  _atom_site_fract_y
  _atom_site_fract_z
  _atom_site_occupancy
  H   H1        1.0  0.21901  0.04639  0.16270  1.0000
  C   C1        1.0  0.99368  0.36232  0.02190  1.0000
  Fe  Fe1       1.0  0.42910  0.35008  0.06219  1.0000
  S   S1        1.0  0.39985  0.37058  0.05279  1.0000
  S   S2        1.0  0.43013  0.31299  0.06743  1.0000
  Fe  Fe2       1.0  0.44947  0.39027  0.06316  1.0000
  S   S3        1.0  0.42165  0.41320  0.05436  1.0000
  S   S4        1.0  0.98849  0.23823  0.09147  1.0000
  Fe  Fe3       1.0  0.39861  0.39200  0.06884  1.0000
  S   S5        1.0  0.36865  0.41012  0.08168  1.0000
  Fe  Fe4       1.0  0.42529  0.39010  0.03906  1.0000
  S   S6        1.0  0.42916  0.40812  0.01658  1.0000
  S   S7        1.0  0.42633  0.37047  0.07906  1.0000
  S   S8        1.0  0.45462  0.36790  0.04712  1.0000
  C   C2        1.0  0.00487  0.42590  0.98949  1.0000
  C   C3        1.0  0.01614  0.31171  0.10231  1.0000
  Fe  Fe5       1.0  0.07675  0.37165  0.03349  1.0000
  S   S9        1.0  0.04642  0.35557  0.03736  1.0000
  S   S10       1.0  0.09694  0.37829  0.01168  1.0000
  Fe  Fe6       1.0  0.06954  0.38089  0.06362  1.0000
  S   S11       1.0  0.03806  0.36605  0.06970  1.0000
  S   S12       1.0  0.08010  0.39249  0.08139  1.0000
  Fe  Fe7       1.0  0.05677  0.33894  0.05803  1.0000
  S   S13       1.0  0.06048  0.30235  0.06725  1.0000
  Fe  Fe8       1.0  0.03020  0.38386  0.04873  1.0000
  C   C4        1.0  0.08183  0.97817  0.06176  1.0000
  S   S14       1.0  0.08893  0.35276  0.05319  1.0000
  S   S15       1.0  0.05992  0.40113  0.04357  1.0000
  Fe  Fe9       1.0  0.03236  0.17726  0.12085  1.0000
  C   C5        1.0  0.43664  0.14222  0.09318  1.0000
  S   S16       1.0  0.06579  0.17896  0.12691  1.0000
  Fe  Fe10      1.0  0.00773  0.15390  0.10420  1.0000
  H   H2        1.0  0.03741  0.20543  0.14725  1.0000
  S   S17       1.0  0.01012  0.12165  0.09549  1.0000
  H   H3        1.0  0.44340  0.21339  0.11206  1.0000
  S   S18       1.0  0.25431  0.00560  0.12975  1.0000
  H   H4        1.0  0.37586  0.45311  0.05088  1.0000
  S   S19       1.0  0.02926  0.18091  0.09794  1.0000
  S   S20       1.0  0.01416  0.14805  0.12658  1.0000
  Fe  Fe11      1.0  0.20714  0.45274  0.11075  1.0000
  S   S21       1.0  0.21902  0.44302  0.08920  1.0000
  H   H5        1.0  0.48335  0.34744  0.97121  1.0000
  Fe  Fe12      1.0  0.19689  0.40640  0.12341  1.0000
  S   S22       1.0  0.20785  0.39374  0.10297  1.0000
  S   S23       1.0  0.18238  0.38583  0.14375  1.0000
  Fe  Fe13      1.0  0.23696  0.41176  0.10004  1.0000
  S   S24       1.0  0.26889  0.39254  0.08947  1.0000
  Fe  Fe14      1.0  0.18931  0.42567  0.09347  1.0000
  S   S25       1.0  0.17191  0.42705  0.07490  1.0000
  S   S26       1.0  0.22738  0.42230  0.12139  1.0000
  S   S27       1.0  0.17599  0.43749  0.11413  1.0000
  S   S28       1.0  0.00905  0.99239  0.03365  1.0000
  H   H6        1.0  0.45750  0.43900  0.04992  1.0000
  C   C6        1.0  0.43069  0.22775  0.11093  1.0000
  H   H7        1.0  0.02000  0.02883  0.99649  1.0000
  C   C7        1.0  0.43591  0.14997  0.10568  1.0000
  H   H8        1.0  0.42218  0.33053  0.99592  1.0000
  S   S29       1.0  0.44660  0.19207  0.14173  1.0000
  H   H9        1.0  0.41020  0.42211  0.08817  1.0000
  H   H10       1.0  0.15520  0.30198  0.12076  1.0000
  H   H11       1.0  0.11324  0.45963  0.02736  1.0000
  C   C8        1.0  0.08707  0.32834  0.99407  1.0000
  H   H12       1.0  0.46167  0.10521  0.06711  1.0000
  C   C9        1.0  0.37297  0.43358  0.03579  1.0000
  C   C10       1.0  0.32952  0.43231  0.05006  1.0000
  H   H13       1.0  0.29007  0.37225  0.04474  1.0000
  C   C11       1.0  0.99084  0.09322  0.08499  1.0000
  C   C12       1.0  0.09520  0.46509  0.07686  1.0000
  C   C13       1.0  0.41614  0.29204  0.15132  1.0000
  H   H14       1.0  0.36607  0.41291  0.02281  1.0000
  C   C14       1.0  0.34334  0.44397  0.05436  1.0000
  C   C15       1.0  0.42028  0.47151  0.03932  1.0000
  H   H15       1.0  0.36091  0.35538  0.12897  1.0000
  C   C16       1.0  0.42829  0.46778  0.02554  1.0000
  C   C17       1.0  0.02283  0.25562  0.04041  1.0000
  P   P1        1.0  0.47601  0.18183  0.06438  1.0000
  C   C18       1.0  0.00806  0.42660  0.10694  1.0000
  C   C19       1.0  0.10536  0.40259  0.07944  1.0000
  C   C20       1.0  0.11354  0.40411  0.09150  1.0000
  C   C21       1.0  0.13402  0.41139  0.09031  1.0000
  C   C22       1.0  0.14610  0.41783  0.07701  1.0000
  C   C23       1.0  0.13752  0.41695  0.06498  1.0000
  C   C24       1.0  0.11740  0.40905  0.06617  1.0000
  H   H16       1.0  0.10421  0.39920  0.10179  1.0000
  H   H17       1.0  0.14043  0.41208  0.09965  1.0000
  H   H18       1.0  0.14646  0.42242  0.05469  1.0000
  H   H19       1.0  0.11105  0.40818  0.05686  1.0000
  C   C25       1.0  0.04020  0.28453  0.07268  1.0000
  C   C26       1.0  0.04685  0.26268  0.07888  1.0000
  C   C27       1.0  0.03122  0.24835  0.08455  1.0000
  C   C28       1.0  0.00869  0.25569  0.08402  1.0000
  C   C29       1.0  0.12172  0.36959  0.13177  1.0000
  C   C30       1.0  0.01776  0.29165  0.07162  1.0000
  H   H20       1.0  0.06421  0.25689  0.07950  1.0000
  H   H21       1.0  0.03659  0.23164  0.08941  1.0000
  C   C31       1.0  0.47218  0.31737  0.10679  1.0000
  H   H22       1.0  0.01242  0.30827  0.06663  1.0000
  C   C32       1.0  0.09757  0.37074  0.98499  1.0000
  C   C33       1.0  0.09426  0.36224  0.99943  1.0000
  C   C34       1.0  0.08870  0.34113  0.00395  1.0000
  H   H23       1.0  0.10188  0.38708  0.98144  1.0000
  H   H24       1.0  0.08605  0.33452  0.01504  1.0000
  C   C35       1.0  0.17941  0.31194  0.14832  1.0000
  C   C36       1.0  0.41751  0.43710  0.08524  1.0000
  H   H25       1.0  0.09499  0.13401  0.09930  1.0000
  C   C37       1.0  0.18169  0.35732  0.14531  1.0000
  C   C38       1.0  0.19228  0.34548  0.13455  1.0000
  C   C39       1.0  0.19120  0.32288  0.13608  1.0000
  H   H26       1.0  0.27781  0.97755  0.04866  1.0000
  H   H27       1.0  0.40775  0.30887  0.09548  1.0000
  H   H28       1.0  0.20132  0.35372  0.12507  1.0000
  H   H29       1.0  0.19936  0.31395  0.12766  1.0000
  C   C40       1.0  0.07149  0.19458  0.13876  1.0000
  C   C41       1.0  0.05459  0.20586  0.14761  1.0000
  C   C42       1.0  0.09909  0.20715  0.14886  1.0000
  C   C43       1.0  0.09374  0.19527  0.13949  1.0000
  H   H30       1.0  0.45474  0.10418  0.11604  1.0000
  H   H31       1.0  0.10695  0.18650  0.13278  1.0000
  C   C44       1.0  0.40788  0.13328  0.15124  1.0000
  C   C45       1.0  0.43120  0.12984  0.14754  1.0000
  C   C46       1.0  0.44330  0.14757  0.14480  1.0000
  C   C47       1.0  0.43220  0.16905  0.14548  1.0000
  C   C48       1.0  0.20200  0.35751  0.98599  1.0000
  H   H32       1.0  0.38425  0.34322  0.08667  1.0000
  H   H33       1.0  0.46236  0.45771  0.08899  1.0000
  H   H34       1.0  0.46123  0.14463  0.14242  1.0000
  C   C49       1.0  0.30650  0.36529  0.04707  1.0000
  C   C50       1.0  0.34102  0.40499  0.08376  1.0000
  C   C51       1.0  0.33610  0.38724  0.07892  1.0000
  C   C52       1.0  0.31395  0.38359  0.08090  1.0000
  C   C53       1.0  0.29648  0.39771  0.08762  1.0000
  C   C54       1.0  0.30140  0.41548  0.09244  1.0000
  C   C55       1.0  0.32360  0.41903  0.09057  1.0000
  H   H35       1.0  0.34937  0.37630  0.07372  1.0000
  H   H36       1.0  0.31030  0.36977  0.07716  1.0000
  H   H37       1.0  0.28812  0.42645  0.09765  1.0000
  H   H38       1.0  0.32727  0.43276  0.09439  1.0000
  C   C56       1.0  0.45280  0.29712  0.07509  1.0000
  C   C57       1.0  0.47241  0.30559  0.07400  1.0000
  C   C58       1.0  0.47649  0.35484  0.99242  1.0000
  C   C59       1.0  0.19175  0.39703  0.98009  1.0000
  C   C60       1.0  0.46921  0.26260  0.08830  1.0000
  C   C61       1.0  0.45131  0.27552  0.08217  1.0000
  H   H39       1.0  0.47381  0.32215  0.06852  1.0000
  S   S30       1.0  0.17833  0.28361  0.14957  1.0000
  H   H40       1.0  0.46807  0.24597  0.09366  1.0000
  H   H41       1.0  0.43625  0.26879  0.08301  1.0000
  P   P2        1.0  0.08427  0.12161  0.15916  1.0000
  C   C62       1.0  0.39821  0.38158  0.99268  1.0000
  C   C63       1.0  0.40450  0.38703  0.00439  1.0000
  C   C64       1.0  0.42146  0.39965  0.00241  1.0000
  C   C65       1.0  0.43214  0.40664  0.98872  1.0000
  H   H42       1.0  0.34637  0.43685  0.98378  1.0000
  H   H43       1.0  0.38512  0.37179  0.99423  1.0000
  H   H44       1.0  0.39617  0.38159  0.01489  1.0000
  H   H45       1.0  0.44512  0.41652  0.98718  1.0000
  H   H46       1.0  0.04079  0.25228  0.03885  1.0000
  C   C66       1.0  0.44245  0.34385  0.00657  1.0000
  H   H47       1.0  0.12556  0.37845  0.12119  1.0000
  C   C67       1.0  0.26929  0.03980  0.13740  1.0000
  C   C68       1.0  0.28245  0.04949  0.14397  1.0000
  C   C69       1.0  0.29926  0.03634  0.15089  1.0000
  C   C70       1.0  0.30282  0.01341  0.15083  1.0000
  H   H48       1.0  0.25642  0.05016  0.13211  1.0000
  C   C71       1.0  0.33822  0.38369  0.99511  1.0000
  C   C72       1.0  0.12552  0.26026  0.13421  1.0000
  H   H49       1.0  0.08350  0.31178  0.99761  1.0000
  H   H50       1.0  0.11413  0.04262  0.08644  1.0000
  C   C73       1.0  0.47051  0.44450  0.05349  1.0000
  H   H51       1.0  0.99286  0.97836  0.06343  1.0000
  S   S31       1.0  0.33131  0.10988  0.15024  1.0000
  C   C74       1.0  0.33730  0.42120  0.03851  1.0000
  C   C75       1.0  0.07197  0.46861  0.07946  1.0000
  P   P3        1.0  0.11492  0.33558  0.11937  1.0000
  H   H52       1.0  0.28757  0.43173  0.01544  1.0000
  C   C76       1.0  0.47387  0.17709  0.03695  1.0000
  C   C77       1.0  0.99613  0.46984  0.97193  1.0000
  C   C78       1.0  0.24384  0.31818  0.14930  1.0000
  H   H53       1.0  0.37228  0.98337  0.15936  1.0000
  H   H54       1.0  0.08989  0.02212  0.07884  1.0000
  H   H55       1.0  0.44865  0.14572  0.07103  1.0000
  H   H56       1.0  0.03422  0.07309  0.08791  1.0000
  H   H57       1.0  0.15370  0.46023  0.02480  1.0000
  H   H58       1.0  0.42397  0.30652  0.14703  1.0000
  H   H59       1.0  0.07691  0.01334  0.05551  1.0000
  H   H60       1.0  0.46496  0.35854  0.01429  1.0000
  C   C79       1.0  0.11919  0.30600  0.12486  1.0000
  C   C80       1.0  0.43715  0.43806  0.08979  1.0000
  C   C81       1.0  0.09000  0.33687  0.97965  1.0000
  C   C82       1.0  0.10646  0.13403  0.13177  1.0000
  S   S32       1.0  0.39342  0.11036  0.15437  1.0000
  H   H61       1.0  0.03516  0.44608  0.05627  1.0000
  C   C83       1.0  0.33040  0.38455  0.00937  1.0000
  C   C84       1.0  0.08293  0.26693  0.10617  1.0000
  H   H62       1.0  0.47612  0.38754  0.96812  1.0000
  C   C85       1.0  0.10089  0.29498  0.13044  1.0000
  C   C86       1.0  0.47413  0.46653  0.04935  1.0000
  C   C87       1.0  0.34534  0.36769  0.04550  1.0000
  H   H63       1.0  0.10562  0.25668  0.00965  1.0000
  C   C88       1.0  0.48582  0.03452  0.10749  1.0000
  S   S33       1.0  0.31594  0.04737  0.16000  1.0000
  H   H64       1.0  0.22444  0.34428  0.15995  1.0000
  H   H65       1.0  0.47564  0.13021  0.12159  1.0000
  H   H66       1.0  0.01970  0.22973  0.05842  1.0000
  H   H67       1.0  0.38968  0.23935  0.16717  1.0000
  C   C89       1.0  0.19856  0.07314  0.13076  1.0000
  C   C90       1.0  0.17541  0.07558  0.13251  1.0000
  C   C91       1.0  0.16237  0.08382  0.14421  1.0000
  C   C92       1.0  0.17248  0.08929  0.15430  1.0000
  C   C93       1.0  0.19577  0.08651  0.15272  1.0000
  C   C94       1.0  0.12504  0.44462  0.02657  1.0000
  H   H68       1.0  0.00491  0.26484  0.15756  1.0000
  C   C95       1.0  0.22254  0.11713  0.15599  1.0000
  C   C96       1.0  0.29005  0.25543  0.15459  1.0000
  H   H69       1.0  0.27822  0.24062  0.12560  1.0000
  C   C97       1.0  0.46073  0.16863  0.08050  1.0000
  C   C98       1.0  0.11246  0.34725  0.15929  1.0000
  C   C99       1.0  0.34401  0.40252  0.98591  1.0000
  H   H70       1.0  0.29252  0.98609  0.14452  1.0000
  C   C100      1.0  0.20943  0.13734  0.15174  1.0000
  C   C101      1.0  0.21943  0.15537  0.14436  1.0000
  C   C102      1.0  0.24253  0.15314  0.14076  1.0000
  C   C103      1.0  0.25565  0.13290  0.14449  1.0000
  C   C104      1.0  0.24575  0.11492  0.15201  1.0000
  H   H71       1.0  0.33208  0.43881  0.00889  1.0000
  C   C105      1.0  0.03155  0.31812  0.13999  1.0000
  C   C106      1.0  0.00011  0.26780  0.13598  1.0000
  C   C107      1.0  0.09501  0.35826  0.97513  1.0000
  H   H72       1.0  0.43096  0.34286  0.01642  1.0000
  Fe  Fe15      1.0  0.48346  0.19336  0.13316  1.0000
  H   H73       1.0  0.47955  0.08784  0.08764  1.0000
  H   H74       1.0  0.16761  0.07115  0.12475  1.0000
  H   H75       1.0  0.14444  0.08598  0.14544  1.0000
  H   H76       1.0  0.00286  0.41334  0.11506  1.0000
  C   C108      1.0  0.04926  0.98558  0.08514  1.0000
  C   C109      1.0  0.42610  0.40091  0.97704  1.0000
  C   C110      1.0  0.37001  0.98990  0.14860  1.0000
  H   H77       1.0  0.40023  0.02906  0.15860  1.0000
  H   H78       1.0  0.99236  0.03734  0.12251  1.0000
  H   H79       1.0  0.48649  0.01638  0.12862  1.0000
  C   C111      1.0  0.32968  0.98081  0.08223  1.0000
  H   H80       1.0  0.20930  0.17118  0.14163  1.0000
  H   H81       1.0  0.25039  0.16721  0.13536  1.0000
  H   H82       1.0  0.27361  0.13131  0.14184  1.0000
  H   H83       1.0  0.11978  0.37584  0.16558  1.0000
  C   C112      1.0  0.98798  0.13046  0.07229  1.0000
  C   C113      1.0  0.45928  0.17668  0.09301  1.0000
  H   H84       1.0  0.05860  0.09344  0.09525  1.0000
  H   H85       1.0  0.99147  0.99976  0.00745  1.0000
  C   C114      1.0  0.27965  0.41480  0.05095  1.0000
  C   C115      1.0  0.03213  0.43921  0.08550  1.0000
  H   H86       1.0  0.29278  0.00400  0.10770  1.0000
  C   C116      1.0  0.01149  0.27294  0.03178  1.0000
  C   C117      1.0  0.18400  0.39831  0.99432  1.0000
  H   H87       1.0  0.03071  0.30152  0.09766  1.0000
  C   C118      1.0  0.47295  0.22602  0.05164  1.0000
  C   C119      1.0  0.08286  0.24521  0.10475  1.0000
  C   C120      1.0  0.98776  0.24680  0.05403  1.0000
  H   H88       1.0  0.19066  0.41186  0.97227  1.0000
  H   H89       1.0  0.40432  0.99339  0.10429  1.0000
  C   C121      1.0  0.30819  0.99555  0.10256  1.0000
  H   H90       1.0  0.09877  0.07838  0.09464  1.0000
  H   H91       1.0  0.47449  0.40205  0.00258  1.0000
  C   C122      1.0  0.07253  0.36089  0.11974  1.0000
  H   H92       1.0  0.22739  0.28769  0.96851  1.0000
  H   H93       1.0  0.16080  0.34018  0.11869  1.0000
  H   H94       1.0  0.36534  0.33876  0.05507  1.0000
  C   C123      1.0  0.47191  0.34684  0.98108  1.0000
  C   C124      1.0  0.33358  0.42336  0.00514  1.0000
  C   C125      1.0  0.05151  0.36683  0.11577  1.0000
  C   C126      1.0  0.99467  0.11508  0.08368  1.0000
  C   C127      1.0  0.46126  0.28123  0.12695  1.0000
  H   H95       1.0  0.02964  0.40526  0.01838  1.0000
  C   C128      1.0  0.17400  0.35243  0.09735  1.0000
  H   H96       1.0  0.12464  0.46947  0.06158  1.0000
  S   S34       1.0  0.99714  0.40224  0.04362  1.0000
  C   C129      1.0  0.34157  0.42237  0.99091  1.0000
  H   H97       1.0  0.43914  0.99051  0.08712  1.0000
  H   H98       1.0  0.99934  0.02106  0.07435  1.0000
  H   H99       1.0  0.38409  0.27839  0.10830  1.0000
  C   C130      1.0  0.36429  0.01263  0.14451  1.0000
  H   H100      1.0  0.04615  0.43530  0.07744  1.0000
  H   H101      1.0  0.44834  0.33309  0.97334  1.0000
  H   H102      1.0  0.39275  0.45373  0.07285  1.0000
  C   C131      1.0  0.25732  0.42400  0.05412  1.0000
  H   H103      1.0  0.09376  0.32054  0.09983  1.0000
  C   C132      1.0  0.13237  0.35074  0.09124  1.0000
  C   C133      1.0  0.05427  0.28846  0.15954  1.0000
  C   C134      1.0  0.05476  0.12458  0.16591  1.0000
  C   C135      1.0  0.15748  0.34479  0.10803  1.0000
  H   H104      1.0  0.16047  0.26198  0.12894  1.0000
  C   C136      1.0  0.00960  0.26802  0.98549  1.0000
  H   H105      1.0  0.03044  0.23941  0.12116  1.0000
  H   H106      1.0  0.36041  0.01384  0.11039  1.0000
  C   C137      1.0  0.11825  0.36834  0.15685  1.0000
  H   H107      1.0  0.12295  0.14415  0.11069  1.0000
  H   H108      1.0  0.02824  0.03760  0.10659  1.0000
  C   C138      1.0  0.44487  0.29432  0.11956  1.0000
  C   C139      1.0  0.43205  0.24622  0.11648  1.0000
  C   C140      1.0  0.45228  0.33831  0.98232  1.0000
  C   C141      1.0  0.45055  0.31252  0.10947  1.0000
  C   C142      1.0  0.05311  0.31111  0.15887  1.0000
  H   H109      1.0  0.11619  0.35120  0.08863  1.0000
  C   C143      1.0  0.42850  0.23722  0.06359  1.0000
  H   H110      1.0  0.04673  0.15450  0.15136  1.0000
  H   H111      1.0  0.42760  0.12901  0.09328  1.0000
  H   H112      1.0  0.09240  0.08012  0.14772  1.0000
  C   C144      1.0  0.27258  0.01685  0.13756  1.0000
  C   C145      1.0  0.35927  0.42180  0.03149  1.0000
  C   C146      1.0  0.39750  0.26462  0.10884  1.0000
  H   H113      1.0  0.44586  0.24554  0.12181  1.0000
  C   C147      1.0  0.12298  0.37943  0.14310  1.0000
  H   H114      1.0  0.43859  0.32296  0.10347  1.0000
  C   C148      1.0  0.14781  0.44493  0.02507  1.0000
  C   C149      1.0  0.00206  0.27732  0.07735  1.0000
  C   C150      1.0  0.03904  0.28957  0.97546  1.0000
  C   C151      1.0  0.04484  0.26925  0.11855  1.0000
  H   H115      1.0  0.11842  0.13936  0.13642  1.0000
  H   H116      1.0  0.06248  0.11853  0.11392  1.0000
  C   C152      1.0  0.10408  0.27218  0.13500  1.0000
  C   C153      1.0  0.03437  0.39514  0.98514  1.0000
  C   C154      1.0  0.47681  0.16514  0.02592  1.0000
  H   H117      1.0  0.04396  0.38397  0.97822  1.0000
  C   C155      1.0  0.04579  0.35613  0.10611  1.0000
  H   H118      1.0  0.03988  0.38012  0.11993  1.0000
  C   C156      1.0  0.09753  0.09397  0.16517  1.0000
  P   P4        1.0  0.04201  0.03142  0.07681  1.0000
  C   C157      1.0  0.08788  0.34398  0.11417  1.0000
  C   C158      1.0  0.06010  0.04608  0.08263  1.0000
  C   C159      1.0  0.05161  0.06621  0.08745  1.0000
  C   C160      1.0  0.06548  0.07780  0.09173  1.0000
  C   C161      1.0  0.08802  0.06933  0.09136  1.0000
  C   C162      1.0  0.09664  0.04922  0.08673  1.0000
  C   C163      1.0  0.08278  0.03762  0.08238  1.0000
  H   H119      1.0  0.08998  0.26366  0.13933  1.0000
  H   H120      1.0  0.31576  0.00298  0.15607  1.0000
  H   H121      1.0  0.17696  0.41426  0.99725  1.0000
  C   C164      1.0  0.27939  0.42940  0.02628  1.0000
  C   C165      1.0  0.34887  0.34617  0.05287  1.0000
  C   C166      1.0  0.03465  0.04555  0.06002  1.0000
  C   C167      1.0  0.03132  0.06870  0.05684  1.0000
  C   C168      1.0  0.02474  0.07953  0.04413  1.0000
  C   C169      1.0  0.02163  0.06740  0.03439  1.0000
  C   C170      1.0  0.02501  0.04441  0.03740  1.0000
  C   C171      1.0  0.03112  0.03350  0.05022  1.0000
  C   C172      1.0  0.36504  0.44460  0.04725  1.0000
  C   C173      1.0  0.07120  0.27148  0.01324  1.0000
  H   H122      1.0  0.14515  0.36473  0.07010  1.0000
  C   C174      1.0  0.25696  0.43848  0.02948  1.0000
  C   C175      1.0  0.99545  0.34639  0.03392  1.0000
  H   H123      1.0  0.11627  0.20724  0.14938  1.0000
  H   H124      1.0  0.00057  0.36899  0.99931  1.0000
  C   C176      1.0  0.02632  0.46050  0.05059  1.0000
  H   H125      1.0  0.18056  0.42605  0.02279  1.0000
  H   H126      1.0  0.13074  0.12526  0.15860  1.0000
  C   C177      1.0  0.00943  0.42359  0.00319  1.0000
  C   C178      1.0  0.01227  0.33507  0.00730  1.0000
  H   H127      1.0  0.01867  0.33128  0.99687  1.0000
  C   C179      1.0  0.32388  0.31236  0.12064  1.0000
  H   H128      1.0  0.05793  0.11289  0.13970  1.0000
  H   H129      1.0  0.03309  0.07865  0.06421  1.0000
  H   H130      1.0  0.02140  0.09739  0.04201  1.0000
  H   H131      1.0  0.01610  0.07585  0.02467  1.0000
  H   H132      1.0  0.02244  0.03497  0.02991  1.0000
  H   H133      1.0  0.03268  0.01568  0.05247  1.0000
  C   C180      1.0  0.46149  0.20961  0.06021  1.0000
  C   C181      1.0  0.99287  0.04713  0.98630  1.0000
  H   H134      1.0  0.06350  0.46303  0.08992  1.0000
  C   C182      1.0  0.44886  0.15159  0.08060  1.0000
  H   H135      1.0  0.06355  0.21894  0.10865  1.0000
  H   H136      1.0  0.00690  0.31268  0.04211  1.0000
  P   P5        1.0  0.26725  0.28414  0.13477  1.0000
  H   H137      1.0  0.25307  0.20062  0.15410  1.0000
  C   C183      1.0  0.25142  0.28016  0.12215  1.0000
  C   C184      1.0  0.30912  0.29788  0.12768  1.0000
  C   C185      1.0  0.99012  0.98812  0.00096  1.0000
  H   H138      1.0  0.34049  0.36827  0.99119  1.0000
  C   C186      1.0  0.01739  0.14448  0.16452  1.0000
  C   C187      1.0  0.29400  0.33670  0.11038  1.0000
  C   C188      1.0  0.27924  0.32228  0.11733  1.0000
  C   C189      1.0  0.23030  0.27401  0.12668  1.0000
  C   C190      1.0  0.21791  0.27108  0.11697  1.0000
  C   C191      1.0  0.22668  0.27388  0.10264  1.0000
  C   C192      1.0  0.24797  0.27943  0.09804  1.0000
  C   C193      1.0  0.26036  0.28245  0.10775  1.0000
  C   C194      1.0  0.14383  0.27112  0.12898  1.0000
  H   H139      1.0  0.98929  0.35101  0.04422  1.0000
  C   C195      1.0  0.43900  0.21530  0.06591  1.0000
  C   C196      1.0  0.43756  0.33681  0.99505  1.0000
  C   C197      1.0  0.00347  0.46530  0.09659  1.0000
  S   S35       1.0  0.15437  0.23095  0.16260  1.0000
  C   C198      1.0  0.32825  0.40437  0.01453  1.0000
  C   C199      1.0  0.11608  0.34833  0.13411  1.0000
  C   C200      1.0  0.98905  0.42381  0.06634  1.0000
  C   C201      1.0  0.04416  0.28060  0.15042  1.0000
  Fe  Fe16      1.0  0.99780  0.20400  0.10393  1.0000
  H   H140      1.0  0.24886  0.42189  0.06495  1.0000
  H   H141      1.0  0.31112  0.20061  0.15837  1.0000
  C   C202      1.0  0.44722  0.16723  0.10557  1.0000
  H   H142      1.0  0.28808  0.35184  0.10380  1.0000
  H   H143      1.0  0.26198  0.32647  0.11592  1.0000
  H   H144      1.0  0.22319  0.27161  0.13771  1.0000
  H   H145      1.0  0.20142  0.26680  0.12066  1.0000
  H   H146      1.0  0.21699  0.27168  0.09514  1.0000
  H   H147      1.0  0.25485  0.28143  0.08694  1.0000
  H   H148      1.0  0.99920  0.26492  0.00779  1.0000
  C   C203      1.0  0.40868  0.97964  0.09862  1.0000
  H   H149      1.0  0.04230  0.01718  0.97456  1.0000
  C   C204      1.0  0.05995  0.21750  0.15710  1.0000
  H   H150      1.0  0.45741  0.26724  0.13490  1.0000
  H   H151      1.0  0.35088  0.40158  0.97496  1.0000
  C   C205      1.0  0.09933  0.07706  0.15731  1.0000
  C   C206      1.0  0.01425  0.03414  0.10284  1.0000
  C   C207      1.0  0.42177  0.02147  0.13951  1.0000
  C   C208      1.0  0.43820  0.02841  0.12846  1.0000
  C   C209      1.0  0.44626  0.04810  0.12798  1.0000
  C   C210      1.0  0.43724  0.06094  0.13857  1.0000
  P   P6        1.0  0.46618  0.05772  0.11307  1.0000
  H   H152      1.0  0.36188  0.02367  0.15210  1.0000
  C   C211      1.0  0.01410  0.31889  0.01933  1.0000
  H   H153      1.0  0.44653  0.17334  0.11525  1.0000
  C   C212      1.0  0.39628  0.24611  0.10321  1.0000
  C   C213      1.0  0.08220  0.21838  0.15775  1.0000
  C   C214      1.0  0.46175  0.35297  0.00526  1.0000
  C   C215      1.0  0.48488  0.14253  0.02797  1.0000
  H   H154      1.0  0.09743  0.23590  0.09937  1.0000
  C   C216      1.0  0.40889  0.17252  0.14912  1.0000
  H   H155      1.0  0.47334  0.41738  0.02403  1.0000
  C   C217      1.0  0.36850  0.98403  0.12511  1.0000
  C   C218      1.0  0.00558  0.32477  0.03266  1.0000
  C   C219      1.0  0.45170  0.07219  0.09887  1.0000
  C   C220      1.0  0.42977  0.06972  0.09869  1.0000
  C   C221      1.0  0.41935  0.08018  0.08721  1.0000
  C   C222      1.0  0.43079  0.09296  0.07580  1.0000
  C   C223      1.0  0.45252  0.09564  0.07599  1.0000
  H   H156      1.0  0.28807  0.26942  0.15993  1.0000
  H   H157      1.0  0.05164  0.30359  0.98986  1.0000
  H   H158      1.0  0.39617  0.25118  0.14156  1.0000
  H   H159      1.0  0.41561  0.00632  0.13980  1.0000
  H   H160      1.0  0.44442  0.01856  0.12019  1.0000
  H   H161      1.0  0.19149  0.13928  0.15430  1.0000
  H   H162      1.0  0.07675  0.36969  0.12702  1.0000
  H   H163      1.0  0.46710  0.19064  0.09297  1.0000
  C   C224      1.0  0.20868  0.07890  0.14071  1.0000
  C   C225      1.0  0.01766  0.41168  0.98044  1.0000
  C   C226      1.0  0.46273  0.08566  0.08760  1.0000
  H   H164      1.0  0.10443  0.45656  0.08515  1.0000
  H   H165      1.0  0.42647  0.14276  0.11545  1.0000
  H   H166      1.0  0.10733  0.32072  0.15011  1.0000
  H   H167      1.0  0.12793  0.24267  0.13795  1.0000
  C   C227      1.0  0.08203  0.33339  0.10443  1.0000
  H   H168      1.0  0.42068  0.05968  0.10731  1.0000
  H   H169      1.0  0.40246  0.07813  0.08710  1.0000
  H   H170      1.0  0.42287  0.10067  0.06679  1.0000
  C   C228      1.0  0.04181  0.32594  0.14906  1.0000
  H   H171      1.0  0.33390  0.31771  0.06332  1.0000
  H   H172      1.0  0.29631  0.33457  0.05805  1.0000
  C   C229      1.0  0.23744  0.37396  0.03300  1.0000
  C   C230      1.0  0.23298  0.38175  0.04581  1.0000
  C   C231      1.0  0.21110  0.38910  0.05164  1.0000
  C   C232      1.0  0.19364  0.38852  0.04475  1.0000
  C   C233      1.0  0.19794  0.38094  0.03180  1.0000
  C   C234      1.0  0.22000  0.37349  0.02602  1.0000
  P   P7        1.0  0.17512  0.38045  0.02298  1.0000
  C   C235      1.0  0.18519  0.37915  0.00452  1.0000
  C   C236      1.0  0.16168  0.35666  0.03067  1.0000
  C   C237      1.0  0.14793  0.34972  0.02320  1.0000
  C   C238      1.0  0.13680  0.33186  0.02921  1.0000
  C   C239      1.0  0.13937  0.32069  0.04271  1.0000
  C   C240      1.0  0.15313  0.32738  0.05019  1.0000
  C   C241      1.0  0.16431  0.34526  0.04419  1.0000
  C   C242      1.0  0.19430  0.35873  0.00024  1.0000
  H   H173      1.0  0.27690  0.28653  0.10399  1.0000
  H   H174      1.0  0.32651  0.36964  0.01634  1.0000
  H   H175      1.0  0.05697  0.33151  0.09262  1.0000
  C   C243      1.0  0.46241  0.24793  0.04941  1.0000
  C   C244      1.0  0.15543  0.40550  0.02458  1.0000
  H   H176      1.0  0.38993  0.43377  0.03040  1.0000
  H   H177      1.0  0.25176  0.32968  0.14108  1.0000
  C   C245      1.0  0.23709  0.28122  0.15989  1.0000
  C   C246      1.0  0.11742  0.42486  0.02709  1.0000
  C   C247      1.0  0.13250  0.40536  0.02622  1.0000
  H   H178      1.0  0.25444  0.36836  0.02846  1.0000
  H   H179      1.0  0.24642  0.38216  0.05125  1.0000
  C   C248      1.0  0.16298  0.42548  0.02401  1.0000
  H   H180      1.0  0.17678  0.39409  0.04953  1.0000
  H   H181      1.0  0.22384  0.36745  0.01611  1.0000
  H   H182      1.0  0.14522  0.35853  0.01287  1.0000
  H   H183      1.0  0.12567  0.32713  0.02351  1.0000
  H   H184      1.0  0.13029  0.30719  0.04748  1.0000
  H   H185      1.0  0.15483  0.31893  0.06074  1.0000
  H   H186      1.0  0.17470  0.35025  0.05023  1.0000
  H   H187      1.0  0.19535  0.34372  0.00790  1.0000
  H   H188      1.0  0.33749  0.45180  0.06359  1.0000
  H   H189      1.0  0.31538  0.28296  0.13428  1.0000
  C   C249      1.0  0.11141  0.33723  0.14798  1.0000
  H   H190      1.0  0.20873  0.06673  0.12170  1.0000
  C   C250      1.0  0.17035  0.34625  0.15770  1.0000
  H   H191      1.0  0.29587  0.99740  0.08330  1.0000
  C   C251      1.0  0.28184  0.25781  0.14195  1.0000
  H   H192      1.0  0.09977  0.42454  0.02825  1.0000
  H   H193      1.0  0.12606  0.39030  0.02685  1.0000
  H   H194      1.0  0.00023  0.41030  0.07113  1.0000
  C   C252      1.0  0.08799  0.12545  0.14015  1.0000
  C   C253      1.0  0.07241  0.11944  0.13356  1.0000
  C   C254      1.0  0.07505  0.12237  0.11890  1.0000
  C   C255      1.0  0.09337  0.13108  0.11066  1.0000
  C   C256      1.0  0.10912  0.13678  0.11709  1.0000
  H   H195      1.0  0.44529  0.42367  0.09602  1.0000
  P   P8        1.0  0.41675  0.28816  0.12351  1.0000
  C   C257      1.0  0.38398  0.33814  0.09789  1.0000
  C   C258      1.0  0.39726  0.31866  0.10291  1.0000
  H   H196      1.0  0.25639  0.09943  0.15461  1.0000
  C   C259      1.0  0.31003  0.34379  0.05451  1.0000
  C   C260      1.0  0.02542  0.28496  0.00066  1.0000
  C   C261      1.0  0.33118  0.33429  0.05748  1.0000
  C   C262      1.0  0.41566  0.26499  0.11532  1.0000
  H   H197      1.0  0.20763  0.39535  0.06153  1.0000
  C   C263      1.0  0.14890  0.35848  0.08058  1.0000
  C   C264      1.0  0.02099  0.46097  0.08554  1.0000
  H   H198      1.0  0.42967  0.20297  0.07241  1.0000
  C   C265      1.0  0.39774  0.31227  0.11738  1.0000
  C   C266      1.0  0.41733  0.47449  0.07230  1.0000
  C   C267      1.0  0.41290  0.22768  0.10424  1.0000
  H   H199      1.0  0.03658  0.98798  0.09420  1.0000
  C   C268      1.0  0.24594  0.43581  0.04340  1.0000
  C   C269      1.0  0.37104  0.35145  0.10728  1.0000
  C   C270      1.0  0.04485  0.24744  0.11704  1.0000
  H   H200      1.0  0.08803  0.30067  0.03993  1.0000
  H   H201      1.0  0.48151  0.11194  0.99799  1.0000
  H   H202      1.0  0.36123  0.36689  0.10334  1.0000
  H   H203      1.0  0.06678  0.26283  0.00595  1.0000
  C   C271      1.0  0.04032  0.14239  0.15986  1.0000
  C   C272      1.0  0.29509  0.21889  0.14122  1.0000
  H   H204      1.0  0.11648  0.27558  0.02661  1.0000
  H   H205      1.0  0.22662  0.07726  0.13913  1.0000
  H   H206      1.0  0.20885  0.34171  0.98274  1.0000
  C   C273      1.0  0.03855  0.39283  0.99884  1.0000
  C   C274      1.0  0.16898  0.32370  0.15915  1.0000
  H   H207      1.0  0.44000  0.11330  0.14703  1.0000
  H   H208      1.0  0.43237  0.45105  0.02332  1.0000
  H   H209      1.0  0.09763  0.27452  0.10192  1.0000
  C   C275      1.0  0.48314  0.11316  0.12152  1.0000
  C   C276      1.0  0.48136  0.07645  0.11766  1.0000
  C   C277      1.0  0.10661  0.47236  0.06353  1.0000
  H   H210      1.0  0.08415  0.30400  0.13148  1.0000
  C   C278      1.0  0.08341  0.29263  0.03239  1.0000
  H   H211      1.0  0.32406  0.99029  0.12061  1.0000
  C   C279      1.0  0.38426  0.32548  0.12678  1.0000
  H   H212      1.0  0.41137  0.24170  0.06835  1.0000
  C   C280      1.0  0.09940  0.27843  0.02493  1.0000
  H   H213      1.0  0.35627  0.03877  0.12768  1.0000
  H   H214      1.0  0.12829  0.39544  0.14120  1.0000
  C   C281      1.0  0.40896  0.38851  0.97898  1.0000
  H   H215      1.0  0.27947  0.06710  0.14380  1.0000
  C   C282      1.0  0.41047  0.27989  0.14234  1.0000
  C   C283      1.0  0.37097  0.34499  0.12172  1.0000
  H   H216      1.0  0.32758  0.34311  0.10658  1.0000
  H   H217      1.0  0.16242  0.35524  0.16615  1.0000
  Fe  Fe17      1.0  0.30832  0.13064  0.16516  1.0000
  H   H218      1.0  0.03426  0.40549  0.09576  1.0000
  C   C284      1.0  0.28966  0.00373  0.14424  1.0000
  H   H219      1.0  0.29677  0.20453  0.13624  1.0000
  C   C285      1.0  0.47147  0.09843  0.11820  1.0000
  P   P9        1.0  0.02651  0.29065  0.01785  1.0000
  C   C286      1.0  0.32405  0.37762  0.04286  1.0000
  C   C287      1.0  0.00196  0.35662  0.00861  1.0000
  C   C288      1.0  0.28662  0.30278  0.12610  1.0000
  C   C289      1.0  0.36112  0.02115  0.13070  1.0000
  C   C290      1.0  0.01376  0.03417  0.98661  1.0000
  H   H220      1.0  0.41383  0.06405  0.15767  1.0000
  C   C291      1.0  0.06378  0.23558  0.11007  1.0000
  C   C292      1.0  0.09327  0.26778  0.01540  1.0000
  C   C293      1.0  0.14073  0.29391  0.12434  1.0000
  H   H221      1.0  0.38229  0.24596  0.09822  1.0000
  H   H222      1.0  0.18215  0.36626  0.07552  1.0000
  H   H223      1.0  0.31307  0.43163  0.05608  1.0000
  H   H224      1.0  0.38423  0.32106  0.13798  1.0000
  H   H225      1.0  0.47653  0.33114  0.09878  1.0000
  C   C294      1.0  0.02389  0.27685  0.97377  1.0000
  H   H226      1.0  0.28809  0.40557  0.05941  1.0000
  C   C295      1.0  0.01622  0.03026  0.08902  1.0000
  C   C296      1.0  0.06400  0.27886  0.11306  1.0000
  H   H227      1.0  0.02346  0.32996  0.13227  1.0000
  H   H228      1.0  0.01467  0.41333  0.96976  1.0000
  C   C297      1.0  0.28451  0.23938  0.13528  1.0000
  H   H229      1.0  0.04597  0.26300  0.15071  1.0000
  P   P10       1.0  0.20941  0.09387  0.16532  1.0000
  C   C298      1.0  0.01035  0.27201  0.99890  1.0000
  C   C299      1.0  0.02560  0.42215  0.09608  1.0000
  H   H230      1.0  0.02970  0.36106  0.10279  1.0000
  C   C300      1.0  0.31630  0.33177  0.11200  1.0000
  C   C301      1.0  0.24842  0.29536  0.14912  1.0000
  H   H231      1.0  0.41187  0.21318  0.10010  1.0000
  C   C302      1.0  0.42082  0.05394  0.14959  1.0000
  C   C303      1.0  0.24622  0.18848  0.16241  1.0000
  C   C304      1.0  0.13651  0.34389  0.10511  1.0000
  H   H232      1.0  0.35921  0.37661  0.04192  1.0000
  H   H233      1.0  0.25745  0.30279  0.97495  1.0000
  C   C305      1.0  0.07193  0.99971  0.06342  1.0000
  H   H234      1.0  0.22858  0.44289  0.04594  1.0000
  C   C306      1.0  0.06111  0.33949  0.10039  1.0000
  C   C307      1.0  0.03983  0.29358  0.98882  1.0000
  H   H235      1.0  0.44255  0.07647  0.13837  1.0000
  P   P11       1.0  0.31988  0.40531  0.03312  1.0000
  C   C308      1.0  0.02626  0.40713  0.00778  1.0000
  S   S36       1.0  0.00172  0.20111  0.12652  1.0000
  H   H236      1.0  0.18994  0.35352  0.09983  1.0000
  C   C309      1.0  0.05513  0.28624  0.02042  1.0000
  S   S37       1.0  0.28709  0.16284  0.15761  1.0000
  C   C310      1.0  0.41217  0.28529  0.16590  1.0000
  H   H237      1.0  0.06422  0.29556  0.11421  1.0000
  H   H238      1.0  0.34120  0.30860  0.12190  1.0000
  H   H239      1.0  0.05111  0.37978  0.00263  1.0000
  H   H240      1.0  0.99794  0.25806  0.98416  1.0000
  C   C311      1.0  0.06135  0.29646  0.03020  1.0000
  C   C312      1.0  0.00539  0.32924  0.09366  1.0000
  C   C313      1.0  0.16966  0.35945  0.08364  1.0000
  H   H241      1.0  0.43234  0.27068  0.05404  1.0000
  H   H242      1.0  0.43776  0.46965  0.96965  1.0000
  C   C314      1.0  0.02630  0.02761  0.97425  1.0000
  H   H243      1.0  0.02376  0.44291  0.03438  1.0000
  C   C315      1.0  0.36336  0.00696  0.12099  1.0000
  C   C316      1.0  0.00789  0.30737  0.11673  1.0000
  Fe  Fe18      1.0  0.35671  0.10949  0.16385  1.0000
  H   H244      1.0  0.04921  0.30718  0.03631  1.0000
  C   C317      1.0  0.39679  0.15476  0.15204  1.0000
  C   C318      1.0  0.29095  0.41749  0.03702  1.0000
  C   C319      1.0  0.11027  0.05590  0.16177  1.0000
  H   H245      1.0  0.04124  0.34351  0.14838  1.0000
  C   C320      1.0  0.02008  0.45866  0.03802  1.0000
  C   C321      1.0  0.05534  0.00357  0.07503  1.0000
  H   H246      1.0  0.24401  0.98273  0.06669  1.0000
  H   H247      1.0  0.99084  0.14729  0.07102  1.0000
  H   H248      1.0  0.40013  0.18906  0.14973  1.0000
  C   C322      1.0  0.01095  0.24266  0.05150  1.0000
  H   H249      1.0  0.41823  0.45768  0.04760  1.0000
  C   C323      1.0  0.40053  0.26105  0.14818  1.0000
  C   C324      1.0  0.20075  0.37666  0.97593  1.0000
  H   H250      1.0  0.00631  0.15795  0.15950  1.0000
  C   C325      1.0  0.44672  0.45726  0.08585  1.0000
  C   C326      1.0  0.44025  0.25356  0.05545  1.0000
  H   H251      1.0  0.11172  0.04296  0.15562  1.0000
  C   C327      1.0  0.30315  0.21664  0.15379  1.0000
  S   S38       1.0  0.47843  0.40236  0.06866  1.0000
  C   C328      1.0  0.22839  0.32660  0.16010  1.0000
  C   C329      1.0  0.30067  0.23490  0.16047  1.0000
  C   C330      1.0  0.99707  0.44819  0.10722  1.0000
  P   P12       1.0  0.02127  0.28476  0.12817  1.0000
  H   H252      1.0  0.23973  0.26365  0.15980  1.0000
  C   C331      1.0  0.98850  0.32055  0.12231  1.0000
  C   C332      1.0  0.40765  0.45518  0.07651  1.0000
  C   C333      1.0  0.03237  0.29533  0.14073  1.0000
  H   H253      1.0  0.07705  0.42232  0.97226  1.0000
  H   H254      1.0  0.01174  0.33236  0.08252  1.0000
  C   C334      1.0  0.47892  0.16643  0.05017  1.0000
  C   C335      1.0  0.48351  0.42977  0.06243  1.0000
  H   H255      1.0  0.99999  0.43426  0.01043  1.0000
  C   C336      1.0  0.32606  0.98776  0.10983  1.0000
  C   C337      1.0  0.41310  0.03424  0.15008  1.0000
  C   C338      1.0  0.30996  0.99200  0.08878  1.0000
  H   H256      1.0  0.47157  0.26071  0.04330  1.0000
  H   H257      1.0  0.24811  0.44772  0.02117  1.0000
  H   H258      1.0  0.00314  0.47519  0.02090  1.0000
  H   H259      1.0  0.33078  0.97746  0.07169  1.0000
  C   C339      1.0  0.47090  0.45530  0.97322  1.0000
  H   H260      1.0  0.46909  0.43896  0.97205  1.0000
  C   C340      1.0  0.45325  0.47264  0.97184  1.0000
  H   H261      1.0  0.37888  0.15769  0.15486  1.0000
  H   H262      1.0  0.47877  0.12211  0.97272  1.0000
  C   C341      1.0  0.09712  0.14075  0.16533  1.0000
  H   H263      1.0  0.99083  0.26722  0.11592  1.0000
  C   C342      1.0  0.12040  0.13807  0.16392  1.0000
  C   C343      1.0  0.42845  0.97810  0.08887  1.0000
  C   C344      1.0  0.99395  0.03375  0.11199  1.0000
  C   C345      1.0  0.98815  0.27687  0.03432  1.0000
  H   H264      1.0  0.99543  0.08123  0.09387  1.0000
  H   H265      1.0  0.06125  0.31713  0.16581  1.0000
  C   C346      1.0  0.43689  0.47542  0.07716  1.0000
  H   H266      1.0  0.04671  0.22575  0.16407  1.0000
  H   H267      1.0  0.21352  0.20806  0.16536  1.0000
  C   C347      1.0  0.25959  0.16838  0.16653  1.0000
  Fe  Fe19      1.0  0.32032  0.08053  0.16559  1.0000
  C   C348      1.0  0.99570  0.26051  0.15055  1.0000
  H   H268      1.0  0.46782  0.19460  0.03508  1.0000
  C   C349      1.0  0.99796  0.02480  0.08480  1.0000
  H   H269      1.0  0.47304  0.17347  0.01571  1.0000
  H   H270      1.0  0.16209  0.09575  0.16322  1.0000
  C   C350      1.0  0.48634  0.40397  0.02131  1.0000
  C   C351      1.0  0.48296  0.28593  0.12406  1.0000
  C   C352      1.0  0.98755  0.26204  0.12724  1.0000
  C   C353      1.0  0.39673  0.25427  0.16276  1.0000
  H   H271      1.0  0.06341  0.27693  0.16695  1.0000
  H   H272      1.0  0.02698  0.98051  0.36714  1.0000
  Fe  Fe20      1.0  0.22198  0.44432  0.35456  1.0000
  S   S39       1.0  0.21895  0.40871  0.35214  1.0000
  C   C354      1.0  0.09033  0.18108  0.33796  1.0000
  Fe  Fe21      1.0  0.35554  0.15324  0.30780  1.0000
  S   S40       1.0  0.32042  0.16203  0.31851  1.0000
  S   S41       1.0  0.38577  0.15111  0.31845  1.0000
  Fe  Fe22      1.0  0.33973  0.14261  0.28192  1.0000
  S   S42       1.0  0.30364  0.15075  0.29109  1.0000
  S   S43       1.0  0.35260  0.13668  0.25924  1.0000
  Fe  Fe23      1.0  0.31364  0.17965  0.29723  1.0000
  S   S44       1.0  0.29638  0.21453  0.29161  1.0000
  Fe  Fe24      1.0  0.31368  0.13207  0.31152  1.0000
  S   S45       1.0  0.29252  0.11049  0.32808  1.0000
  S   S46       1.0  0.34922  0.17288  0.28686  1.0000
  S   S47       1.0  0.34929  0.12190  0.30210  1.0000
  C   C355      1.0  0.16968  0.12530  0.19645  1.0000
  S   S48       1.0  0.29555  0.10155  0.17954  1.0000
  H   H273      1.0  0.21227  0.27877  0.17852  1.0000
  S   S49       1.0  0.47177  0.18610  0.35866  1.0000
  S   S50       1.0  0.34723  0.07883  0.17851  1.0000
  H   H274      1.0  0.20474  0.31908  0.17882  1.0000
  H   H275      1.0  0.23288  0.28708  0.32021  1.0000
  Fe  Fe25      1.0  0.32318  0.10213  0.19128  1.0000
  S   S51       1.0  0.31304  0.09830  0.21526  1.0000
  H   H276      1.0  0.15621  0.18193  0.34635  1.0000
  H   H277      1.0  0.30685  0.23307  0.17026  1.0000
  S   S52       1.0  0.29554  0.00786  0.32963  1.0000
  C   C356      1.0  0.98713  0.09723  0.35492  1.0000
  C   C357      1.0  0.99792  0.29954  0.34086  1.0000
  S   S53       1.0  0.41979  0.22369  0.34336  1.0000
  C   C358      1.0  0.24657  0.03253  0.17331  1.0000
  Fe  Fe26      1.0  0.28708  0.98470  0.35015  1.0000
  Fe  Fe27      1.0  0.16832  0.32723  0.31026  1.0000
  S   S54       1.0  0.15851  0.29916  0.32708  1.0000
  S   S55       1.0  0.17586  0.36068  0.31364  1.0000
  Fe  Fe28      1.0  0.16116  0.30312  0.28672  1.0000
  S   S56       1.0  0.15054  0.27398  0.30219  1.0000
  S   S57       1.0  0.16703  0.30535  0.26268  1.0000
  Fe  Fe29      1.0  0.13086  0.29866  0.31547  1.0000
  S   S58       1.0  0.09794  0.29455  0.32994  1.0000
  Fe  Fe30      1.0  0.17885  0.27655  0.31252  1.0000
  S   S59       1.0  0.19811  0.24410  0.32133  1.0000
  S   S60       1.0  0.13918  0.32815  0.29929  1.0000
  S   S61       1.0  0.19094  0.30431  0.29639  1.0000
  Fe  Fe31      1.0  0.16656  0.21476  0.18269  1.0000
  S   S62       1.0  0.13258  0.21917  0.19564  1.0000
  S   S63       1.0  0.18637  0.18066  0.18666  1.0000
  S   S64       1.0  0.47684  0.23879  0.34968  1.0000
  S   S65       1.0  0.12606  0.27020  0.18029  1.0000
  P   P13       1.0  0.10839  0.17753  0.35081  1.0000
  Fe  Fe32      1.0  0.14104  0.25087  0.19920  1.0000
  S   S66       1.0  0.13253  0.25459  0.22255  1.0000
  Fe  Fe33      1.0  0.12079  0.23763  0.17574  1.0000
  C   C359      1.0  0.06210  0.16783  0.32933  1.0000
  S   S67       1.0  0.17590  0.24517  0.18726  1.0000
  C   C360      1.0  0.02239  0.31168  0.35327  1.0000
  H   H278      1.0  0.43261  0.99096  0.29345  1.0000
  Fe  Fe34      1.0  0.00427  0.22195  0.34039  1.0000
  S   S68       1.0  0.02527  0.24106  0.32216  1.0000
  C   C361      1.0  0.22384  0.19271  0.16877  1.0000
  C   C362      1.0  0.00512  0.27640  0.29354  1.0000
  C   C363      1.0  0.14287  0.15071  0.33656  1.0000
  H   H279      1.0  0.19303  0.28660  0.36114  1.0000
  C   C364      1.0  0.15804  0.29030  0.25178  1.0000
  C   C365      1.0  0.14448  0.27414  0.25727  1.0000
  C   C366      1.0  0.13721  0.26317  0.24819  1.0000
  C   C367      1.0  0.14331  0.26818  0.23347  1.0000
  C   C368      1.0  0.15706  0.28416  0.22798  1.0000
  C   C369      1.0  0.16439  0.29508  0.23708  1.0000
  H   H280      1.0  0.13932  0.27040  0.26851  1.0000
  H   H281      1.0  0.12664  0.25080  0.25260  1.0000
  H   H282      1.0  0.16170  0.28840  0.21672  1.0000
  H   H283      1.0  0.17483  0.30758  0.23268  1.0000
  C   C370      1.0  0.07994  0.27712  0.32787  1.0000
  C   C371      1.0  0.06556  0.26830  0.33967  1.0000
  C   C372      1.0  0.04925  0.25651  0.33815  1.0000
  C   C373      1.0  0.04685  0.25390  0.32476  1.0000
  C   C374      1.0  0.06156  0.26230  0.31302  1.0000
  C   C375      1.0  0.07827  0.27353  0.31458  1.0000
  H   H284      1.0  0.06664  0.27114  0.34998  1.0000
  H   H285      1.0  0.03797  0.25021  0.34724  1.0000
  H   H286      1.0  0.05985  0.26028  0.30267  1.0000
  H   H287      1.0  0.08929  0.28025  0.30548  1.0000
  H   H288      1.0  0.14383  0.16489  0.32825  1.0000
  C   C376      1.0  0.25060  0.15283  0.17732  1.0000
  C   C377      1.0  0.22824  0.15699  0.18361  1.0000
  C   C378      1.0  0.21472  0.17678  0.17922  1.0000
  C   C379      1.0  0.00518  0.31541  0.28538  1.0000
  C   C380      1.0  0.08906  0.19971  0.32735  1.0000
  H   H289      1.0  0.26075  0.13749  0.18073  1.0000
  H   H290      1.0  0.22140  0.14474  0.19184  1.0000
  H   H291      1.0  0.10465  0.10180  0.18418  1.0000
  C   C381      1.0  0.09426  0.17103  0.17805  1.0000
  H   H292      1.0  0.21983  0.08322  0.21002  1.0000
  C   C382      1.0  0.26896  0.22227  0.29982  1.0000
  C   C383      1.0  0.25858  0.20820  0.31097  1.0000
  C   C384      1.0  0.23681  0.21511  0.31751  1.0000
  C   C385      1.0  0.22529  0.23598  0.31282  1.0000
  C   C386      1.0  0.23559  0.24990  0.30154  1.0000
  C   C387      1.0  0.25740  0.24308  0.29509  1.0000
  H   H293      1.0  0.26745  0.19215  0.31467  1.0000
  H   H294      1.0  0.22892  0.20429  0.32624  1.0000
  H   H295      1.0  0.22682  0.26593  0.29780  1.0000
  H   H296      1.0  0.26537  0.25395  0.28644  1.0000
  C   C388      1.0  0.32403  0.10950  0.22727  1.0000
  C   C389      1.0  0.34247  0.12045  0.22303  1.0000
  C   C390      1.0  0.35075  0.12886  0.23293  1.0000
  C   C391      1.0  0.34067  0.12663  0.24716  1.0000
  C   C392      1.0  0.32207  0.11591  0.25138  1.0000
  C   C393      1.0  0.31384  0.10738  0.24150  1.0000
  H   H297      1.0  0.35059  0.12214  0.21217  1.0000
  H   H298      1.0  0.36526  0.13696  0.22955  1.0000
  H   H299      1.0  0.31436  0.11376  0.26231  1.0000
  H   H300      1.0  0.29959  0.09893  0.24491  1.0000
  C   C394      1.0  0.39426  0.17144  0.32581  1.0000
  C   C395      1.0  0.38344  0.19331  0.32466  1.0000
  C   C396      1.0  0.39139  0.20899  0.33015  1.0000
  C   C397      1.0  0.41013  0.20305  0.33695  1.0000
  C   C398      1.0  0.42061  0.18106  0.33838  1.0000
  C   C399      1.0  0.41277  0.16542  0.33280  1.0000
  H   H301      1.0  0.36922  0.19825  0.31931  1.0000
  H   H302      1.0  0.38311  0.22591  0.32899  1.0000
  H   H303      1.0  0.43495  0.17617  0.34362  1.0000
  H   H304      1.0  0.42133  0.14862  0.33375  1.0000
  C   C400      1.0  0.29406  0.08196  0.32820  1.0000
  C   C401      1.0  0.28644  0.06864  0.34078  1.0000
  C   C402      1.0  0.28655  0.04605  0.34133  1.0000
  C   C403      1.0  0.29443  0.03646  0.32924  1.0000
  C   C404      1.0  0.30181  0.04983  0.31656  1.0000
  C   C405      1.0  0.30174  0.07250  0.31605  1.0000
  H   H305      1.0  0.28077  0.07579  0.35021  1.0000
  H   H306      1.0  0.28072  0.03605  0.35114  1.0000
  H   H307      1.0  0.30774  0.04258  0.30713  1.0000
  H   H308      1.0  0.30737  0.08272  0.30626  1.0000
  H   H309      1.0  0.25881  0.09047  0.20545  1.0000
  C   C406      1.0  0.15748  0.13109  0.33488  1.0000
  C   C407      1.0  0.20642  0.39591  0.34138  1.0000
  C   C408      1.0  0.19771  0.40754  0.32943  1.0000
  C   C409      1.0  0.18856  0.39652  0.32115  1.0000
  C   C410      1.0  0.18775  0.37369  0.32460  1.0000
  C   C411      1.0  0.19633  0.36208  0.33658  1.0000
  C   C412      1.0  0.20562  0.37304  0.34482  1.0000
  H   H310      1.0  0.19812  0.42505  0.32651  1.0000
  H   H311      1.0  0.18200  0.40585  0.31196  1.0000
  H   H312      1.0  0.19563  0.34467  0.33951  1.0000
  C   C413      1.0  0.02619  0.10660  0.33664  1.0000
  H   H313      1.0  0.41689  0.29453  0.17277  1.0000
  C   C414      1.0  0.22155  0.28972  0.17061  1.0000
  H   H314      1.0  0.45939  0.11649  0.35599  1.0000
  H   H315      1.0  0.18089  0.15371  0.36218  1.0000
  C   C415      1.0  0.09226  0.33093  0.35767  1.0000
  H   H316      1.0  0.05118  0.15581  0.33044  1.0000
  C   C416      1.0  0.29729  0.33170  0.32884  1.0000
  C   C417      1.0  0.27543  0.33699  0.32604  1.0000
  C   C418      1.0  0.26300  0.35762  0.32817  1.0000
  P   P14       1.0  0.26282  0.31802  0.31968  1.0000
  C   C419      1.0  0.28176  0.29319  0.31631  1.0000
  C   C420      1.0  0.24033  0.30869  0.33278  1.0000
  C   C421      1.0  0.22877  0.29314  0.33015  1.0000
  C   C422      1.0  0.08413  0.15744  0.17240  1.0000
  H   H317      1.0  0.39987  0.26089  0.18289  1.0000
  C   C423      1.0  0.21804  0.30775  0.35612  1.0000
  C   C424      1.0  0.23507  0.31567  0.34595  1.0000
  C   C425      1.0  0.28646  0.28706  0.30291  1.0000
  C   C426      1.0  0.30002  0.26709  0.30070  1.0000
  C   C427      1.0  0.30871  0.25294  0.31186  1.0000
  C   C428      1.0  0.30393  0.25878  0.32525  1.0000
  C   C429      1.0  0.29037  0.27875  0.32750  1.0000
  C   C430      1.0  0.25375  0.33327  0.30369  1.0000
  C   C431      1.0  0.23142  0.33653  0.30200  1.0000
  C   C432      1.0  0.22468  0.34930  0.28975  1.0000
  C   C433      1.0  0.24007  0.35910  0.27921  1.0000
  C   C434      1.0  0.26231  0.35615  0.28089  1.0000
  C   C435      1.0  0.26914  0.34327  0.29307  1.0000
  S   S69       1.0  0.08783  0.23326  0.17008  1.0000
  H   H318      1.0  0.30746  0.31618  0.32700  1.0000
  H   H319      1.0  0.24619  0.36216  0.32589  1.0000
  H   H320      1.0  0.18327  0.05452  0.35538  1.0000
  C   C436      1.0  0.00298  0.30326  0.35334  1.0000
  H   H321      1.0  0.22259  0.19776  0.29388  1.0000
  H   H322      1.0  0.01351  0.14055  0.33841  1.0000
  H   H323      1.0  0.24389  0.32731  0.34845  1.0000
  H   H324      1.0  0.27927  0.29725  0.29423  1.0000
  H   H325      1.0  0.30332  0.26215  0.29043  1.0000
  H   H326      1.0  0.31879  0.23723  0.31014  1.0000
  H   H327      1.0  0.31047  0.24762  0.33391  1.0000
  H   H328      1.0  0.28635  0.28281  0.33802  1.0000
  H   H329      1.0  0.21899  0.32983  0.31022  1.0000
  H   H330      1.0  0.20732  0.35205  0.28861  1.0000
  H   H331      1.0  0.23463  0.36928  0.26987  1.0000
  H   H332      1.0  0.27417  0.36407  0.27282  1.0000
  H   H333      1.0  0.28636  0.34136  0.29435  1.0000
  C   C437      1.0  0.23922  0.02853  0.33793  1.0000
  C   C438      1.0  0.23912  0.04063  0.32441  1.0000
  C   C439      1.0  0.23149  0.06328  0.32262  1.0000
  C   C440      1.0  0.22434  0.07390  0.33433  1.0000
  C   C441      1.0  0.22554  0.06203  0.34796  1.0000
  H   H334      1.0  0.32565  0.01239  0.35021  1.0000
  C   C442      1.0  0.12287  0.20070  0.34865  1.0000
  H   H335      1.0  0.01615  0.09951  0.19027  1.0000
  H   H336      1.0  0.99704  0.33234  0.28532  1.0000
  C   C443      1.0  0.23287  0.11387  0.34848  1.0000
  C   C444      1.0  0.23178  0.13661  0.34410  1.0000
  C   C445      1.0  0.17763  0.08356  0.18871  1.0000
  H   H337      1.0  0.20288  0.27335  0.33826  1.0000
  C   C446      1.0  0.26179  0.03631  0.18095  1.0000
  H   H338      1.0  0.37472  0.02352  0.36651  1.0000
  C   C447      1.0  0.18951  0.10002  0.18067  1.0000
  C   C448      1.0  0.03603  0.31745  0.34035  1.0000
  S   S70       1.0  0.99902  0.18824  0.33829  1.0000
  H   H339      1.0  0.12390  0.31044  0.35940  1.0000
  H   H340      1.0  0.05124  0.32375  0.33979  1.0000
  H   H341      1.0  0.05665  0.09552  0.18204  1.0000
  H   H342      1.0  0.27495  0.02320  0.18396  1.0000
  C   C449      1.0  0.12723  0.15207  0.34891  1.0000
  H   H343      1.0  0.15256  0.07531  0.20656  1.0000
  H   H344      1.0  0.03466  0.07154  0.33711  1.0000
  H   H345      1.0  0.24532  0.01101  0.33923  1.0000
  H   H346      1.0  0.24529  0.03241  0.31536  1.0000
  H   H347      1.0  0.23147  0.07265  0.31212  1.0000
  H   H348      1.0  0.21820  0.09137  0.33262  1.0000
  C   C450      1.0  0.20633  0.29263  0.35331  1.0000
  H   H349      1.0  0.24751  0.10303  0.34446  1.0000
  H   H350      1.0  0.12515  0.17932  0.18058  1.0000
  S   S71       1.0  0.28816  0.47524  0.36684  1.0000
  C   C451      1.0  0.32951  0.04107  0.35796  1.0000
  C   C452      1.0  0.10629  0.08919  0.17775  1.0000
  S   S72       1.0  0.33448  0.13246  0.17755  1.0000
  H   H351      1.0  0.09914  0.21240  0.32637  1.0000
  C   C453      1.0  0.29362  0.36699  0.33644  1.0000
  H   H352      1.0  0.19519  0.13360  0.17927  1.0000
  C   C454      1.0  0.19538  0.14257  0.35833  1.0000
  C   C455      1.0  0.44692  0.10809  0.36322  1.0000
  S   S73       1.0  0.24936  0.46327  0.34257  1.0000
  C   C456      1.0  0.11739  0.16836  0.17649  1.0000
  C   C457      1.0  0.24441  0.07453  0.17971  1.0000
  H   H353      1.0  0.17498  0.21415  0.34299  1.0000
  Fe  Fe35      1.0  0.25301  0.47290  0.36297  1.0000
  H   H354      1.0  0.24787  0.01641  0.17048  1.0000
  C   C458      1.0  0.23251  0.03911  0.34967  1.0000
  C   C459      1.0  0.02627  0.31081  0.27741  1.0000
  C   C460      1.0  0.03701  0.28892  0.27748  1.0000
  C   C461      1.0  0.02619  0.27173  0.28557  1.0000
  P   P15       1.0  0.06372  0.28321  0.26647  1.0000
  C   C462      1.0  0.05971  0.28374  0.24867  1.0000
  C   C463      1.0  0.08035  0.30369  0.26691  1.0000
  C   C464      1.0  0.09588  0.31045  0.25515  1.0000
  C   C465      1.0  0.10980  0.32511  0.25595  1.0000
  C   C466      1.0  0.10850  0.33291  0.26849  1.0000
  C   C467      1.0  0.09301  0.32635  0.28022  1.0000
  C   C468      1.0  0.07895  0.31183  0.27944  1.0000
  C   C469      1.0  0.07618  0.27249  0.23949  1.0000
  C   C470      1.0  0.07320  0.27268  0.22574  1.0000
  C   C471      1.0  0.05379  0.28414  0.22101  1.0000
  C   C472      1.0  0.04023  0.29528  0.24382  1.0000
  C   C473      1.0  0.07834  0.25636  0.27284  1.0000
  C   C474      1.0  0.07239  0.23725  0.27015  1.0000
  C   C475      1.0  0.08372  0.21643  0.27494  1.0000
  C   C476      1.0  0.10113  0.21453  0.28240  1.0000
  C   C477      1.0  0.10720  0.23345  0.28509  1.0000
  C   C478      1.0  0.09592  0.25427  0.28031  1.0000
  H   H355      1.0  0.33705  0.07043  0.36302  1.0000
  C   C479      1.0  0.19647  0.11979  0.36277  1.0000
  H   H356      1.0  0.08418  0.18415  0.18329  1.0000
  H   H357      1.0  0.03417  0.32434  0.27111  1.0000
  H   H358      1.0  0.03398  0.25470  0.28600  1.0000
  H   H359      1.0  0.09783  0.30400  0.24547  1.0000
  H   H360      1.0  0.11988  0.34366  0.26919  1.0000
  H   H361      1.0  0.09225  0.33216  0.29002  1.0000
  H   H362      1.0  0.06745  0.30650  0.28875  1.0000
  H   H363      1.0  0.09143  0.26363  0.24291  1.0000
  H   H364      1.0  0.24561  0.14300  0.33690  1.0000
  H   H365      1.0  0.02724  0.30416  0.25058  1.0000
  H   H366      1.0  0.05898  0.23846  0.26434  1.0000
  H   H367      1.0  0.07901  0.20177  0.27283  1.0000
  H   H368      1.0  0.10986  0.19841  0.28613  1.0000
  H   H369      1.0  0.12067  0.23207  0.29089  1.0000
  H   H370      1.0  0.10108  0.26861  0.28247  1.0000
  C   C480      1.0  0.01044  0.12369  0.34147  1.0000
  H   H371      1.0  0.21381  0.31355  0.36614  1.0000
  H   H372      1.0  0.32314  0.34252  0.33628  1.0000
  C   C481      1.0  0.03082  0.31390  0.32785  1.0000
  C   C482      1.0  0.02241  0.08480  0.34081  1.0000
  C   C483      1.0  0.14619  0.19796  0.34663  1.0000
  H   H373      1.0  0.14513  0.11261  0.21320  1.0000
  H   H374      1.0  0.04820  0.18942  0.31220  1.0000
  C   C484      1.0  0.16166  0.08807  0.20040  1.0000
  H   H375      1.0  0.27281  0.06015  0.18987  1.0000
  P   P16       1.0  0.21679  0.07562  0.36322  1.0000
  C   C485      1.0  0.42447  0.99406  0.30384  1.0000
  H   H376      1.0  0.07260  0.21714  0.31010  1.0000
  C   C486      1.0  0.15753  0.10902  0.20418  1.0000
  C   C487      1.0  0.07718  0.16488  0.33862  1.0000
  H   H377      1.0  0.07786  0.15038  0.34673  1.0000
  H   H378      1.0  0.08609  0.26401  0.21873  1.0000
  Fe  Fe36      1.0  0.00615  0.17822  0.36042  1.0000
  C   C488      1.0  0.12558  0.13313  0.35920  1.0000
  C   C489      1.0  0.01197  0.30465  0.32814  1.0000
  H   H379      1.0  0.04200  0.31743  0.31803  1.0000
  C   C490      1.0  0.34156  0.05842  0.35597  1.0000
  C   C491      1.0  0.00868  0.12898  0.17543  1.0000
  H   H380      1.0  0.23309  0.02930  0.35999  1.0000
  C   C492      1.0  0.26061  0.05724  0.18423  1.0000
  C   C493      1.0  0.04593  0.10928  0.17707  1.0000
  H   H381      1.0  0.26203  0.38816  0.33537  1.0000
  S   S74       1.0  0.03209  0.14773  0.36394  1.0000
  H   H382      1.0  0.00860  0.30090  0.31856  1.0000
  H   H383      1.0  0.05159  0.28426  0.21033  1.0000
  C   C494      1.0  0.15615  0.11251  0.34534  1.0000
  C   C495      1.0  0.06045  0.18669  0.31907  1.0000
  C   C496      1.0  0.30460  0.20190  0.25275  1.0000
  C   C497      1.0  0.30920  0.19453  0.23983  1.0000
  C   C498      1.0  0.29551  0.20353  0.22975  1.0000
  C   C499      1.0  0.27680  0.21937  0.23274  1.0000
  C   C500      1.0  0.27184  0.22657  0.24584  1.0000
  C   C501      1.0  0.28621  0.21802  0.25565  1.0000
  P   P17       1.0  0.24789  0.24720  0.25005  1.0000
  C   C502      1.0  0.25659  0.26913  0.25612  1.0000
  C   C503      1.0  0.23466  0.25859  0.23482  1.0000
  C   C504      1.0  0.22297  0.24555  0.22979  1.0000
  C   C505      1.0  0.21164  0.25438  0.21849  1.0000
  C   C506      1.0  0.21198  0.27633  0.21211  1.0000
  C   C507      1.0  0.22372  0.28941  0.21696  1.0000
  C   C508      1.0  0.23504  0.28061  0.22829  1.0000
  C   C509      1.0  0.24113  0.28302  0.26428  1.0000
  C   C510      1.0  0.24785  0.30002  0.26893  1.0000
  C   C511      1.0  0.26997  0.30340  0.26540  1.0000
  C   C512      1.0  0.28541  0.28983  0.25719  1.0000
  C   C513      1.0  0.27875  0.27286  0.25247  1.0000
  C   C514      1.0  0.22724  0.23578  0.26384  1.0000
  C   C515      1.0  0.20495  0.24612  0.26499  1.0000
  C   C516      1.0  0.18926  0.23915  0.27648  1.0000
  C   C517      1.0  0.19557  0.22171  0.28688  1.0000
  C   C518      1.0  0.21752  0.21091  0.28564  1.0000
  C   C519      1.0  0.23331  0.21788  0.27419  1.0000
  H   H384      1.0  0.31539  0.19521  0.26054  1.0000
  H   H385      1.0  0.32348  0.18194  0.23764  1.0000
  H   H386      1.0  0.29936  0.19814  0.21962  1.0000
  H   H387      1.0  0.26651  0.22597  0.22475  1.0000
  H   H388      1.0  0.28325  0.22400  0.26555  1.0000
  H   H389      1.0  0.22250  0.22860  0.23471  1.0000
  H   H390      1.0  0.20222  0.24436  0.21486  1.0000
  H   H391      1.0  0.20274  0.28333  0.20359  1.0000
  H   H392      1.0  0.22369  0.30652  0.21213  1.0000
  H   H393      1.0  0.24370  0.29117  0.23201  1.0000
  H   H394      1.0  0.22385  0.28088  0.26709  1.0000
  H   H395      1.0  0.23583  0.31055  0.27528  1.0000
  H   H396      1.0  0.27514  0.31656  0.26900  1.0000
  H   H397      1.0  0.30258  0.29242  0.25448  1.0000
  H   H398      1.0  0.29095  0.26270  0.24599  1.0000
  H   H399      1.0  0.19979  0.26027  0.25737  1.0000
  H   H400      1.0  0.17237  0.24786  0.27756  1.0000
  H   H401      1.0  0.25027  0.20971  0.27390  1.0000
  C   C520      1.0  0.35237  0.06789  0.28966  1.0000
  C   C521      1.0  0.36595  0.08061  0.27956  1.0000
  C   C522      1.0  0.38647  0.08324  0.28220  1.0000
  C   C523      1.0  0.39343  0.07318  0.29497  1.0000
  C   C524      1.0  0.37956  0.06087  0.30537  1.0000
  C   C525      1.0  0.35914  0.05802  0.30251  1.0000
  P   P18       1.0  0.38888  0.04680  0.32160  1.0000
  C   C526      1.0  0.36527  0.04492  0.33563  1.0000
  C   C527      1.0  0.40296  0.01945  0.31911  1.0000
  C   C528      1.0  0.40326  0.00208  0.33057  1.0000
  C   C529      1.0  0.41382  0.01531  0.30573  1.0000
  C   C530      1.0  0.35943  0.06030  0.34490  1.0000
  C   C531      1.0  0.02295  0.11148  0.18178  1.0000
  C   C532      1.0  0.21180  0.28524  0.34038  1.0000
  C   C533      1.0  0.33526  0.02564  0.34883  1.0000
  C   C534      1.0  0.35277  0.02777  0.33756  1.0000
  C   C535      1.0  0.40769  0.06153  0.32657  1.0000
  C   C536      1.0  0.40480  0.08468  0.32372  1.0000
  C   C537      1.0  0.41931  0.09598  0.32765  1.0000
  C   C538      1.0  0.43653  0.08438  0.33467  1.0000
  C   C539      1.0  0.43924  0.06139  0.33783  1.0000
  C   C540      1.0  0.42490  0.04998  0.33380  1.0000
  H   H402      1.0  0.33650  0.06581  0.28756  1.0000
  H   H403      1.0  0.36054  0.08857  0.26969  1.0000
  H   H404      1.0  0.39684  0.09332  0.27435  1.0000
  H   H405      1.0  0.40957  0.07513  0.29666  1.0000
  H   H406      1.0  0.34839  0.04818  0.31015  1.0000
  H   H407      1.0  0.39511  0.00492  0.34096  1.0000
  H   H408      1.0  0.41397  0.02840  0.29671  1.0000
  H   H409      1.0  0.36860  0.07375  0.34366  1.0000
  H   H410      1.0  0.04139  0.11027  0.32976  1.0000
  H   H411      1.0  0.30050  0.37853  0.34059  1.0000
  Fe  Fe37      1.0  0.44907  0.21836  0.35534  1.0000
  H   H412      1.0  0.35640  0.01603  0.33035  1.0000
  H   H413      1.0  0.39136  0.09412  0.31847  1.0000
  H   H414      1.0  0.41724  0.11382  0.32522  1.0000
  H   H415      1.0  0.44776  0.09326  0.33761  1.0000
  H   H416      1.0  0.45250  0.05244  0.34338  1.0000
  H   H417      1.0  0.42722  0.03219  0.33643  1.0000
  C   C541      1.0  0.27199  0.37246  0.33347  1.0000
  H   H418      1.0  0.16740  0.09729  0.34400  1.0000
  H   H419      1.0  0.12224  0.32978  0.24700  1.0000
  H   H420      1.0  0.15308  0.25137  0.34374  1.0000
  H   H421      1.0  0.99344  0.00828  0.36531  1.0000
  C   C542      1.0  0.99099  0.11910  0.35059  1.0000
  H   H422      1.0  0.18363  0.21699  0.29611  1.0000
  H   H423      1.0  0.99216  0.29883  0.36313  1.0000
  C   C543      1.0  0.10600  0.31136  0.36196  1.0000
  C   C544      1.0  0.21304  0.15098  0.34901  1.0000
  H   H424      1.0  0.16680  0.14147  0.19951  1.0000
  C   C545      1.0  0.18576  0.12079  0.18483  1.0000
  C   C546      1.0  0.03730  0.29545  0.23004  1.0000
  C   C547      1.0  0.07416  0.20241  0.31795  1.0000
  H   H425      1.0  0.06621  0.16021  0.17354  1.0000
  C   C548      1.0  0.40256  0.26637  0.17161  1.0000
  C   C549      1.0  0.17753  0.05820  0.36591  1.0000
  H   H426      1.0  0.38895  0.11917  0.35101  1.0000
  C   C550      1.0  0.14012  0.11350  0.35746  1.0000
  H   H427      1.0  0.16975  0.13026  0.32542  1.0000
  C   C551      1.0  0.22948  0.07104  0.17165  1.0000
  C   C552      1.0  0.25746  0.11823  0.26478  1.0000
  C   C553      1.0  0.26837  0.13184  0.26982  1.0000
  C   C554      1.0  0.27102  0.15277  0.26223  1.0000
  C   C555      1.0  0.26271  0.16011  0.24964  1.0000
  C   C556      1.0  0.25172  0.14657  0.24449  1.0000
  C   C557      1.0  0.24908  0.12556  0.25218  1.0000
  P   P19       1.0  0.24075  0.15660  0.22829  1.0000
  C   C558      1.0  0.23388  0.13368  0.22223  1.0000
  C   C559      1.0  0.21626  0.17722  0.23105  1.0000
  C   C560      1.0  0.21016  0.18589  0.24367  1.0000
  C   C561      1.0  0.19089  0.20140  0.24578  1.0000
  C   C562      1.0  0.17758  0.20838  0.23534  1.0000
  C   C563      1.0  0.18339  0.19973  0.22284  1.0000
  C   C564      1.0  0.20255  0.18414  0.22073  1.0000
  C   C565      1.0  0.25066  0.11949  0.21510  1.0000
  C   C566      1.0  0.24558  0.10138  0.21076  1.0000
  C   C567      1.0  0.22371  0.09726  0.21344  1.0000
  C   C568      1.0  0.20695  0.11110  0.22069  1.0000
  C   C569      1.0  0.21199  0.12918  0.22515  1.0000
  C   C570      1.0  0.26241  0.16726  0.21497  1.0000
  C   C571      1.0  0.25725  0.18332  0.20342  1.0000
  C   C572      1.0  0.27410  0.18957  0.19246  1.0000
  C   C573      1.0  0.29616  0.17977  0.19288  1.0000
  C   C574      1.0  0.30147  0.16402  0.20439  1.0000
  C   C575      1.0  0.28472  0.15787  0.21541  1.0000
  H   H428      1.0  0.25582  0.10184  0.27055  1.0000
  H   H429      1.0  0.27513  0.12601  0.27949  1.0000
  H   H430      1.0  0.27982  0.16320  0.26600  1.0000
  H   H431      1.0  0.26482  0.17635  0.24389  1.0000
  H   H432      1.0  0.24085  0.11467  0.24842  1.0000
  H   H433      1.0  0.22006  0.18077  0.25197  1.0000
  H   H434      1.0  0.18635  0.20818  0.25547  1.0000
  H   H435      1.0  0.16271  0.22045  0.23695  1.0000
  H   H436      1.0  0.17295  0.20502  0.21477  1.0000
  H   H437      1.0  0.20654  0.17728  0.21109  1.0000
  H   H438      1.0  0.26778  0.12214  0.21298  1.0000
  H   H439      1.0  0.02225  0.30437  0.22637  1.0000
  H   H440      1.0  0.19005  0.10775  0.22295  1.0000
  H   H441      1.0  0.19882  0.13948  0.23094  1.0000
  H   H442      1.0  0.24029  0.19051  0.20250  1.0000
  H   H443      1.0  0.26993  0.20133  0.18333  1.0000
  H   H444      1.0  0.30910  0.18392  0.18414  1.0000
  H   H445      1.0  0.31851  0.15605  0.20463  1.0000
  H   H446      1.0  0.28918  0.14507  0.22398  1.0000
  C   C576      1.0  0.35696  0.11806  0.34635  1.0000
  C   C577      1.0  0.37153  0.11905  0.35530  1.0000
  H   H447      1.0  0.36318  0.11715  0.33536  1.0000
  H   H448      1.0  0.32306  0.11835  0.34437  1.0000
  C   C578      1.0  0.33426  0.11888  0.35141  1.0000
  H   H449      1.0  0.11193  0.25623  0.34841  1.0000
  C   C579      1.0  0.41380  0.98084  0.32865  1.0000
  H   H450      1.0  0.31548  0.03974  0.36641  1.0000
  Fe  Fe38      1.0  0.16058  0.26229  0.16817  1.0000
  C   C580      1.0  0.14464  0.23720  0.34540  1.0000
  H   H451      1.0  0.09958  0.34511  0.35182  1.0000
  C   C581      1.0  0.11725  0.06802  0.18216  1.0000
  C   C582      1.0  0.30631  0.34668  0.33405  1.0000
  C   C583      1.0  0.11057  0.22179  0.34958  1.0000
  H   H452      1.0  0.21220  0.36374  0.35400  1.0000
  C   C584      1.0  0.06918  0.33193  0.36036  1.0000
  C   C585      1.0  0.40647  0.45981  0.36399  1.0000
  C   C586      1.0  0.12145  0.23994  0.34793  1.0000
  H   H453      1.0  0.12404  0.06446  0.19184  1.0000
  S   S75       1.0  0.19471  0.47364  0.35204  1.0000
  C   C587      1.0  0.21726  0.31239  0.17076  1.0000
  H   H454      1.0  0.21229  0.16862  0.34560  1.0000
  C   C588      1.0  0.15698  0.21619  0.34490  1.0000
  H   H455      1.0  0.09255  0.22427  0.35137  1.0000
  C   C589      1.0  0.42513  0.11903  0.36595  1.0000
  C   C590      1.0  0.32600  0.12093  0.36544  1.0000
  H   H456      1.0  0.24401  0.09081  0.18205  1.0000
  H   H457      1.0  0.99712  0.26303  0.30002  1.0000
  H   H458      1.0  0.42103  0.13575  0.36057  1.0000
  H   H459      1.0  0.40714  0.45779  0.35322  1.0000
  H   H460      1.0  0.00028  0.06314  0.35312  1.0000
  S   S76       1.0  0.01356  0.21142  0.36187  1.0000
  H   H461      1.0  0.06003  0.18233  0.36210  1.0000
  H   H462      1.0  0.99084  0.13056  0.17884  1.0000
  H   H463      1.0  0.15996  0.31543  0.16865  1.0000
  C   C591      1.0  0.99457  0.29820  0.29341  1.0000
  H   H464      1.0  0.18068  0.06726  0.18586  1.0000
  H   H465      1.0  0.35814  0.16495  0.36592  1.0000
  H   H466      1.0  0.10944  0.33841  0.16995  1.0000
  C   C592      1.0  0.00294  0.08012  0.34990  1.0000
  H   H467      1.0  0.05883  0.34703  0.35651  1.0000
  C   C593      1.0  0.23038  0.04977  0.16873  1.0000
  C   C594      1.0  0.21525  0.10521  0.35787  1.0000
  H   H468      1.0  0.36389  0.20365  0.36178  1.0000
  H   H469      1.0  0.12782  0.03500  0.17757  1.0000
  C   C595      1.0  0.42440  0.97682  0.31528  1.0000
  H   H470      1.0  0.13877  0.09897  0.36545  1.0000
  C   C596      1.0  0.13047  0.15188  0.16943  1.0000
  C   C597      1.0  0.11933  0.05141  0.17415  1.0000
  C   C598      1.0  0.05962  0.31331  0.36738  1.0000
  H   H471      1.0  0.14841  0.14995  0.16821  1.0000
  Fe  Fe39      1.0  0.47368  0.24042  0.37279  1.0000
  H   H472      1.0  0.04598  0.09926  0.42931  1.0000
  H   H473      1.0  0.38506  0.42771  0.45377  1.0000
  H   H474      1.0  0.01414  0.23796  0.38597  1.0000
  S   S77       1.0  0.22804  0.45128  0.37531  1.0000
  C   C599      1.0  0.00915  0.34174  0.45514  1.0000
  H   H475      1.0  0.46535  0.36549  0.56676  1.0000
  H   H476      1.0  0.07070  0.31255  0.40033  1.0000
  H   H477      1.0  0.01263  0.03295  0.51165  1.0000
  C   C600      1.0  0.47218  0.44907  0.41295  1.0000
  H   H478      1.0  0.07725  0.27467  0.41376  1.0000
  Fe  Fe40      1.0  0.05208  0.04103  0.41956  1.0000
  S   S78       1.0  0.08806  0.04327  0.41849  1.0000
  S   S79       1.0  0.02426  0.06974  0.41596  1.0000
  C   C601      1.0  0.44751  0.46659  0.46824  1.0000
  Fe  Fe41      1.0  0.08477  0.02146  0.43974  1.0000
  H   H479      1.0  0.01136  0.11873  0.44159  1.0000
  Fe  Fe42      1.0  0.09536  0.01150  0.40980  1.0000
  S   S80       1.0  0.12091  0.00411  0.39056  1.0000
  S   S81       1.0  0.04835  0.02137  0.44144  1.0000
  S   S82       1.0  0.05931  0.01098  0.40913  1.0000
  H   H480      1.0  0.99861  0.24386  0.41032  1.0000
  S   S83       1.0  0.07433  0.02040  0.55006  1.0000
  C   C602      1.0  0.25375  0.07716  0.37540  1.0000
  H   H481      1.0  0.15243  0.47124  0.37855  1.0000
  H   H482      1.0  0.09753  0.46673  0.49961  1.0000
  Fe  Fe43      1.0  0.05136  0.00730  0.53976  1.0000
  S   S84       1.0  0.05548  0.99303  0.51969  1.0000
  C   C603      1.0  0.47779  0.39804  0.49610  1.0000
  H   H483      1.0  0.48240  0.45518  0.40325  1.0000
  H   H484      1.0  0.04403  0.47354  0.49691  1.0000
  C   C604      1.0  0.48154  0.43040  0.47804  1.0000
  C   C605      1.0  0.28889  0.99370  0.55790  1.0000
  H   H485      1.0  0.99847  0.10286  0.54029  1.0000
  Fe  Fe44      1.0  0.43406  0.99746  0.43398  1.0000
  S   S85       1.0  0.39735  0.00794  0.44039  1.0000
  Fe  Fe45      1.0  0.44166  0.04367  0.41947  1.0000
  S   S86       1.0  0.40575  0.05772  0.42498  1.0000
  H   H486      1.0  0.03941  0.17785  0.38611  1.0000
  Fe  Fe46      1.0  0.40756  0.03693  0.44632  1.0000
  S   S87       1.0  0.38977  0.04954  0.46637  1.0000
  Fe  Fe47      1.0  0.39862  0.02752  0.41858  1.0000
  S   S88       1.0  0.37235  0.03317  0.40454  1.0000
  S   S89       1.0  0.44420  0.02523  0.44132  1.0000
  S   S90       1.0  0.43463  0.01469  0.41159  1.0000
  S   S91       1.0  0.44744  0.04222  0.55277  1.0000
  H   H487      1.0  0.38705  0.00040  0.49326  1.0000
  Fe  Fe48      1.0  0.42116  0.03529  0.54222  1.0000
  S   S92       1.0  0.43429  0.02276  0.52148  1.0000
  C   C606      1.0  0.00659  0.34737  0.48307  1.0000
  H   H488      1.0  0.45899  0.10493  0.43958  1.0000
  C   C607      1.0  0.46931  0.22779  0.41440  1.0000
  H   H489      1.0  0.30744  0.40193  0.39516  1.0000
  S   S93       1.0  0.45520  0.16689  0.39982  1.0000
  C   C608      1.0  0.34189  0.07674  0.54296  1.0000
  S   S94       1.0  0.44360  0.22315  0.37796  1.0000
  H   H490      1.0  0.39834  0.44693  0.47429  1.0000
  H   H491      1.0  0.05528  0.26531  0.43747  1.0000
  C   C609      1.0  0.03329  0.31969  0.43020  1.0000
  C   C610      1.0  0.40297  0.04307  0.48138  1.0000
  C   C611      1.0  0.42331  0.02899  0.48150  1.0000
  C   C612      1.0  0.43283  0.02327  0.49382  1.0000
  C   C613      1.0  0.42207  0.03147  0.50614  1.0000
  C   C614      1.0  0.40187  0.04579  0.50599  1.0000
  C   C615      1.0  0.39245  0.05163  0.49360  1.0000
  H   H492      1.0  0.43153  0.02220  0.47220  1.0000
  H   H493      1.0  0.44853  0.01231  0.49381  1.0000
  H   H494      1.0  0.39354  0.05238  0.51537  1.0000
  H   H495      1.0  0.37697  0.06286  0.49345  1.0000
  C   C616      1.0  0.35282  0.46369  0.43245  1.0000
  C   C617      1.0  0.47944  0.32594  0.54139  1.0000
  H   H496      1.0  0.02047  0.98385  0.41645  1.0000
  C   C618      1.0  0.03430  0.39687  0.41901  1.0000
  C   C619      1.0  0.44254  0.12639  0.40978  1.0000
  C   C620      1.0  0.44522  0.10328  0.41139  1.0000
  C   C621      1.0  0.44755  0.37046  0.40526  1.0000
  C   C622      1.0  0.41099  0.38458  0.39911  1.0000
  H   H497      1.0  0.42912  0.13510  0.41640  1.0000
  H   H498      1.0  0.43383  0.09435  0.41916  1.0000
  C   C623      1.0  0.36084  0.01141  0.40114  1.0000
  C   C624      1.0  0.34458  0.01630  0.39240  1.0000
  C   C625      1.0  0.33578  0.99931  0.38896  1.0000
  C   C626      1.0  0.98886  0.08394  0.49304  1.0000
  H   H499      1.0  0.33897  0.03329  0.38817  1.0000
  C   C627      1.0  0.47508  0.24164  0.42214  1.0000
  H   H500      1.0  0.39899  0.41250  0.43196  1.0000
  H   H501      1.0  0.02675  0.29360  0.44776  1.0000
  H   H502      1.0  0.00890  0.40797  0.44670  1.0000
  Fe  Fe49      1.0  0.05853  0.99149  0.43090  1.0000
  C   C628      1.0  0.99511  0.41216  0.45480  1.0000
  H   H503      1.0  0.39734  0.38229  0.39451  1.0000
  C   C629      1.0  0.99095  0.06451  0.38463  1.0000
  H   H504      1.0  0.31838  0.43769  0.38284  1.0000
  H   H505      1.0  0.06658  0.13587  0.53739  1.0000
  C   C630      1.0  0.46637  0.42058  0.43332  1.0000
  C   C631      1.0  0.44575  0.43296  0.43784  1.0000
  C   C632      1.0  0.43844  0.45348  0.42998  1.0000
  H   H506      1.0  0.08827  0.07552  0.49872  1.0000
  S   S95       1.0  0.39712  0.06524  0.54774  1.0000
  H   H507      1.0  0.43543  0.42669  0.44745  1.0000
  H   H508      1.0  0.21153  0.98258  0.43555  1.0000
  C   C633      1.0  0.18821  0.99019  0.37961  1.0000
  H   H509      1.0  0.08220  0.46210  0.47535  1.0000
  C   C634      1.0  0.44173  0.33954  0.55193  1.0000
  H   H510      1.0  0.04682  0.36533  0.43017  1.0000
  C   C635      1.0  0.45167  0.46154  0.41749  1.0000
  C   C636      1.0  0.39070  0.98053  0.47717  1.0000
  H   H511      1.0  0.28200  0.04021  0.39864  1.0000
  H   H512      1.0  0.01587  0.45775  0.52199  1.0000
  C   C637      1.0  0.03675  0.29809  0.43760  1.0000
  C   C638      1.0  0.08728  0.01899  0.47470  1.0000
  C   C639      1.0  0.09138  0.02730  0.48605  1.0000
  C   C640      1.0  0.08154  0.01977  0.49994  1.0000
  C   C641      1.0  0.06801  0.00348  0.50254  1.0000
  C   C642      1.0  0.06450  0.99475  0.49120  1.0000
  C   C643      1.0  0.07372  0.00274  0.47732  1.0000
  C   C644      1.0  0.01295  0.37133  0.38658  1.0000
  H   H513      1.0  0.44973  0.97729  0.53636  1.0000
  C   C645      1.0  0.06924  0.17867  0.37074  1.0000
  H   H514      1.0  0.07054  0.99613  0.46868  1.0000
  H   H515      1.0  0.05590  0.42251  0.52619  1.0000
  C   C646      1.0  0.39061  0.19718  0.37370  1.0000
  H   H516      1.0  0.44387  0.14348  0.44289  1.0000
  C   C647      1.0  0.04550  0.32473  0.41666  1.0000
  C   C648      1.0  0.05271  0.28198  0.43173  1.0000
  C   C649      1.0  0.02947  0.12625  0.37847  1.0000
  C   C650      1.0  0.01066  0.12663  0.38895  1.0000
  C   C651      1.0  0.00936  0.10922  0.40043  1.0000
  C   C652      1.0  0.02678  0.09135  0.40148  1.0000
  C   C653      1.0  0.04557  0.09096  0.39100  1.0000
  C   C654      1.0  0.04688  0.10836  0.37953  1.0000
  H   H517      1.0  0.05905  0.07724  0.39170  1.0000
  S   S96       1.0  0.43224  0.10445  0.55836  1.0000
  C   C655      1.0  0.02740  0.45246  0.55511  1.0000
  P   P20       1.0  0.47518  0.45985  0.47259  1.0000
  C   C656      1.0  0.99439  0.38049  0.42247  1.0000
  C   C657      1.0  0.00776  0.43135  0.53886  1.0000
  C   C658      1.0  0.01645  0.45091  0.53293  1.0000
  H   H518      1.0  0.01340  0.30985  0.40008  1.0000
  C   C659      1.0  0.47646  0.47303  0.48712  1.0000
  S   S97       1.0  0.28330  0.99470  0.37129  1.0000
  C   C660      1.0  0.02524  0.33459  0.47649  1.0000
  C   C661      1.0  0.14988  0.38072  0.46550  1.0000
  C   C662      1.0  0.16917  0.37272  0.47136  1.0000
  C   C663      1.0  0.17548  0.38463  0.48013  1.0000
  C   C664      1.0  0.16261  0.40464  0.48297  1.0000
  C   C665      1.0  0.14336  0.41296  0.47696  1.0000
  C   C666      1.0  0.13694  0.40070  0.46834  1.0000
  P   P21       1.0  0.12642  0.43871  0.48059  1.0000
  C   C667      1.0  0.10374  0.43354  0.49484  1.0000
  C   C668      1.0  0.14317  0.45550  0.48568  1.0000
  H   H519      1.0  0.46167  0.35734  0.40590  1.0000
  H   H520      1.0  0.31957  0.98567  0.54443  1.0000
  C   C669      1.0  0.02607  0.46156  0.54106  1.0000
  C   C670      1.0  0.46122  0.34304  0.54247  1.0000
  H   H521      1.0  0.10050  0.16644  0.40256  1.0000
  C   C671      1.0  0.09281  0.45045  0.50241  1.0000
  H   H522      1.0  0.28326  0.07710  0.38384  1.0000
  C   C672      1.0  0.06908  0.42568  0.51737  1.0000
  C   C673      1.0  0.07957  0.40891  0.50973  1.0000
  C   C674      1.0  0.09683  0.41278  0.49850  1.0000
  C   C675      1.0  0.11572  0.45232  0.46476  1.0000
  C   C676      1.0  0.09327  0.46170  0.46542  1.0000
  H   H523      1.0  0.19230  0.07959  0.39142  1.0000
  C   C677      1.0  0.98968  0.16621  0.56474  1.0000
  H   H524      1.0  0.45723  0.98036  0.47144  1.0000
  C   C678      1.0  0.12949  0.45247  0.45154  1.0000
  H   H525      1.0  0.14501  0.37147  0.45870  1.0000
  H   H526      1.0  0.17926  0.35729  0.46911  1.0000
  H   H527      1.0  0.19043  0.37838  0.48470  1.0000
  H   H528      1.0  0.16789  0.41352  0.48978  1.0000
  H   H529      1.0  0.12197  0.40660  0.46376  1.0000
  C   C679      1.0  0.05643  0.12993  0.51893  1.0000
  H   H530      1.0  0.15658  0.06869  0.40425  1.0000
  C   C680      1.0  0.02497  0.35219  0.38180  1.0000
  H   H531      1.0  0.47168  0.39078  0.50677  1.0000
  H   H532      1.0  0.33774  0.98393  0.51756  1.0000
  C   C681      1.0  0.26926  0.04739  0.39223  1.0000
  C   C682      1.0  0.19608  0.99409  0.39113  1.0000
  H   H533      1.0  0.04968  0.40332  0.41774  1.0000
  H   H534      1.0  0.07439  0.39285  0.51266  1.0000
  H   H535      1.0  0.10478  0.39946  0.49283  1.0000
  C   C683      1.0  0.15768  0.00374  0.40262  1.0000
  H   H536      1.0  0.17851  0.00719  0.44570  1.0000
  C   C684      1.0  0.98925  0.35734  0.47572  1.0000
  C   C685      1.0  0.33640  0.05695  0.54118  1.0000
  H   H537      1.0  0.14688  0.44525  0.45075  1.0000
  C   C686      1.0  0.09838  0.47105  0.44001  1.0000
  C   C687      1.0  0.43677  0.07617  0.37981  1.0000
  C   C688      1.0  0.99818  0.42077  0.46631  1.0000
  C   C689      1.0  0.37111  0.00843  0.53131  1.0000
  C   C690      1.0  0.35235  0.00590  0.52623  1.0000
  C   C691      1.0  0.36147  0.45372  0.44466  1.0000
  P   P22       1.0  0.32854  0.02745  0.52564  1.0000
  C   C692      1.0  0.33554  0.05322  0.52770  1.0000
  C   C693      1.0  0.32077  0.03011  0.50855  1.0000
  C   C694      1.0  0.33733  0.03034  0.49654  1.0000
  C   C695      1.0  0.33169  0.03246  0.48322  1.0000
  C   C696      1.0  0.30949  0.03408  0.48180  1.0000
  C   C697      1.0  0.29291  0.03365  0.49371  1.0000
  C   C698      1.0  0.29850  0.03169  0.50707  1.0000
  C   C699      1.0  0.34007  0.06971  0.51606  1.0000
  C   C700      1.0  0.34595  0.08932  0.51787  1.0000
  C   C701      1.0  0.40499  0.46487  0.39182  1.0000
  C   C702      1.0  0.35205  0.98615  0.52158  1.0000
  C   C703      1.0  0.30616  0.02044  0.53969  1.0000
  S   S98       1.0  0.04250  0.98205  0.55874  1.0000
  S   S99       1.0  0.47492  0.39480  0.44325  1.0000
  C   C704      1.0  0.02184  0.29129  0.38291  1.0000
  H   H538      1.0  0.41992  0.98014  0.50285  1.0000
  C   C705      1.0  0.28868  0.03700  0.54370  1.0000
  C   C706      1.0  0.23685  0.06533  0.37503  1.0000
  H   H539      1.0  0.04241  0.34094  0.41042  1.0000
  P   P23       1.0  0.01062  0.33948  0.43696  1.0000
  H   H540      1.0  0.37198  0.02348  0.53488  1.0000
  C   C707      1.0  0.47378  0.42090  0.49190  1.0000
  H   H541      1.0  0.35460  0.02929  0.49743  1.0000
  H   H542      1.0  0.34460  0.03307  0.47399  1.0000
  H   H543      1.0  0.43883  0.03359  0.37154  1.0000
  H   H544      1.0  0.27570  0.03488  0.49260  1.0000
  H   H545      1.0  0.28543  0.03139  0.51615  1.0000
  H   H546      1.0  0.33926  0.06758  0.50556  1.0000
  H   H547      1.0  0.13142  0.46210  0.42901  1.0000
  C   C708      1.0  0.10372  0.17191  0.37996  1.0000
  H   H548      1.0  0.48417  0.07515  0.56424  1.0000
  C   C709      1.0  0.05737  0.17643  0.38444  1.0000
  C   C710      1.0  0.99187  0.99141  0.37012  1.0000
  H   H549      1.0  0.28844  0.05389  0.53839  1.0000
  C   C711      1.0  0.15295  0.47188  0.47584  1.0000
  H   H550      1.0  0.35894  0.45693  0.56119  1.0000
  C   C712      1.0  0.41061  0.40417  0.40415  1.0000
  H   H551      1.0  0.46308  0.33445  0.51637  1.0000
  C   C713      1.0  0.36259  0.41796  0.40008  1.0000
  H   H552      1.0  0.40501  0.46690  0.40251  1.0000
  H   H553      1.0  0.06758  0.06701  0.44234  1.0000
  S   S100      1.0  0.09895  0.02942  0.45733  1.0000
  H   H554      1.0  0.42764  0.35269  0.55257  1.0000
  C   C714      1.0  0.00572  0.27710  0.40682  1.0000
  C   C715      1.0  0.16513  0.99321  0.37958  1.0000
  C   C716      1.0  0.46320  0.09177  0.40341  1.0000
  S   S101      1.0  0.02189  0.03266  0.54573  1.0000
  C   C717      1.0  0.99042  0.35442  0.46186  1.0000
  H   H555      1.0  0.06751  0.45942  0.51969  1.0000
  C   C718      1.0  0.46953  0.11758  0.43620  1.0000
  C   C719      1.0  0.38649  0.42708  0.43180  1.0000
  H   H556      1.0  0.45687  0.32878  0.49351  1.0000
  H   H557      1.0  0.13114  0.16142  0.55232  1.0000
  H   H558      1.0  0.05407  0.11897  0.56606  1.0000
  C   C720      1.0  0.40910  0.10881  0.37595  1.0000
  H   H559      1.0  0.32341  0.00321  0.38215  1.0000
  H   H560      1.0  0.33108  0.37682  0.41118  1.0000
  C   C721      1.0  0.46100  0.13932  0.43804  1.0000
  H   H561      1.0  0.18663  0.00444  0.41138  1.0000
  C   C722      1.0  0.07357  0.29374  0.37176  1.0000
  C   C723      1.0  0.00576  0.25687  0.40284  1.0000
  C   C724      1.0  0.01274  0.36694  0.42756  1.0000
  C   C725      1.0  0.41503  0.08712  0.38269  1.0000
  H   H562      1.0  0.45599  0.23374  0.40828  1.0000
  C   C726      1.0  0.37830  0.43741  0.41939  1.0000
  H   H563      1.0  0.41838  0.97855  0.39933  1.0000
  S   S102      1.0  0.22471  0.98889  0.39244  1.0000
  H   H564      1.0  0.33367  0.12449  0.38512  1.0000
  C   C727      1.0  0.01450  0.25354  0.38908  1.0000
  C   C728      1.0  0.06505  0.28722  0.41835  1.0000
  C   C729      1.0  0.99616  0.40191  0.41548  1.0000
  H   H565      1.0  0.08463  0.02631  0.50864  1.0000
  C   C730      1.0  0.00796  0.99558  0.49213  1.0000
  S   S103      1.0  0.46834  0.06258  0.40616  1.0000
  Fe  Fe50      1.0  0.04387  0.04370  0.55787  1.0000
  C   C731      1.0  0.45846  0.30202  0.55956  1.0000
  H   H566      1.0  0.37989  0.98563  0.41370  1.0000
  C   C732      1.0  0.99207  0.34572  0.37452  1.0000
  P   P24       1.0  0.02530  0.42530  0.46796  1.0000
  C   C733      1.0  0.02234  0.45039  0.47507  1.0000
  C   C734      1.0  0.03588  0.40163  0.47990  1.0000
  C   C735      1.0  0.02825  0.40032  0.49442  1.0000
  C   C736      1.0  0.03581  0.38189  0.50381  1.0000
  C   C737      1.0  0.05106  0.36459  0.49880  1.0000
  C   C738      1.0  0.05839  0.36554  0.48434  1.0000
  C   C739      1.0  0.05045  0.38377  0.47489  1.0000
  H   H567      1.0  0.04850  0.43872  0.48768  1.0000
  C   C740      1.0  0.02269  0.27060  0.37916  1.0000
  C   C741      1.0  0.01384  0.29422  0.39690  1.0000
  C   C742      1.0  0.00882  0.42249  0.55294  1.0000
  C   C743      1.0  0.03601  0.45232  0.48443  1.0000
  C   C744      1.0  0.04285  0.43001  0.45097  1.0000
  C   C745      1.0  0.06603  0.42401  0.44960  1.0000
  C   C746      1.0  0.07950  0.42824  0.43647  1.0000
  C   C747      1.0  0.07003  0.43931  0.42475  1.0000
  C   C748      1.0  0.04706  0.44586  0.42610  1.0000
  C   C749      1.0  0.03354  0.44139  0.43916  1.0000
  H   H568      1.0  0.10202  0.03974  0.48409  1.0000
  H   H569      1.0  0.36565  0.38733  0.41478  1.0000
  H   H570      1.0  0.01626  0.41347  0.49852  1.0000
  H   H571      1.0  0.02968  0.38112  0.51500  1.0000
  H   H572      1.0  0.05687  0.35035  0.50614  1.0000
  H   H573      1.0  0.06988  0.35193  0.48044  1.0000
  H   H574      1.0  0.05542  0.38374  0.46371  1.0000
  C   C750      1.0  0.27167  0.01027  0.56190  1.0000
  C   C751      1.0  0.33615  0.39222  0.40555  1.0000
  H   H575      1.0  0.18257  0.11371  0.36994  1.0000
  C   C752      1.0  0.23594  0.04480  0.38379  1.0000
  C   C753      1.0  0.39819  0.44427  0.37508  1.0000
  H   H576      1.0  0.07378  0.41662  0.45870  1.0000
  H   H577      1.0  0.09738  0.42379  0.43546  1.0000
  H   H578      1.0  0.08048  0.44354  0.41469  1.0000
  H   H579      1.0  0.03977  0.45526  0.41715  1.0000
  H   H580      1.0  0.01588  0.44747  0.44006  1.0000
  S   S104      1.0  0.09501  0.98992  0.43095  1.0000
  H   H581      1.0  0.39333  0.21419  0.37161  1.0000
  C   C754      1.0  0.47783  0.10367  0.39334  1.0000
  H   H582      1.0  0.46983  0.07848  0.36852  1.0000
  H   H583      1.0  0.22291  0.03546  0.38392  1.0000
  H   H584      1.0  0.14089  0.99734  0.44865  1.0000
  H   H585      1.0  0.07746  0.98587  0.38717  1.0000
  C   C755      1.0  0.15736  0.05209  0.37326  1.0000
  C   C756      1.0  0.01287  0.14285  0.53222  1.0000
  C   C757      1.0  0.01673  0.13585  0.51910  1.0000
  H   H586      1.0  0.04218  0.34743  0.38310  1.0000
  H   H587      1.0  0.35167  0.10790  0.53273  1.0000
  C   C758      1.0  0.36343  0.12070  0.36949  1.0000
  C   C759      1.0  0.34875  0.43233  0.39137  1.0000
  S   S105      1.0  0.99809  0.41708  0.52800  1.0000
  C   C760      1.0  0.02672  0.33206  0.46249  1.0000
  C   C761      1.0  0.34690  0.09282  0.53131  1.0000
  H   H588      1.0  0.46627  0.25836  0.42199  1.0000
  C   C762      1.0  0.12082  0.46188  0.43922  1.0000
  H   H589      1.0  0.99632  0.46758  0.46341  1.0000
  H   H590      1.0  0.00245  0.40731  0.55757  1.0000
  C   C763      1.0  0.42943  0.40713  0.40905  1.0000
  C   C764      1.0  0.03263  0.37536  0.42597  1.0000
  C   C765      1.0  0.45750  0.13826  0.39999  1.0000
  C   C766      1.0  0.44035  0.31901  0.56044  1.0000
  C   C767      1.0  0.47361  0.32600  0.49582  1.0000
  C   C768      1.0  0.37084  0.16917  0.37055  1.0000
  H   H591      1.0  0.09205  0.08024  0.56281  1.0000
  H   H592      1.0  0.47659  0.19605  0.40802  1.0000
  S   S106      1.0  0.04789  0.07921  0.55779  1.0000
  H   H593      1.0  0.98994  0.01502  0.40623  1.0000
  H   H594      1.0  0.04139  0.12410  0.50236  1.0000
  H   H595      1.0  0.35282  0.44832  0.38621  1.0000
  H   H596      1.0  0.00966  0.00160  0.46963  1.0000
  H   H597      1.0  0.25832  0.04477  0.55804  1.0000
  C   C769      1.0  0.03102  0.14283  0.53874  1.0000
  S   S107      1.0  0.40691  0.01219  0.56102  1.0000
  C   C770      1.0  0.16065  0.46400  0.50362  1.0000
  H   H598      1.0  0.34994  0.10175  0.50881  1.0000
  H   H599      1.0  0.99269  0.31819  0.55963  1.0000
  C   C771      1.0  0.47727  0.32923  0.50881  1.0000
  H   H600      1.0  0.25149  0.01972  0.39873  1.0000
  Fe  Fe51      1.0  0.42248  0.07047  0.55993  1.0000
  H   H601      1.0  0.99480  0.10960  0.40853  1.0000
  C   C772      1.0  0.48113  0.20649  0.41417  1.0000
  C   C773      1.0  0.14977  0.99990  0.39111  1.0000
  H   H602      1.0  0.00801  0.99428  0.51419  1.0000
  H   H603      1.0  0.35513  0.46026  0.45435  1.0000
  C   C774      1.0  0.15533  0.98655  0.44428  1.0000
  P   P25       1.0  0.38180  0.12413  0.38075  1.0000
  H   H604      1.0  0.13981  0.43913  0.50741  1.0000
  C   C775      1.0  0.38456  0.15289  0.37837  1.0000
  C   C776      1.0  0.05270  0.13633  0.53213  1.0000
  H   H605      1.0  0.46187  0.39236  0.41395  1.0000
  C   C777      1.0  0.36784  0.98944  0.40668  1.0000
  C   C778      1.0  0.40439  0.18108  0.38138  1.0000
  C   C779      1.0  0.40152  0.15902  0.38362  1.0000
  H   H606      1.0  0.47840  0.00337  0.52535  1.0000
  H   H607      1.0  0.45763  0.28611  0.56625  1.0000
  C   C780      1.0  0.43195  0.45210  0.47333  1.0000
  C   C781      1.0  0.06140  0.30858  0.41081  1.0000
  H   H608      1.0  0.37667  0.99020  0.47261  1.0000
  C   C782      1.0  0.37139  0.11367  0.39892  1.0000
  C   C783      1.0  0.36161  0.09442  0.40228  1.0000
  C   C784      1.0  0.35424  0.08578  0.41630  1.0000
  C   C785      1.0  0.35674  0.09612  0.42711  1.0000
  C   C786      1.0  0.36647  0.11523  0.42390  1.0000
  C   C787      1.0  0.37373  0.12402  0.40988  1.0000
  C   C788      1.0  0.27156  0.03191  0.55480  1.0000
  C   C789      1.0  0.47962  0.42874  0.42089  1.0000
  C   C790      1.0  0.44766  0.39020  0.40980  1.0000
  C   C791      1.0  0.18069  0.00118  0.40251  1.0000
  H   H609      1.0  0.02852  0.14738  0.54906  1.0000
  C   C792      1.0  0.03845  0.12969  0.51241  1.0000
  H   H610      1.0  0.41763  0.18562  0.38536  1.0000
  H   H611      1.0  0.41283  0.14672  0.38926  1.0000
  H   H612      1.0  0.40324  0.07876  0.39052  1.0000
  C   C793      1.0  0.42933  0.36774  0.39978  1.0000
  C   C794      1.0  0.26997  0.06812  0.38387  1.0000
  H   H613      1.0  0.35456  0.46391  0.41046  1.0000
  H   H614      1.0  0.36025  0.08564  0.39411  1.0000
  H   H615      1.0  0.34729  0.07059  0.41878  1.0000
  H   H616      1.0  0.35169  0.08899  0.43799  1.0000
  H   H617      1.0  0.36879  0.12301  0.43230  1.0000
  H   H618      1.0  0.38140  0.13866  0.40777  1.0000
  C   C795      1.0  0.05255  0.07569  0.44771  1.0000
  C   C796      1.0  0.16229  0.06614  0.39346  1.0000
  C   C797      1.0  0.02095  0.10490  0.44738  1.0000
  C   C798      1.0  0.01353  0.09763  0.46164  1.0000
  C   C799      1.0  0.02556  0.07917  0.46902  1.0000
  C   C800      1.0  0.04496  0.06813  0.46186  1.0000
  P   P26       1.0  0.01577  0.06869  0.48726  1.0000
  C   C801      1.0  0.03420  0.07184  0.49865  1.0000
  C   C802      1.0  0.01473  0.33943  0.37547  1.0000
  C   C803      1.0  0.39652  0.98628  0.48881  1.0000
  C   C804      1.0  0.00867  0.00459  0.50391  1.0000
  H   H619      1.0  0.39272  0.43016  0.37277  1.0000
  H   H620      1.0  0.00553  0.34961  0.49386  1.0000
  H   H621      1.0  0.00129  0.07736  0.38133  1.0000
  C   C805      1.0  0.02590  0.07290  0.51291  1.0000
  C   C806      1.0  0.03988  0.07523  0.52186  1.0000
  C   C807      1.0  0.06237  0.07595  0.51682  1.0000
  C   C808      1.0  0.07075  0.07521  0.50264  1.0000
  C   C809      1.0  0.05673  0.07331  0.49356  1.0000
  C   C810      1.0  0.01321  0.03993  0.48909  1.0000
  C   C811      1.0  0.01146  0.02661  0.50241  1.0000
  H   H622      1.0  0.01294  0.04070  0.46693  1.0000
  C   C812      1.0  0.47785  0.30539  0.55002  1.0000
  C   C813      1.0  0.01601  0.41019  0.41378  1.0000
  C   C814      1.0  0.01197  0.03085  0.47732  1.0000
  P   P27       1.0  0.02986  0.31419  0.36974  1.0000
  H   H623      1.0  0.13432  0.05084  0.39275  1.0000
  H   H624      1.0  0.46672  0.98373  0.55954  1.0000
  H   H625      1.0  0.99817  0.10617  0.46668  1.0000
  H   H626      1.0  0.05404  0.05336  0.46714  1.0000
  H   H627      1.0  0.00219  0.11269  0.49456  1.0000
  H   H628      1.0  0.16350  0.46109  0.51441  1.0000
  H   H629      1.0  0.46728  0.17252  0.43472  1.0000
  H   H630      1.0  0.34266  0.07944  0.55340  1.0000
  H   H631      1.0  0.06677  0.27897  0.37687  1.0000
  H   H632      1.0  0.00869  0.07162  0.51723  1.0000
  H   H633      1.0  0.03339  0.07612  0.53282  1.0000
  H   H634      1.0  0.07321  0.07703  0.52397  1.0000
  C   C815      1.0  0.38930  0.99146  0.53165  1.0000
  H   H635      1.0  0.06386  0.07242  0.48272  1.0000
  C   C816      1.0  0.32903  0.42646  0.38955  1.0000
  S   S108      1.0  0.47450  0.27306  0.38016  1.0000
  C   C817      1.0  0.09179  0.16985  0.39367  1.0000
  C   C818      1.0  0.47433  0.15581  0.43324  1.0000
  C   C819      1.0  0.08466  0.47072  0.45312  1.0000
  H   H636      1.0  0.43629  0.43630  0.47972  1.0000
  C   C820      1.0  0.14709  0.45172  0.49962  1.0000
  H   H637      1.0  0.44148  0.05992  0.38563  1.0000
  H   H638      1.0  0.07324  0.12465  0.51391  1.0000
  C   C821      1.0  0.39705  0.44690  0.38907  1.0000
  Fe  Fe52      1.0  0.01427  0.00794  0.56512  1.0000
  C   C822      1.0  0.00969  0.00869  0.47883  1.0000
  H   H639      1.0  0.06147  0.10798  0.37144  1.0000
  C   C823      1.0  0.19023  0.06841  0.37231  1.0000
  H   H640      1.0  0.43000  0.42247  0.41239  1.0000
  H   H641      1.0  0.42947  0.35254  0.39603  1.0000
  C   C824      1.0  0.30617  0.99874  0.54694  1.0000
  H   H642      1.0  0.01333  0.04434  0.39791  1.0000
  C   C825      1.0  0.14971  0.05612  0.38699  1.0000
  C   C826      1.0  0.37835  0.43547  0.44432  1.0000
  C   C827      1.0  0.37394  0.19122  0.36822  1.0000
  H   H643      1.0  0.40391  0.99368  0.53532  1.0000
  C   C828      1.0  0.06862  0.17192  0.39591  1.0000
  P   P28       1.0  0.38721  0.42626  0.40324  1.0000
  H   H644      1.0  0.00302  0.13475  0.51415  1.0000
  H   H645      1.0  0.14608  0.00896  0.41154  1.0000
  C   C829      1.0  0.41038  0.45799  0.47022  1.0000
  C   C830      1.0  0.36136  0.45576  0.41983  1.0000
  H   H646      1.0  0.04155  0.32266  0.45746  1.0000
  C   C831      1.0  0.18250  0.07223  0.38618  1.0000
  H   H647      1.0  0.30515  0.03576  0.47145  1.0000
  C   C832      1.0  0.04050  0.09398  0.44044  1.0000
  C   C833      1.0  0.35584  0.39812  0.40745  1.0000
  H   H648      1.0  0.05935  0.16998  0.40651  1.0000
  C   C834      1.0  0.25211  0.03585  0.39229  1.0000
  H   H649      1.0  0.47832  0.45748  0.44293  1.0000
  C   C835      1.0  0.43513  0.99994  0.37220  1.0000
  C   C836      1.0  0.00675  0.46858  0.47078  1.0000
  H   H650      1.0  0.48625  0.13586  0.38378  1.0000
  H   H651      1.0  0.46431  0.43113  0.49941  1.0000
  C   C837      1.0  0.01886  0.43284  0.56095  1.0000
  C   C838      1.0  0.17653  0.99207  0.44265  1.0000
  C   C839      1.0  0.34316  0.97729  0.39425  1.0000
  C   C840      1.0  0.07568  0.44645  0.51371  1.0000
  H   H652      1.0  0.42255  0.46293  0.43351  1.0000
  H   H653      1.0  0.11171  0.47171  0.38185  1.0000
  H   H654      1.0  0.12168  0.17012  0.37835  1.0000
  Fe  Fe53      1.0  0.46760  0.19147  0.38095  1.0000
  H   H655      1.0  0.33298  0.04451  0.55034  1.0000
  H   H656      1.0  0.03858  0.32678  0.48226  1.0000
  C   C841      1.0  0.45276  0.08667  0.37018  1.0000
  H   H657      1.0  0.46192  0.35895  0.53580  1.0000
  H   H658      1.0  0.44319  0.14682  0.55884  1.0000
  C   C842      1.0  0.32280  0.40635  0.39655  1.0000
  C   C843      1.0  0.99784  0.04582  0.39406  1.0000
  H   H659      1.0  0.45182  0.99364  0.37436  1.0000
  C   C844      1.0  0.34046  0.12210  0.37442  1.0000
  C   C845      1.0  0.98770  0.20469  0.56614  1.0000
  H   H660      1.0  0.47468  0.31411  0.38909  1.0000
  H   H661      1.0  0.99716  0.14031  0.38820  1.0000
  C   C846      1.0  0.03361  0.47202  0.48966  1.0000
  H   H662      1.0  0.01705  0.42699  0.40850  1.0000
  H   H663      1.0  0.30831  0.12208  0.36924  1.0000
  C   C847      1.0  0.47479  0.12687  0.39147  1.0000
  H   H664      1.0  0.02101  0.38137  0.39118  1.0000
  S   S109      1.0  0.03979  0.46470  0.56577  1.0000
  H   H665      1.0  0.11264  0.00405  0.56514  1.0000
  H   H666      1.0  0.38725  0.98384  0.36885  1.0000
  C   C848      1.0  0.19510  0.97816  0.43701  1.0000
  C   C849      1.0  0.42779  0.02266  0.37071  1.0000
  H   H667      1.0  0.10738  0.27750  0.37204  1.0000
  H   H668      1.0  0.05442  0.98184  0.49315  1.0000
  H   H669      1.0  0.15100  0.01023  0.56479  1.0000
  C   C850      1.0  0.09255  0.17587  0.36839  1.0000
  H   H670      1.0  0.15916  0.99026  0.37061  1.0000
  C   C851      1.0  0.42082  0.98547  0.37145  1.0000
  H   H671      1.0  0.99190  0.33892  0.41208  1.0000
  H   H672      1.0  0.15025  0.47524  0.46505  1.0000
  H   H673      1.0  0.99884  0.27971  0.41748  1.0000
  H   H674      1.0  0.25488  0.09314  0.36901  1.0000
  C   C852      1.0  0.39900  0.99423  0.36925  1.0000
  H   H675      1.0  0.19986  0.98468  0.37080  1.0000
  H   H676      1.0  0.14788  0.04362  0.36848  1.0000
  H   H677      1.0  0.98916  0.17913  0.51358  1.0000
  C   C853      1.0  0.99052  0.37766  0.38535  1.0000
  C   C854      1.0  0.40604  0.03119  0.36862  1.0000
  C   C855      1.0  0.09666  0.29281  0.36906  1.0000
  H   H678      1.0  0.40011  0.04875  0.36791  1.0000
  H   H679      1.0  0.00670  0.97833  0.49328  1.0000
  C   C856      1.0  0.12390  0.16045  0.56334  1.0000
  H   H680      1.0  0.11213  0.19542  0.56175  1.0000
  H   H681      1.0  0.31980  0.47553  0.56257  1.0000
  H   H682      1.0  0.02900  0.26782  0.36848  1.0000
  H   H683      1.0  0.03264  0.47664  0.53644  1.0000
  Fe  Fe54      1.0  0.38454  0.04247  0.56739  1.0000
  C   C857      1.0  0.98735  0.10526  0.49599  1.0000
  H   H684      1.0  0.28911  0.97702  0.56364  1.0000
  C   C858      1.0  0.98700  0.30293  0.56493  1.0000
  H   H685      1.0  0.11291  0.13327  0.36850  1.0000
  H   H686      1.0  0.48633  0.99028  0.43111  1.0000
  H   H687      1.0  0.11615  0.04419  0.56752  1.0000
  C   C859      1.0  0.39174  0.01698  0.36781  1.0000
  C   C860      1.0  0.17955  0.26203  0.60411  1.0000
  Fe  Fe55      1.0  0.19947  0.12221  0.66114  1.0000
  S   S110      1.0  0.17696  0.11037  0.68081  1.0000
  S   S111      1.0  0.21759  0.10119  0.64475  1.0000
  Fe  Fe56      1.0  0.19280  0.16921  0.66785  1.0000
  S   S112      1.0  0.16910  0.16091  0.68784  1.0000
  S   S113      1.0  0.19966  0.20444  0.66069  1.0000
  Fe  Fe57      1.0  0.19346  0.12984  0.69153  1.0000
  S   S114      1.0  0.20872  0.11816  0.71138  1.0000
  Fe  Fe58      1.0  0.15450  0.14241  0.67535  1.0000
  S   S115      1.0  0.11724  0.14307  0.67813  1.0000
  S   S116      1.0  0.21811  0.13919  0.67217  1.0000
  S   S117      1.0  0.17616  0.15321  0.65501  1.0000
  H   H688      1.0  0.19589  0.10509  0.62062  1.0000
  S   S118      1.0  0.19722  0.00530  0.64482  1.0000
  S   S119      1.0  0.22475  0.99895  0.60485  1.0000
  C   C861      1.0  0.18253  0.01302  0.71217  1.0000
  S   S120      1.0  0.01283  0.21353  0.62414  1.0000
  Fe  Fe59      1.0  0.21277  0.98518  0.62739  1.0000
  S   S121      1.0  0.02827  0.18196  0.60024  1.0000
  H   H689      1.0  0.19005  0.05065  0.61277  1.0000
  Fe  Fe60      1.0  0.03266  0.18009  0.62261  1.0000
  S   S122      1.0  0.06903  0.17067  0.62460  1.0000
  H   H690      1.0  0.06154  0.02995  0.64440  1.0000
  Fe  Fe61      1.0  0.43135  0.02157  0.57186  1.0000
  C   C862      1.0  0.03303  0.09389  0.57133  1.0000
  S   S123      1.0  0.45069  0.99754  0.58700  1.0000
  Fe  Fe62      1.0  0.29479  0.26778  0.67209  1.0000
  S   S124      1.0  0.30270  0.29144  0.65213  1.0000
  S   S125      1.0  0.28456  0.23390  0.67455  1.0000
  Fe  Fe63      1.0  0.31518  0.29261  0.68914  1.0000
  S   S126      1.0  0.32458  0.31830  0.67027  1.0000
  S   S127      1.0  0.32857  0.28964  0.70954  1.0000
  Fe  Fe64      1.0  0.29072  0.31835  0.66536  1.0000
  S   S128      1.0  0.26694  0.34787  0.65615  1.0000
  Fe  Fe65      1.0  0.33590  0.28976  0.65844  1.0000
  S   S129      1.0  0.36690  0.28780  0.64170  1.0000
  S   S130      1.0  0.28033  0.29450  0.68518  1.0000
  S   S131      1.0  0.32898  0.26438  0.67741  1.0000
  P   P29       1.0  0.44709  0.31739  0.61243  1.0000
  C   C863      1.0  0.33982  0.43745  0.59557  1.0000
  C   C864      1.0  0.09177  0.02107  0.60594  1.0000
  S   S132      1.0  0.27872  0.44919  0.63509  1.0000
  H   H691      1.0  0.09092  0.21135  0.64143  1.0000
  C   C865      1.0  0.06297  0.03334  0.66547  1.0000
  H   H692      1.0  0.32510  0.26906  0.76065  1.0000
  Fe  Fe66      1.0  0.06305  0.99707  0.56952  1.0000
  H   H693      1.0  0.22528  0.05796  0.74296  1.0000
  S   S133      1.0  0.40806  0.05018  0.57985  1.0000
  S   S134      1.0  0.44964  0.21046  0.64603  1.0000
  H   H694      1.0  0.17896  0.15044  0.59728  1.0000
  H   H695      1.0  0.01748  0.28929  0.57298  1.0000
  C   C866      1.0  0.23928  0.27606  0.71945  1.0000
  C   C867      1.0  0.11328  0.17961  0.56865  1.0000
  P   P30       1.0  0.10792  0.01810  0.63087  1.0000
  C   C868      1.0  0.37276  0.01973  0.60905  1.0000
  H   H696      1.0  0.20983  0.27162  0.75260  1.0000
  C   C869      1.0  0.31422  0.28328  0.72691  1.0000
  C   C870      1.0  0.29108  0.28510  0.72991  1.0000
  C   C871      1.0  0.28023  0.28147  0.74397  1.0000
  C   C872      1.0  0.29239  0.27564  0.75514  1.0000
  C   C873      1.0  0.31556  0.27346  0.75215  1.0000
  C   C874      1.0  0.32638  0.27744  0.73810  1.0000
  H   H697      1.0  0.28154  0.28984  0.72141  1.0000
  H   H698      1.0  0.26230  0.28329  0.74620  1.0000
  C   C875      1.0  0.33240  0.46391  0.64646  1.0000
  H   H699      1.0  0.34429  0.27617  0.73588  1.0000
  C   C876      1.0  0.27035  0.37606  0.65058  1.0000
  C   C877      1.0  0.25504  0.39037  0.64281  1.0000
  C   C878      1.0  0.25726  0.41276  0.63798  1.0000
  C   C879      1.0  0.27471  0.42121  0.64104  1.0000
  C   C880      1.0  0.28980  0.40696  0.64898  1.0000
  C   C881      1.0  0.28777  0.38453  0.65366  1.0000
  H   H700      1.0  0.24144  0.38405  0.64041  1.0000
  H   H701      1.0  0.24544  0.42346  0.63194  1.0000
  H   H702      1.0  0.30310  0.41333  0.65162  1.0000
  H   H703      1.0  0.29960  0.37381  0.65967  1.0000
  C   C882      1.0  0.38927  0.26563  0.64312  1.0000
  C   C883      1.0  0.40479  0.26180  0.63104  1.0000
  C   C884      1.0  0.42316  0.24480  0.63175  1.0000
  C   C885      1.0  0.42626  0.23147  0.64462  1.0000
  C   C886      1.0  0.41072  0.23526  0.65672  1.0000
  C   C887      1.0  0.39232  0.25228  0.65598  1.0000
  H   H704      1.0  0.40253  0.27203  0.62108  1.0000
  H   H705      1.0  0.43505  0.24217  0.62237  1.0000
  H   H706      1.0  0.41302  0.22509  0.66674  1.0000
  H   H707      1.0  0.38070  0.25530  0.66540  1.0000
  C   C888      1.0  0.13386  0.02858  0.62526  1.0000
  C   C889      1.0  0.30942  0.02773  0.58858  1.0000
  C   C890      1.0  0.29591  0.01108  0.59259  1.0000
  H   H708      1.0  0.30292  0.04398  0.59119  1.0000
  H   H709      1.0  0.27918  0.01456  0.59822  1.0000
  C   C891      1.0  0.22337  0.21257  0.66444  1.0000
  C   C892      1.0  0.22612  0.23489  0.66111  1.0000
  C   C893      1.0  0.24476  0.24182  0.66409  1.0000
  C   C894      1.0  0.26087  0.22640  0.67034  1.0000
  C   C895      1.0  0.25817  0.20409  0.67355  1.0000
  C   C896      1.0  0.23950  0.19721  0.67070  1.0000
  H   H710      1.0  0.21372  0.24689  0.65626  1.0000
  H   H711      1.0  0.24663  0.25904  0.66155  1.0000
  H   H712      1.0  0.27034  0.19204  0.67853  1.0000
  H   H713      1.0  0.23749  0.18005  0.67347  1.0000
  C   C897      1.0  0.10388  0.15010  0.66320  1.0000
  C   C898      1.0  0.11599  0.15409  0.64964  1.0000
  C   C899      1.0  0.10495  0.16040  0.63798  1.0000
  C   C900      1.0  0.08171  0.16271  0.63974  1.0000
  C   C901      1.0  0.06951  0.15858  0.65327  1.0000
  C   C902      1.0  0.08061  0.15221  0.66497  1.0000
  H   H714      1.0  0.13383  0.15264  0.64812  1.0000
  H   H715      1.0  0.11448  0.16378  0.62756  1.0000
  H   H716      1.0  0.05160  0.16032  0.65471  1.0000
  H   H717      1.0  0.07113  0.14920  0.67544  1.0000
  C   C903      1.0  0.21107  0.07491  0.64460  1.0000
  C   C904      1.0  0.22396  0.06212  0.63476  1.0000
  C   C905      1.0  0.21972  0.04090  0.63455  1.0000
  C   C906      1.0  0.20254  0.03227  0.64422  1.0000
  C   C907      1.0  0.18935  0.04522  0.65387  1.0000
  C   C908      1.0  0.19352  0.06649  0.65405  1.0000
  H   H718      1.0  0.23751  0.06853  0.62738  1.0000
  H   H719      1.0  0.22998  0.03108  0.62707  1.0000
  H   H720      1.0  0.17592  0.03871  0.66125  1.0000
  H   H721      1.0  0.18341  0.07618  0.66163  1.0000
  C   C909      1.0  0.06541  0.06214  0.60789  1.0000
  C   C910      1.0  0.19124  0.11070  0.75382  1.0000
  C   C911      1.0  0.20326  0.11368  0.74006  1.0000
  C   C912      1.0  0.19260  0.11611  0.72839  1.0000
  C   C913      1.0  0.16970  0.11602  0.73056  1.0000
  C   C914      1.0  0.15774  0.11260  0.74435  1.0000
  H   H722      1.0  0.30627  0.44727  0.60612  1.0000
  H   H723      1.0  0.22096  0.11377  0.73846  1.0000
  H   H724      1.0  0.16132  0.11804  0.72163  1.0000
  H   H725      1.0  0.14016  0.11187  0.74596  1.0000
  H   H726      1.0  0.16196  0.06673  0.63117  1.0000
  C   C915      1.0  0.23159  0.04004  0.67348  1.0000
  C   C916      1.0  0.09948  0.02528  0.67214  1.0000
  H   H727      1.0  0.25689  0.34262  0.76592  1.0000
  H   H728      1.0  0.42527  0.31623  0.56772  1.0000
  C   C917      1.0  0.02726  0.12613  0.58300  1.0000
  C   C918      1.0  0.15475  0.17992  0.59478  1.0000
  C   C919      1.0  0.14295  0.19808  0.60079  1.0000
  C   C920      1.0  0.44838  0.10055  0.58338  1.0000
  H   H729      1.0  0.31091  0.32609  0.73415  1.0000
  H   H730      1.0  0.37199  0.03728  0.60858  1.0000
  C   C921      1.0  0.30993  0.33994  0.73947  1.0000
  C   C922      1.0  0.14151  0.10926  0.60559  1.0000
  C   C923      1.0  0.45791  0.10869  0.59281  1.0000
  H   H731      1.0  0.32756  0.47387  0.65473  1.0000
  S   S135      1.0  0.01326  0.24558  0.58734  1.0000
  C   C924      1.0  0.16114  0.18522  0.62118  1.0000
  C   C925      1.0  0.17306  0.16720  0.61509  1.0000
  C   C926      1.0  0.38827  0.39556  0.60029  1.0000
  C   C927      1.0  0.14140  0.21444  0.64903  1.0000
  H   H732      1.0  0.10808  0.26937  0.61253  1.0000
  C   C928      1.0  0.29921  0.12270  0.68309  1.0000
  C   C929      1.0  0.41666  0.41884  0.60820  1.0000
  H   H733      1.0  0.43760  0.16530  0.61638  1.0000
  H   H734      1.0  0.45879  0.27630  0.60076  1.0000
  C   C930      1.0  0.46248  0.13044  0.59002  1.0000
  H   H735      1.0  0.28638  0.12027  0.72700  1.0000
  C   C931      1.0  0.15830  0.27770  0.62420  1.0000
  C   C932      1.0  0.46347  0.33573  0.59987  1.0000
  H   H736      1.0  0.06229  0.21615  0.60650  1.0000
  C   C933      1.0  0.99413  0.26633  0.57911  1.0000
  H   H737      1.0  0.15206  0.04817  0.73435  1.0000
  C   C934      1.0  0.29568  0.16264  0.65550  1.0000
  C   C935      1.0  0.30043  0.14723  0.64640  1.0000
  C   C936      1.0  0.32109  0.14465  0.63770  1.0000
  C   C937      1.0  0.33686  0.15779  0.63788  1.0000
  C   C938      1.0  0.33206  0.17368  0.64680  1.0000
  C   C939      1.0  0.31150  0.17560  0.65586  1.0000
  P   P31       1.0  0.35150  0.19201  0.64660  1.0000
  C   C940      1.0  0.35364  0.19238  0.66458  1.0000
  C   C941      1.0  0.37884  0.18303  0.63718  1.0000
  C   C942      1.0  0.39755  0.17767  0.64396  1.0000
  C   C943      1.0  0.41864  0.17141  0.63644  1.0000
  C   C944      1.0  0.42126  0.17034  0.62215  1.0000
  C   C945      1.0  0.40288  0.17617  0.61524  1.0000
  C   C946      1.0  0.38181  0.18281  0.62266  1.0000
  C   C947      1.0  0.35722  0.21156  0.66854  1.0000
  C   C948      1.0  0.36036  0.21129  0.68228  1.0000
  C   C949      1.0  0.35962  0.19200  0.69218  1.0000
  C   C950      1.0  0.35595  0.17285  0.68832  1.0000
  C   C951      1.0  0.35314  0.17298  0.67454  1.0000
  C   C952      1.0  0.34181  0.21952  0.63804  1.0000
  C   C953      1.0  0.31898  0.22775  0.63894  1.0000
  C   C954      1.0  0.31176  0.24901  0.63226  1.0000
  C   C955      1.0  0.32720  0.26231  0.62466  1.0000
  C   C956      1.0  0.34990  0.25438  0.62382  1.0000
  C   C957      1.0  0.35722  0.23319  0.63058  1.0000
  H   H738      1.0  0.27962  0.16465  0.66220  1.0000
  H   H739      1.0  0.28803  0.13736  0.64607  1.0000
  H   H740      1.0  0.32479  0.13264  0.63066  1.0000
  H   H741      1.0  0.35266  0.15536  0.63103  1.0000
  H   H742      1.0  0.30750  0.18746  0.66302  1.0000
  H   H743      1.0  0.39614  0.17871  0.65496  1.0000
  H   H744      1.0  0.43308  0.16775  0.64164  1.0000
  H   H745      1.0  0.40509  0.17568  0.60408  1.0000
  H   H746      1.0  0.36780  0.18780  0.61709  1.0000
  H   H747      1.0  0.35780  0.22667  0.66101  1.0000
  H   H748      1.0  0.36338  0.22609  0.68524  1.0000
  H   H749      1.0  0.36191  0.19195  0.70282  1.0000
  H   H750      1.0  0.35557  0.15786  0.69598  1.0000
  H   H751      1.0  0.35087  0.15791  0.67158  1.0000
  H   H752      1.0  0.30658  0.21815  0.64497  1.0000
  H   H753      1.0  0.29413  0.25536  0.63330  1.0000
  H   H754      1.0  0.32158  0.27900  0.61981  1.0000
  H   H755      1.0  0.36187  0.26498  0.61836  1.0000
  H   H756      1.0  0.37492  0.22774  0.63017  1.0000
  C   C958      1.0  0.39406  0.33565  0.64216  1.0000
  C   C959      1.0  0.39759  0.35616  0.64402  1.0000
  C   C960      1.0  0.41596  0.36521  0.63612  1.0000
  C   C961      1.0  0.43097  0.35362  0.62648  1.0000
  C   C962      1.0  0.42743  0.33305  0.62445  1.0000
  C   C963      1.0  0.40881  0.32424  0.63237  1.0000
  H   H757      1.0  0.30821  0.20211  0.74146  1.0000
  C   C964      1.0  0.14875  0.07735  0.70705  1.0000
  C   C965      1.0  0.46461  0.29597  0.62227  1.0000
  H   H758      1.0  0.17981  0.19863  0.73251  1.0000
  C   C966      1.0  0.17011  0.05499  0.74906  1.0000
  H   H759      1.0  0.16915  0.16854  0.75174  1.0000
  H   H760      1.0  0.37995  0.32839  0.64836  1.0000
  H   H761      1.0  0.38610  0.36493  0.65164  1.0000
  H   H762      1.0  0.28374  0.17578  0.74060  1.0000
  H   H763      1.0  0.40575  0.30837  0.63110  1.0000
  H   H764      1.0  0.14645  0.00706  0.60974  1.0000
  H   H765      1.0  0.98701  0.09441  0.59672  1.0000
  C   C967      1.0  0.14363  0.99828  0.57302  1.0000
  C   C968      1.0  0.18667  0.04896  0.72529  1.0000
  H   H766      1.0  0.34698  0.34432  0.63576  1.0000
  C   C969      1.0  0.10394  0.21069  0.64741  1.0000
  C   C970      1.0  0.09974  0.20372  0.66195  1.0000
  C   C971      1.0  0.11640  0.20181  0.66999  1.0000
  C   C972      1.0  0.13716  0.20733  0.66354  1.0000
  H   H767      1.0  0.08379  0.19900  0.66694  1.0000
  H   H768      1.0  0.11336  0.19556  0.68117  1.0000
  H   H769      1.0  0.15017  0.20574  0.66974  1.0000
  H   H770      1.0  0.12584  0.05365  0.63866  1.0000
  S   S136      1.0  0.46275  0.20530  0.60563  1.0000
  C   C973      1.0  0.25029  0.25439  0.71974  1.0000
  C   C974      1.0  0.20746  0.05105  0.72802  1.0000
  H   H771      1.0  0.18488  0.15535  0.62062  1.0000
  C   C975      1.0  0.26921  0.11132  0.74792  1.0000
  C   C976      1.0  0.03959  0.11344  0.57287  1.0000
  C   C977      1.0  0.20128  0.20927  0.74371  1.0000
  C   C978      1.0  0.27354  0.12582  0.73528  1.0000
  C   C979      1.0  0.07858  0.26525  0.60580  1.0000
  P   P32       1.0  0.34945  0.42130  0.61128  1.0000
  H   H772      1.0  0.23724  0.02975  0.66540  1.0000
  C   C980      1.0  0.18078  0.10641  0.61638  1.0000
  H   H773      1.0  0.13173  0.21008  0.59494  1.0000
  Fe  Fe67      1.0  0.47368  0.20255  0.62638  1.0000
  C   C981      1.0  0.13583  0.06536  0.68426  1.0000
  H   H774      1.0  0.45816  0.04204  0.62276  1.0000
  H   H775      1.0  0.07927  0.02302  0.58676  1.0000
  C   C982      1.0  0.43045  0.27275  0.59258  1.0000
  C   C983      1.0  0.31233  0.13173  0.68978  1.0000
  C   C984      1.0  0.30415  0.98997  0.58937  1.0000
  H   H776      1.0  0.18856  0.17180  0.71086  1.0000
  C   C985      1.0  0.17582  0.27791  0.61286  1.0000
  C   C986      1.0  0.44723  0.13612  0.56836  1.0000
  H   H777      1.0  0.21640  0.29903  0.73109  1.0000
  H   H778      1.0  0.24219  0.28821  0.71005  1.0000
  H   H779      1.0  0.21778  0.00316  0.71238  1.0000
  H   H780      1.0  0.08069  0.98635  0.62771  1.0000
  Fe  Fe68      1.0  0.00607  0.21436  0.60250  1.0000
  C   C987      1.0  0.45683  0.14423  0.57780  1.0000
  C   C988      1.0  0.14096  0.11739  0.61801  1.0000
  H   H781      1.0  0.46203  0.09795  0.60227  1.0000
  H   H782      1.0  0.12296  0.10557  0.70456  1.0000
  C   C989      1.0  0.32595  0.98581  0.58198  1.0000
  C   C990      1.0  0.33668  0.39661  0.61743  1.0000
  C   C991      1.0  0.28470  0.18436  0.71805  1.0000
  H   H783      1.0  0.44524  0.08371  0.58561  1.0000
  H   H784      1.0  0.41812  0.37624  0.59113  1.0000
  H   H785      1.0  0.15422  0.08301  0.71531  1.0000
  C   C992      1.0  0.31054  0.46160  0.58428  1.0000
  H   H786      1.0  0.13113  0.26156  0.63575  1.0000
  C   C993      1.0  0.29387  0.19740  0.70576  1.0000
  C   C994      1.0  0.30024  0.35618  0.76083  1.0000
  H   H787      1.0  0.07316  0.28280  0.60304  1.0000
  C   C995      1.0  0.41078  0.31332  0.60073  1.0000
  C   C996      1.0  0.23996  0.05966  0.67215  1.0000
  H   H788      1.0  0.15547  0.28995  0.63102  1.0000
  C   C997      1.0  0.07882  0.03108  0.59563  1.0000
  C   C998      1.0  0.16954  0.02839  0.60987  1.0000
  C   C999      1.0  0.26116  0.14711  0.73337  1.0000
  P   P33       1.0  0.22721  0.22409  0.75930  1.0000
  H   H789      1.0  0.40851  0.01307  0.60491  1.0000
  C   C1000     1.0  0.27907  0.14993  0.70315  1.0000
  C   C1001     1.0  0.12508  0.13999  0.57224  1.0000
  C   C1002     1.0  0.43234  0.30402  0.60329  1.0000
  H   H790      1.0  0.23478  0.16996  0.74306  1.0000
  H   H791      1.0  0.31280  0.15164  0.70509  1.0000
  C   C1003     1.0  0.30707  0.21274  0.70645  1.0000
  C   C1004     1.0  0.07247  0.22772  0.60768  1.0000
  C   C1005     1.0  0.12468  0.08437  0.68951  1.0000
  C   C1006     1.0  0.33832  0.46111  0.62176  1.0000
  C   C1007     1.0  0.17415  0.04493  0.61600  1.0000
  H   H792      1.0  0.25160  0.21271  0.70464  1.0000
  H   H793      1.0  0.18582  0.21073  0.69861  1.0000
  C   C1008     1.0  0.31200  0.21463  0.71935  1.0000
  H   H794      1.0  0.16416  0.18706  0.63130  1.0000
  C   C1009     1.0  0.21827  0.21428  0.70166  1.0000
  H   H795      1.0  0.33844  0.46931  0.61101  1.0000
  C   C1010     1.0  0.30234  0.14517  0.69982  1.0000
  C   C1011     1.0  0.23793  0.20359  0.70647  1.0000
  C   C1012     1.0  0.19072  0.05763  0.75155  1.0000
  H   H796      1.0  0.13344  0.12531  0.56801  1.0000
  H   H797      1.0  0.14680  0.01708  0.71355  1.0000
  C   C1013     1.0  0.20949  0.20619  0.75641  1.0000
  H   H798      1.0  0.43805  0.28780  0.63944  1.0000
  H   H799      1.0  0.23776  0.08910  0.68088  1.0000
  H   H800      1.0  0.34607  0.41030  0.64198  1.0000
  H   H801      1.0  0.43724  0.47098  0.59413  1.0000
  C   C1014     1.0  0.10539  0.23477  0.61485  1.0000
  C   C1015     1.0  0.30392  0.20091  0.73155  1.0000
  C   C1016     1.0  0.14459  0.26154  0.62688  1.0000
  H   H802      1.0  0.22261  0.15327  0.71991  1.0000
  H   H803      1.0  0.30937  0.34364  0.63131  1.0000
  H   H804      1.0  0.06922  0.03494  0.68601  1.0000
  C   C1017     1.0  0.23198  0.24471  0.74385  1.0000
  H   H805      1.0  0.25866  0.00630  0.57067  1.0000
  C   C1018     1.0  0.21496  0.03436  0.68475  1.0000
  C   C1019     1.0  0.13801  0.04615  0.63080  1.0000
  H   H806      1.0  0.41872  0.38111  0.63758  1.0000
  H   H807      1.0  0.16913  0.23362  0.59990  1.0000
  H   H808      1.0  0.28912  0.37646  0.61806  1.0000
  H   H809      1.0  0.47108  0.07244  0.63017  1.0000
  H   H810      1.0  0.42768  0.42803  0.61112  1.0000
  C   C1020     1.0  0.24455  0.15368  0.74432  1.0000
  C   C1021     1.0  0.34802  0.37784  0.62501  1.0000
  S   S137      1.0  0.18303  0.99184  0.58278  1.0000
  C   C1022     1.0  0.07237  0.02907  0.65194  1.0000
  S   S138      1.0  0.47636  0.13888  0.60177  1.0000
  C   C1023     1.0  0.00102  0.28650  0.57248  1.0000
  S   S139      1.0  0.34776  0.04494  0.57703  1.0000
  C   C1024     1.0  0.09549  0.02350  0.64830  1.0000
  H   H811      1.0  0.37744  0.38663  0.59698  1.0000
  C   C1025     1.0  0.12189  0.99479  0.57318  1.0000
  H   H812      1.0  0.39964  0.27297  0.58565  1.0000
  C   C1026     1.0  0.15592  0.98645  0.58341  1.0000
  H   H813      1.0  0.10239  0.00552  0.60475  1.0000
  C   C1027     1.0  0.37925  0.41305  0.60775  1.0000
  H   H814      1.0  0.20795  0.01967  0.68514  1.0000
  C   C1028     1.0  0.21528  0.06786  0.69344  1.0000
  C   C1029     1.0  0.42551  0.40137  0.60082  1.0000
  C   C1030     1.0  0.32532  0.46455  0.57165  1.0000
  C   C1031     1.0  0.24026  0.13912  0.75694  1.0000
  H   H815      1.0  0.07812  0.06049  0.62688  1.0000
  C   C1032     1.0  0.22106  0.26654  0.74351  1.0000
  C   C1033     1.0  0.41131  0.38969  0.59691  1.0000
  C   C1034     1.0  0.40883  0.28181  0.59037  1.0000
  C   C1035     1.0  0.20193  0.99765  0.71351  1.0000
  H   H816      1.0  0.26175  0.24977  0.71055  1.0000
  C   C1036     1.0  0.31722  0.35817  0.62718  1.0000
  S   S140      1.0  0.03381  0.02096  0.57784  1.0000
  H   H817      1.0  0.12673  0.01580  0.65621  1.0000
  H   H818      1.0  0.38213  0.30900  0.59288  1.0000
  C   C1037     1.0  0.35460  0.44054  0.58278  1.0000
  C   C1038     1.0  0.25778  0.18665  0.76762  1.0000
  C   C1039     1.0  0.16850  0.10964  0.75604  1.0000
  H   H819      1.0  0.47214  0.04045  0.57757  1.0000
  H   H820      1.0  0.27862  0.09484  0.74930  1.0000
  H   H821      1.0  0.19319  0.26216  0.59534  1.0000
  H   H822      1.0  0.30693  0.11230  0.67531  1.0000
  C   C1040     1.0  0.45547  0.28421  0.63514  1.0000
  C   C1041     1.0  0.14957  0.02010  0.61453  1.0000
  H   H823      1.0  0.46121  0.25733  0.65206  1.0000
  C   C1042     1.0  0.13107  0.09030  0.70092  1.0000
  C   C1043     1.0  0.24662  0.23875  0.73189  1.0000
  C   C1044     1.0  0.20938  0.05564  0.74105  1.0000
  C   C1045     1.0  0.25410  0.20951  0.76292  1.0000
  C   C1046     1.0  0.31699  0.35940  0.73193  1.0000
  H   H824      1.0  0.40282  0.32890  0.60392  1.0000
  H   H825      1.0  0.44524  0.36081  0.62069  1.0000
  H   H826      1.0  0.19972  0.10853  0.76269  1.0000
  H   H827      1.0  0.46024  0.16098  0.57548  1.0000
  C   C1047     1.0  0.12488  0.21599  0.64079  1.0000
  C   C1048     1.0  0.15831  0.05394  0.62639  1.0000
  H   H828      1.0  0.30582  0.40997  0.60945  1.0000
  C   C1049     1.0  0.16588  0.24582  0.60675  1.0000
  H   H829      1.0  0.21720  0.23117  0.69621  1.0000
  P   P34       1.0  0.11650  0.11242  0.59811  1.0000
  C   C1050     1.0  0.11545  0.13862  0.58649  1.0000
  C   C1051     1.0  0.11644  0.09065  0.58851  1.0000
  C   C1052     1.0  0.10271  0.09418  0.57826  1.0000
  C   C1053     1.0  0.10274  0.07751  0.57067  1.0000
  C   C1054     1.0  0.11627  0.05714  0.57335  1.0000
  C   C1055     1.0  0.12944  0.05327  0.58383  1.0000
  C   C1056     1.0  0.12929  0.06985  0.59152  1.0000
  C   C1057     1.0  0.10561  0.15798  0.59181  1.0000
  C   C1058     1.0  0.10420  0.17836  0.58291  1.0000
  H   H830      1.0  0.13134  0.06116  0.67514  1.0000
  C   C1059     1.0  0.01444  0.08677  0.58030  1.0000
  C   C1060     1.0  0.09145  0.11231  0.61107  1.0000
  C   C1061     1.0  0.07089  0.12213  0.60704  1.0000
  C   C1062     1.0  0.05135  0.12215  0.61692  1.0000
  C   C1063     1.0  0.05219  0.11260  0.63093  1.0000
  C   C1064     1.0  0.07250  0.10239  0.63498  1.0000
  C   C1065     1.0  0.09202  0.10181  0.62503  1.0000
  H   H831      1.0  0.12555  0.12529  0.62343  1.0000
  H   H832      1.0  0.09190  0.10975  0.57616  1.0000
  H   H833      1.0  0.29039  0.19607  0.69564  1.0000
  C   C1066     1.0  0.33950  0.00243  0.57804  1.0000
  H   H834      1.0  0.13962  0.03729  0.58606  1.0000
  H   H835      1.0  0.13915  0.06639  0.59981  1.0000
  H   H836      1.0  0.09897  0.15726  0.60286  1.0000
  H   H837      1.0  0.09601  0.19313  0.58713  1.0000
  H   H838      1.0  0.31333  0.22330  0.69692  1.0000
  H   H839      1.0  0.06988  0.12996  0.59630  1.0000
  H   H840      1.0  0.03556  0.12990  0.61376  1.0000
  H   H841      1.0  0.03708  0.11325  0.63862  1.0000
  H   H842      1.0  0.07313  0.09502  0.64585  1.0000
  H   H843      1.0  0.10744  0.09326  0.62830  1.0000
  C   C1067     1.0  0.16977  0.16448  0.60194  1.0000
  H   H844      1.0  0.05018  0.25627  0.59995  1.0000
  C   C1068     1.0  0.14579  0.20070  0.61417  1.0000
  H   H845      1.0  0.98925  0.21725  0.57192  1.0000
  H   H846      1.0  0.24811  0.14339  0.69892  1.0000
  H   H847      1.0  0.29366  0.47033  0.58489  1.0000
  H   H848      1.0  0.16324  0.09570  0.58819  1.0000
  C   C1069     1.0  0.45782  0.34404  0.58649  1.0000
  C   C1070     1.0  0.25257  0.11798  0.75874  1.0000
  H   H849      1.0  0.44396  0.33918  0.58339  1.0000
  C   C1071     1.0  0.46862  0.26684  0.64241  1.0000
  H   H850      1.0  0.15234  0.17784  0.58454  1.0000
  H   H851      1.0  0.26661  0.39466  0.76522  1.0000
  H   H852      1.0  0.03214  0.14142  0.58385  1.0000
  P   P35       1.0  0.13085  0.22434  0.62192  1.0000
  H   H853      1.0  0.15985  0.12129  0.63333  1.0000
  C   C1072     1.0  0.44218  0.28382  0.59898  1.0000
  C   C1073     1.0  0.06562  0.25034  0.60404  1.0000
  H   H854      1.0  0.32206  0.22675  0.71987  1.0000
  H   H855      1.0  0.43816  0.25696  0.58953  1.0000
  C   C1074     1.0  0.39361  0.42470  0.61165  1.0000
  C   C1075     1.0  0.16044  0.11547  0.62355  1.0000
  C   C1076     1.0  0.33835  0.35871  0.62981  1.0000
  S   S141      1.0  0.00362  0.16243  0.63205  1.0000
  C   C1077     1.0  0.20060  0.20277  0.70299  1.0000
  H   H856      1.0  0.18657  0.29031  0.61089  1.0000
  H   H857      1.0  0.15778  0.21831  0.64426  1.0000
  C   C1078     1.0  0.14847  0.24530  0.61828  1.0000
  C   C1079     1.0  0.16215  0.10097  0.59818  1.0000
  H   H858      1.0  0.18149  0.02184  0.60154  1.0000
  C   C1080     1.0  0.33747  0.44098  0.64981  1.0000
  C   C1081     1.0  0.16812  0.05038  0.73606  1.0000
  H   H859      1.0  0.20854  0.07919  0.70079  1.0000
  H   H860      1.0  0.22221  0.04926  0.72014  1.0000
  C   C1082     1.0  0.09224  0.21998  0.61306  1.0000
  Fe  Fe69      1.0  0.48441  0.17216  0.60411  1.0000
  C   C1083     1.0  0.34274  0.42805  0.63915  1.0000
  C   C1084     1.0  0.07653  0.03162  0.67553  1.0000
  S   S142      1.0  0.98990  0.13643  0.60285  1.0000
  H   H861      1.0  0.32328  0.36060  0.72075  1.0000
  C   C1085     1.0  0.31622  0.37708  0.73884  1.0000
  C   C1086     1.0  0.33133  0.02348  0.58140  1.0000
  C   C1087     1.0  0.06556  0.05155  0.59663  1.0000
  C   C1088     1.0  0.39902  0.30213  0.59440  1.0000
  H   H862      1.0  0.09723  0.20241  0.61595  1.0000
  H   H863      1.0  0.99492  0.17783  0.58280  1.0000
  C   C1089     1.0  0.20221  0.18084  0.70972  1.0000
  Fe  Fe70      1.0  0.99809  0.16625  0.60966  1.0000
  H   H864      1.0  0.44338  0.39697  0.59803  1.0000
  C   C1090     1.0  0.09840  0.25753  0.61119  1.0000
  C   C1091     1.0  0.29015  0.18592  0.73097  1.0000
  C   C1092     1.0  0.26604  0.14059  0.69644  1.0000
  C   C1093     1.0  0.33294  0.47395  0.63243  1.0000
  C   C1094     1.0  0.15986  0.05806  0.70195  1.0000
  C   C1095     1.0  0.24000  0.18127  0.71274  1.0000
  H   H865      1.0  0.36425  0.37800  0.62735  1.0000
  H   H866      1.0  0.16226  0.03787  0.68607  1.0000
  H   H867      1.0  0.19753  0.09259  0.59802  1.0000
  C   C1096     1.0  0.46992  0.35897  0.57701  1.0000
  H   H868      1.0  0.33855  0.98217  0.61264  1.0000
  C   C1097     1.0  0.30811  0.37541  0.75327  1.0000
  C   C1098     1.0  0.47401  0.04699  0.61773  1.0000
  H   H869      1.0  0.25209  0.06454  0.66306  1.0000
  C   C1099     1.0  0.30582  0.37669  0.61968  1.0000
  H   H870      1.0  0.26582  0.12007  0.68134  1.0000
  H   H871      1.0  0.33654  0.43314  0.66071  1.0000
  H   H872      1.0  0.33026  0.12813  0.68725  1.0000
  H   H873      1.0  0.20593  0.22202  0.73505  1.0000
  C   C1100     1.0  0.31541  0.39583  0.61486  1.0000
  C   C1101     1.0  0.27608  0.12713  0.68644  1.0000
  C   C1102     1.0  0.34283  0.43800  0.62505  1.0000
  P   P36       1.0  0.26626  0.16583  0.71698  1.0000
  C   C1103     1.0  0.00185  0.09967  0.59019  1.0000
  C   C1104     1.0  0.15336  0.05224  0.69046  1.0000
  C   C1105     1.0  0.44312  0.11420  0.57102  1.0000
  H   H874      1.0  0.38709  0.43846  0.61722  1.0000
  C   C1106     1.0  0.22162  0.17032  0.71484  1.0000
  C   C1107     1.0  0.23181  0.07355  0.68213  1.0000
  H   H875      1.0  0.11155  0.09499  0.68447  1.0000
  H   H876      1.0  0.25514  0.22200  0.73194  1.0000
  H   H877      1.0  0.32208  0.39202  0.73301  1.0000
  P   P37       1.0  0.18397  0.04209  0.70877  1.0000
  C   C1108     1.0  0.20691  0.04811  0.69495  1.0000
  H   H878      1.0  0.26870  0.23926  0.75859  1.0000
  H   H879      1.0  0.48607  0.33651  0.61390  1.0000
  C   C1109     1.0  0.16207  0.00552  0.71409  1.0000
  C   C1110     1.0  0.18167  0.09938  0.60363  1.0000
  H   H880      1.0  0.01995  0.42564  0.57178  1.0000
  C   C1111     1.0  0.22471  0.28214  0.73132  1.0000
  H   H881      1.0  0.05532  0.07817  0.60851  1.0000
  C   C1112     1.0  0.18651  0.19593  0.74216  1.0000
  H   H882      1.0  0.33724  0.02153  0.61252  1.0000
  C   C1113     1.0  0.31777  0.44839  0.59625  1.0000
  C   C1114     1.0  0.30184  0.33819  0.75389  1.0000
  H   H883      1.0  0.37185  0.43302  0.58193  1.0000
  H   H884      1.0  0.05567  0.05927  0.58855  1.0000
  H   H885      1.0  0.00936  0.07162  0.57936  1.0000
  H   H886      1.0  0.10999  0.02356  0.68000  1.0000
  C   C1115     1.0  0.35316  0.01083  0.61132  1.0000
  C   C1116     1.0  0.18019  0.17920  0.75308  1.0000
  C   C1117     1.0  0.07824  0.05204  0.61830  1.0000
  H   H887      1.0  0.30817  0.38902  0.75855  1.0000
  H   H888      1.0  0.37543  0.46453  0.66740  1.0000
  C   C1118     1.0  0.09106  0.03114  0.61759  1.0000
  C   C1119     1.0  0.27112  0.22167  0.76227  1.0000
  H   H889      1.0  0.29702  0.32269  0.75956  1.0000
  C   C1120     1.0  0.00798  0.11954  0.59149  1.0000
  C   C1121     1.0  0.39329  0.00613  0.60688  1.0000
  C   C1122     1.0  0.10892  0.02100  0.65863  1.0000
  C   C1123     1.0  0.48149  0.34254  0.60359  1.0000
  C   C1124     1.0  0.16119  0.98289  0.71685  1.0000
  C   C1125     1.0  0.48134  0.06404  0.62193  1.0000
  H   H890      1.0  0.35625  0.99896  0.57246  1.0000
  H   H891      1.0  0.22729  0.14410  0.76536  1.0000
  C   C1126     1.0  0.34736  0.45410  0.57091  1.0000
  H   H892      1.0  0.48105  0.02358  0.60345  1.0000
  C   C1127     1.0  0.29078  0.21157  0.76724  1.0000
  H   H893      1.0  0.14525  0.98423  0.63847  1.0000
  H   H894      1.0  0.04513  0.03787  0.66817  1.0000
  C   C1128     1.0  0.99106  0.18250  0.57225  1.0000
  C   C1129     1.0  0.39425  0.98371  0.60674  1.0000
  H   H895      1.0  0.99271  0.14913  0.56961  1.0000
  H   H896      1.0  0.39650  0.47182  0.59802  1.0000
  C   C1130     1.0  0.18795  0.17636  0.76580  1.0000
  C   C1131     1.0  0.11274  0.98841  0.63250  1.0000
  C   C1132     1.0  0.35403  0.98837  0.61132  1.0000
  C   C1133     1.0  0.11233  0.97918  0.58364  1.0000
  H   H897      1.0  0.15565  0.05690  0.75719  1.0000
  H   H898      1.0  0.19211  0.06160  0.76156  1.0000
  H   H899      1.0  0.30329  0.22146  0.76732  1.0000
  C   C1134     1.0  0.09633  0.97730  0.63044  1.0000
  H   H900      1.0  0.14540  0.97716  0.71824  1.0000
  C   C1135     1.0  0.20224  0.19002  0.76748  1.0000
  Fe  Fe71      1.0  0.15927  0.10787  0.82301  1.0000
  S   S143      1.0  0.16098  0.07828  0.81280  1.0000
  S   S144      1.0  0.13528  0.11699  0.84228  1.0000
  Fe  Fe72      1.0  0.20081  0.12204  0.80400  1.0000
  S   S145      1.0  0.20634  0.09357  0.79227  1.0000
  H   H901      1.0  0.41833  0.06298  0.90297  1.0000
  Fe  Fe73      1.0  0.16961  0.10105  0.79231  1.0000
  Fe  Fe74      1.0  0.19756  0.07291  0.81356  1.0000
  S   S146      1.0  0.21932  0.04006  0.81956  1.0000
  S   S147      1.0  0.16451  0.13092  0.80262  1.0000
  S   S148      1.0  0.19541  0.10099  0.82521  1.0000
  H   H902      1.0  0.40270  0.32148  0.91158  1.0000
  Fe  Fe75      1.0  0.41844  0.39750  0.91160  1.0000
  S   S149      1.0  0.41081  0.36800  0.92764  1.0000
  S   S150      1.0  0.39972  0.41239  0.89353  1.0000
  Fe  Fe76      1.0  0.46115  0.39934  0.92192  1.0000
  S   S151      1.0  0.45702  0.36961  0.93881  1.0000
  Fe  Fe77      1.0  0.44694  0.35456  0.92248  1.0000
  H   H903      1.0  0.47729  0.20239  0.95805  1.0000
  Fe  Fe78      1.0  0.42117  0.38521  0.94281  1.0000
  S   S152      1.0  0.45402  0.38281  0.90532  1.0000
  S   S153      1.0  0.42586  0.41626  0.92705  1.0000
  C   C1136     1.0  0.22447  0.24076  0.78424  1.0000
  C   C1137     1.0  0.41432  0.28777  0.83059  1.0000
  H   H904      1.0  0.16421  0.14608  0.84347  1.0000
  H   H905      1.0  0.34236  0.19741  0.85513  1.0000
  S   S154      1.0  0.42250  0.20005  0.85595  1.0000
  C   C1138     1.0  0.30714  0.20545  0.86143  1.0000
  C   C1139     1.0  0.40265  0.44383  0.84735  1.0000
  C   C1140     1.0  0.14022  0.18226  0.82931  1.0000
  H   H906      1.0  0.43378  0.38492  0.87328  1.0000
  Fe  Fe79      1.0  0.28627  0.26400  0.82323  1.0000
  S   S155      1.0  0.30829  0.27774  0.80391  1.0000
  S   S156      1.0  0.26613  0.28280  0.84021  1.0000
  Fe  Fe80      1.0  0.29593  0.21795  0.81539  1.0000
  S   S157      1.0  0.31929  0.22789  0.79550  1.0000
  S   S158      1.0  0.28877  0.18317  0.82365  1.0000
  Fe  Fe81      1.0  0.33232  0.24667  0.80875  1.0000
  S   S159      1.0  0.36876  0.24944  0.80696  1.0000
  S   S160      1.0  0.31109  0.23416  0.82881  1.0000
  H   H907      1.0  0.38567  0.36769  0.86273  1.0000
  Fe  Fe82      1.0  0.28150  0.40788  0.88170  1.0000
  S   S161      1.0  0.29464  0.42011  0.85914  1.0000
  S   S162      1.0  0.30057  0.39553  0.89981  1.0000
  Fe  Fe83      1.0  0.23307  0.41435  0.87690  1.0000
  S   S163      1.0  0.24246  0.42711  0.85375  1.0000
  S   S164      1.0  0.19853  0.41515  0.89050  1.0000
  Fe  Fe84      1.0  0.27167  0.39951  0.85457  1.0000
  S   S165      1.0  0.28673  0.37904  0.83744  1.0000
  Fe  Fe85      1.0  0.26477  0.44673  0.86002  1.0000
  S   S166      1.0  0.26071  0.38531  0.87717  1.0000
  S   S167      1.0  0.25333  0.43600  0.88306  1.0000
  Fe  Fe86      1.0  0.05053  0.37414  0.93171  1.0000
  S   S168      1.0  0.04384  0.34154  0.94432  1.0000
  S   S169      1.0  0.02619  0.40182  0.94052  1.0000
  Fe  Fe87      1.0  0.09342  0.35292  0.91519  1.0000
  S   S170      1.0  0.08961  0.31872  0.92705  1.0000
  S   S171      1.0  0.12298  0.35567  0.89730  1.0000
  Fe  Fe88      1.0  0.05382  0.32778  0.92414  1.0000
  S   S172      1.0  0.02960  0.30654  0.92091  1.0000
  Fe  Fe89      1.0  0.07978  0.33542  0.94616  1.0000
  H   H908      1.0  0.04253  0.04321  0.86245  1.0000
  S   S173      1.0  0.05780  0.36122  0.91120  1.0000
  S   S174      1.0  0.08630  0.36878  0.93461  1.0000
  Fe  Fe90      1.0  0.01712  0.18454  0.85607  1.0000
  S   S175      1.0  0.02517  0.17447  0.87786  1.0000
  S   S176      1.0  0.03869  0.17062  0.83735  1.0000
  S   S177      1.0  0.27787  0.27154  0.77261  1.0000
  Fe  Fe91      1.0  0.01548  0.21058  0.87967  1.0000
  S   S178      1.0  0.04053  0.22722  0.88654  1.0000
  C   C1141     1.0  0.18806  0.21057  0.84220  1.0000
  S   S179      1.0  0.00943  0.22078  0.85730  1.0000
  C   C1142     1.0  0.00028  0.07524  0.91742  1.0000
  C   C1143     1.0  0.01483  0.42609  0.93027  1.0000
  C   C1144     1.0  0.02009  0.43000  0.91560  1.0000
  C   C1145     1.0  0.00986  0.44936  0.90790  1.0000
  C   C1146     1.0  0.46725  0.10671  0.92963  1.0000
  H   H909      1.0  0.03173  0.41797  0.91022  1.0000
  C   C1147     1.0  0.30517  0.16246  0.85837  1.0000
  C   C1148     1.0  0.32580  0.16991  0.85546  1.0000
  H   H910      1.0  0.27994  0.15896  0.77648  1.0000
  C   C1149     1.0  0.13772  0.03647  0.85979  1.0000
  H   H911      1.0  0.42543  0.27713  0.82387  1.0000
  H   H912      1.0  0.08354  0.03899  0.89359  1.0000
  C   C1150     1.0  0.13641  0.05689  0.85095  1.0000
  C   C1151     1.0  0.03301  0.28509  0.91080  1.0000
  C   C1152     1.0  0.05380  0.27629  0.90398  1.0000
  C   C1153     1.0  0.05570  0.25879  0.89649  1.0000
  C   C1154     1.0  0.03688  0.25000  0.89558  1.0000
  C   C1155     1.0  0.01604  0.25911  0.90217  1.0000
  C   C1156     1.0  0.01416  0.27652  0.90975  1.0000
  H   H913      1.0  0.06845  0.28269  0.90469  1.0000
  H   H914      1.0  0.07191  0.25191  0.89144  1.0000
  C   C1157     1.0  0.16660  0.19475  0.80355  1.0000
  H   H915      1.0  0.31629  0.37315  0.79515  1.0000
  C   C1158     1.0  0.17807  0.39801  0.89235  1.0000
  C   C1159     1.0  0.17909  0.38359  0.88296  1.0000
  C   C1160     1.0  0.16217  0.37068  0.88468  1.0000
  C   C1161     1.0  0.14413  0.37191  0.89583  1.0000
  C   C1162     1.0  0.14331  0.38606  0.90535  1.0000
  C   C1163     1.0  0.16012  0.39912  0.90356  1.0000
  H   H916      1.0  0.19273  0.38263  0.87426  1.0000
  H   H917      1.0  0.16299  0.35976  0.87727  1.0000
  H   H918      1.0  0.12975  0.38693  0.91409  1.0000
  H   H919      1.0  0.15922  0.41015  0.91091  1.0000
  C   C1164     1.0  0.27254  0.30912  0.84006  1.0000
  C   C1165     1.0  0.29215  0.31569  0.83213  1.0000
  C   C1166     1.0  0.29646  0.33705  0.83164  1.0000
  C   C1167     1.0  0.28143  0.35188  0.83927  1.0000
  C   C1168     1.0  0.26211  0.34514  0.84755  1.0000
  C   C1169     1.0  0.25765  0.32382  0.84790  1.0000
  H   H920      1.0  0.30394  0.30439  0.82626  1.0000
  H   H921      1.0  0.31149  0.34210  0.82533  1.0000
  H   H922      1.0  0.25033  0.35658  0.85333  1.0000
  H   H923      1.0  0.24237  0.31889  0.85396  1.0000
  C   C1170     1.0  0.40770  0.21574  0.84269  1.0000
  C   C1171     1.0  0.41870  0.22515  0.82970  1.0000
  C   C1172     1.0  0.40654  0.23582  0.81893  1.0000
  C   C1173     1.0  0.38333  0.23715  0.82104  1.0000
  C   C1174     1.0  0.37232  0.22837  0.83417  1.0000
  C   C1175     1.0  0.38446  0.21775  0.84494  1.0000
  H   H924      1.0  0.43661  0.22367  0.82782  1.0000
  H   H925      1.0  0.41520  0.24265  0.80882  1.0000
  H   H926      1.0  0.35449  0.22963  0.83602  1.0000
  H   H927      1.0  0.37582  0.21118  0.85509  1.0000
  C   C1176     1.0  0.45966  0.30805  0.90562  1.0000
  S   S180      1.0  0.26936  0.24686  0.81135  1.0000
  C   C1177     1.0  0.37886  0.34020  0.89876  1.0000
  C   C1178     1.0  0.98707  0.36080  0.92797  1.0000
  H   H928      1.0  0.05313  0.44663  0.87660  1.0000
  H   H929      1.0  0.98965  0.34877  0.93730  1.0000
  C   C1179     1.0  0.19640  0.24639  0.84359  1.0000
  C   C1180     1.0  0.37258  0.40656  0.89521  1.0000
  C   C1181     1.0  0.36137  0.39737  0.90816  1.0000
  C   C1182     1.0  0.33946  0.39357  0.90933  1.0000
  C   C1183     1.0  0.32857  0.39909  0.89761  1.0000
  C   C1184     1.0  0.33989  0.40800  0.88461  1.0000
  C   C1185     1.0  0.36180  0.41181  0.88345  1.0000
  H   H930      1.0  0.36943  0.39349  0.91732  1.0000
  H   H931      1.0  0.33078  0.38670  0.91942  1.0000
  H   H932      1.0  0.33163  0.41246  0.87554  1.0000
  H   H933      1.0  0.37022  0.41927  0.87349  1.0000
  C   C1186     1.0  0.26861  0.32286  0.79893  1.0000
  C   C1187     1.0  0.23615  0.16031  0.80562  1.0000
  H   H934      1.0  0.31563  0.11432  0.82314  1.0000
  C   C1188     1.0  0.25644  0.18920  0.80714  1.0000
  C   C1189     1.0  0.26789  0.17481  0.81704  1.0000
  C   C1190     1.0  0.26281  0.15336  0.82163  1.0000
  C   C1191     1.0  0.24696  0.14608  0.81591  1.0000
  C   C1192     1.0  0.25261  0.30893  0.80361  1.0000
  C   C1193     1.0  0.28661  0.19823  0.86376  1.0000
  H   H935      1.0  0.27152  0.14221  0.82936  1.0000
  H   H936      1.0  0.24368  0.12931  0.81909  1.0000
  C   C1194     1.0  0.20881  0.01555  0.82809  1.0000
  C   C1195     1.0  0.18624  0.01556  0.83348  1.0000
  C   C1196     1.0  0.17868  0.99584  0.84058  1.0000
  H   H937      1.0  0.01936  0.00462  0.89063  1.0000
  H   H938      1.0  0.00179  0.10888  0.86086  1.0000
  C   C1197     1.0  0.22368  0.99565  0.82985  1.0000
  H   H939      1.0  0.17463  0.03074  0.83215  1.0000
  H   H940      1.0  0.16119  0.99597  0.84466  1.0000
  C   C1198     1.0  0.12165  0.19522  0.88088  1.0000
  H   H941      1.0  0.24114  0.99545  0.82565  1.0000
  C   C1199     1.0  0.10906  0.13293  0.84041  1.0000
  C   C1200     1.0  0.09642  0.14247  0.85180  1.0000
  C   C1201     1.0  0.07510  0.15459  0.85087  1.0000
  C   C1202     1.0  0.06610  0.15699  0.83859  1.0000
  C   C1203     1.0  0.07903  0.14797  0.82707  1.0000
  C   C1204     1.0  0.10040  0.13587  0.82797  1.0000
  H   H942      1.0  0.10310  0.14046  0.86142  1.0000
  H   H943      1.0  0.06559  0.16189  0.85969  1.0000
  H   H944      1.0  0.07239  0.15028  0.81744  1.0000
  H   H945      1.0  0.11006  0.12868  0.81909  1.0000
  H   H946      1.0  0.44815  0.33936  0.89369  1.0000
  C   C1205     1.0  0.39150  0.29156  0.83036  1.0000
  C   C1206     1.0  0.37705  0.30457  0.83942  1.0000
  C   C1207     1.0  0.38530  0.31335  0.84911  1.0000
  P   P38       1.0  0.36640  0.32862  0.86165  1.0000
  C   C1208     1.0  0.36209  0.35699  0.85300  1.0000
  C   C1209     1.0  0.34033  0.31811  0.86631  1.0000
  C   C1210     1.0  0.32018  0.33239  0.86901  1.0000
  C   C1211     1.0  0.29996  0.32449  0.87135  1.0000
  C   C1212     1.0  0.29972  0.30228  0.87118  1.0000
  C   C1213     1.0  0.31970  0.28778  0.86920  1.0000
  C   C1214     1.0  0.33995  0.29557  0.86698  1.0000
  C   C1215     1.0  0.37379  0.37247  0.85557  1.0000
  C   C1216     1.0  0.36983  0.39451  0.84911  1.0000
  C   C1217     1.0  0.35437  0.40122  0.83995  1.0000
  C   C1218     1.0  0.34320  0.38577  0.83699  1.0000
  C   C1219     1.0  0.34715  0.36371  0.84338  1.0000
  C   C1220     1.0  0.37692  0.32559  0.87795  1.0000
  H   H947      1.0  0.38495  0.28400  0.82335  1.0000
  H   H948      1.0  0.35941  0.30728  0.83907  1.0000
  H   H949      1.0  0.31996  0.34973  0.86902  1.0000
  H   H950      1.0  0.28448  0.33577  0.87294  1.0000
  H   H951      1.0  0.28408  0.29633  0.87245  1.0000
  H   H952      1.0  0.35529  0.28410  0.86540  1.0000
  C   C1221     1.0  0.03077  0.03448  0.89130  1.0000
  H   H953      1.0  0.33103  0.39098  0.83000  1.0000
  H   H954      1.0  0.33806  0.35207  0.84108  1.0000
  H   H955      1.0  0.35695  0.35567  0.88408  1.0000
  C   C1222     1.0  0.19963  0.41648  0.92672  1.0000
  C   C1223     1.0  0.22021  0.42279  0.92056  1.0000
  C   C1224     1.0  0.23849  0.40682  0.91720  1.0000
  C   C1225     1.0  0.23614  0.38458  0.91975  1.0000
  C   C1226     1.0  0.21562  0.37804  0.92615  1.0000
  C   C1227     1.0  0.19733  0.39417  0.92959  1.0000
  P   P39       1.0  0.21307  0.34914  0.92971  1.0000
  C   C1228     1.0  0.22448  0.33753  0.91389  1.0000
  C   C1229     1.0  0.22729  0.33465  0.94405  1.0000
  C   C1230     1.0  0.22129  0.31459  0.95164  1.0000
  Fe  Fe92      1.0  0.98893  0.17152  0.88434  1.0000
  H   H956      1.0  0.14293  0.34456  0.96342  1.0000
  P   P40       1.0  0.26337  0.98493  0.86679  1.0000
  C   C1231     1.0  0.24426  0.34311  0.94781  1.0000
  C   C1232     1.0  0.23442  0.31533  0.91458  1.0000
  C   C1233     1.0  0.24195  0.30625  0.90225  1.0000
  C   C1234     1.0  0.23945  0.31920  0.88918  1.0000
  C   C1235     1.0  0.22970  0.34131  0.88842  1.0000
  C   C1236     1.0  0.22237  0.35047  0.90070  1.0000
  C   C1237     1.0  0.18416  0.34581  0.93471  1.0000
  C   C1238     1.0  0.17250  0.34102  0.92510  1.0000
  C   C1239     1.0  0.15059  0.33712  0.92940  1.0000
  C   C1240     1.0  0.14005  0.33829  0.94320  1.0000
  C   C1241     1.0  0.32634  0.45461  0.89709  1.0000
  C   C1242     1.0  0.17328  0.34736  0.94852  1.0000
  H   H957      1.0  0.18530  0.42894  0.92884  1.0000
  H   H958      1.0  0.22190  0.44008  0.91799  1.0000
  H   H959      1.0  0.25441  0.41168  0.91226  1.0000
  H   H960      1.0  0.25038  0.37256  0.91660  1.0000
  H   H961      1.0  0.18111  0.38977  0.93404  1.0000
  H   H962      1.0  0.20836  0.30764  0.94888  1.0000
  C   C1243     1.0  0.28309  0.98639  0.83851  1.0000
  C   C1244     1.0  0.25288  0.41487  0.78107  1.0000
  C   C1245     1.0  0.29403  0.18894  0.77232  1.0000
  H   H963      1.0  0.24944  0.35841  0.94218  1.0000
  H   H964      1.0  0.23620  0.30492  0.92457  1.0000
  H   H965      1.0  0.24953  0.28910  0.90281  1.0000
  H   H966      1.0  0.24492  0.31212  0.87964  1.0000
  H   H967      1.0  0.22769  0.35139  0.87831  1.0000
  H   H968      1.0  0.21477  0.36762  0.89989  1.0000
  H   H969      1.0  0.18013  0.34024  0.91428  1.0000
  H   H970      1.0  0.14171  0.33323  0.92198  1.0000
  H   H971      1.0  0.47253  0.37463  0.87719  1.0000
  H   H972      1.0  0.05921  0.47179  0.89123  1.0000
  H   H973      1.0  0.18182  0.35131  0.95606  1.0000
  C   C1246     1.0  0.05821  0.33945  0.88085  1.0000
  C   C1247     1.0  0.06670  0.35774  0.87253  1.0000
  C   C1248     1.0  0.05218  0.37660  0.86797  1.0000
  C   C1249     1.0  0.02917  0.37726  0.87184  1.0000
  C   C1250     1.0  0.02054  0.35873  0.87992  1.0000
  C   C1251     1.0  0.03525  0.34000  0.88462  1.0000
  C   C1252     1.0  0.99524  0.02161  0.92896  1.0000
  C   C1253     1.0  0.39876  0.45388  0.83386  1.0000
  P   P41       1.0  0.99106  0.35997  0.88607  1.0000
  H   H974      1.0  0.12989  0.17694  0.83920  1.0000
  H   H975      1.0  0.05769  0.41066  0.95588  1.0000
  C   C1254     1.0  0.04818  0.02095  0.82763  1.0000
  H   H976      1.0  0.00853  0.02964  0.92245  1.0000
  C   C1255     1.0  0.31530  0.34335  0.78728  1.0000
  C   C1256     1.0  0.99433  0.46476  0.91484  1.0000
  S   S181      1.0  0.47085  0.23634  0.84272  1.0000
  H   H977      1.0  0.15419  0.17711  0.87578  1.0000
  H   H978      1.0  0.45378  0.08473  0.88959  1.0000
  H   H979      1.0  0.18294  0.16354  0.77438  1.0000
  C   C1257     1.0  0.45606  0.31352  0.88096  1.0000
  C   C1258     1.0  0.46718  0.28553  0.90519  1.0000
  C   C1259     1.0  0.48387  0.03502  0.87773  1.0000
  H   H980      1.0  0.06939  0.32500  0.88472  1.0000
  H   H981      1.0  0.08454  0.35739  0.86988  1.0000
  H   H982      1.0  0.05880  0.39085  0.86166  1.0000
  H   H983      1.0  0.01821  0.39231  0.86872  1.0000
  H   H984      1.0  0.02902  0.32593  0.89143  1.0000
  C   C1260     1.0  0.99980  0.44177  0.93717  1.0000
  H   H985      1.0  0.20668  0.37574  0.96489  1.0000
  C   C1261     1.0  0.17805  0.24976  0.78879  1.0000
  H   H986      1.0  0.14125  0.18671  0.79417  1.0000
  C   C1262     1.0  0.24487  0.04941  0.84932  1.0000
  C   C1263     1.0  0.17624  0.14517  0.85022  1.0000
  H   H987      1.0  0.18093  0.25931  0.80818  1.0000
  H   H988      1.0  0.34969  0.35787  0.80582  1.0000
  C   C1264     1.0  0.42729  0.11059  0.86231  1.0000
  C   C1265     1.0  0.05451  0.99870  0.89193  1.0000
  H   H989      1.0  0.24981  0.07912  0.85529  1.0000
  H   H990      1.0  0.09365  0.23302  0.85807  1.0000
  C   C1266     1.0  0.32756  0.11223  0.83019  1.0000
  H   H991      1.0  0.26019  0.20574  0.80352  1.0000
  H   H992      1.0  0.48170  0.13591  0.92649  1.0000
  H   H993      1.0  0.48091  0.15201  0.88215  1.0000
  S   S182      1.0  0.45803  0.31814  0.92143  1.0000
  C   C1267     1.0  0.42982  0.05209  0.90917  1.0000
  C   C1268     1.0  0.16034  0.18958  0.82906  1.0000
  H   H994      1.0  0.26970  0.17120  0.86393  1.0000
  C   C1269     1.0  0.21055  0.20410  0.83679  1.0000
  H   H995      1.0  0.15302  0.02923  0.86376  1.0000
  C   C1270     1.0  0.38283  0.47664  0.85663  1.0000
  C   C1271     1.0  0.42754  0.00756  0.89034  1.0000
  C   C1272     1.0  0.46925  0.27704  0.89267  1.0000
  C   C1273     1.0  0.08193  0.45121  0.93312  1.0000
  C   C1274     1.0  0.09272  0.45790  0.94248  1.0000
  C   C1275     1.0  0.07906  0.44653  0.90413  1.0000
  C   C1276     1.0  0.08815  0.42409  0.90640  1.0000
  C   C1277     1.0  0.08461  0.40997  0.89801  1.0000
  C   C1278     1.0  0.07205  0.41803  0.88727  1.0000
  C   C1279     1.0  0.06301  0.44036  0.88487  1.0000
  H   H996      1.0  0.16388  0.23734  0.84969  1.0000
  H   H997      1.0  0.02784  0.02898  0.95207  1.0000
  H   H998      1.0  0.46579  0.44940  0.92991  1.0000
  H   H999      1.0  0.31949  0.27056  0.86910  1.0000
  H   H1000     1.0  0.27916  0.32450  0.80607  1.0000
  H   H1001     1.0  0.09802  0.41749  0.91464  1.0000
  H   H1002     1.0  0.09164  0.39273  0.89983  1.0000
  H   H1003     1.0  0.06932  0.40689  0.88089  1.0000
  H   H1004     1.0  0.24518  0.42813  0.77385  1.0000
  H   H1005     1.0  0.30789  0.22221  0.86244  1.0000
  C   C1280     1.0  0.48394  0.35852  0.85894  1.0000
  C   C1281     1.0  0.25941  0.39913  0.80470  1.0000
  H   H1006     1.0  0.24039  0.43108  0.79914  1.0000
  C   C1282     1.0  0.06048  0.03719  0.82820  1.0000
  C   C1283     1.0  0.33947  0.09142  0.83426  1.0000
  H   H1007     1.0  0.32067  0.31210  0.77994  1.0000
  C   C1284     1.0  0.03378  0.01293  0.83954  1.0000
  H   H1008     1.0  0.04969  0.01476  0.81789  1.0000
  C   C1285     1.0  0.43974  0.37076  0.85431  1.0000
  S   S183      1.0  0.15336  0.10332  0.77319  1.0000
  C   C1286     1.0  0.44694  0.01365  0.86632  1.0000
  C   C1287     1.0  0.44158  0.01946  0.87982  1.0000
  H   H1009     1.0  0.47903  0.14188  0.84584  1.0000
  P   P42       1.0  0.45419  0.04077  0.88379  1.0000
  H   H1010     1.0  0.24324  0.21327  0.83116  1.0000
  C   C1288     1.0  0.44310  0.06799  0.87545  1.0000
  C   C1289     1.0  0.43857  0.99610  0.86345  1.0000
  H   H1011     1.0  0.23632  0.05801  0.84071  1.0000
  H   H1012     1.0  0.20832  0.10662  0.87034  1.0000
  C   C1290     1.0  0.42453  0.09215  0.85721  1.0000
  C   C1291     1.0  0.43236  0.07091  0.86376  1.0000
  H   H1013     1.0  0.18942  0.20085  0.81544  1.0000
  H   H1014     1.0  0.00769  0.09405  0.89674  1.0000
  C   C1292     1.0  0.98940  0.46095  0.92952  1.0000
  C   C1293     1.0  0.17360  0.19563  0.81606  1.0000
  H   H1015     1.0  0.00815  0.32362  0.86999  1.0000
  C   C1294     1.0  0.44896  0.03966  0.90265  1.0000
  H   H1016     1.0  0.16233  0.45263  0.89149  1.0000
  C   C1295     1.0  0.15130  0.34358  0.95274  1.0000
  H   H1017     1.0  0.21708  0.99956  0.86178  1.0000
  C   C1296     1.0  0.45821  0.02304  0.92568  1.0000
  C   C1297     1.0  0.46293  0.02494  0.91104  1.0000
  C   C1298     1.0  0.25249  0.06126  0.85753  1.0000
  C   C1299     1.0  0.25502  0.33167  0.95895  1.0000
  C   C1300     1.0  0.45549  0.35937  0.84495  1.0000
  H   H1018     1.0  0.45811  0.02229  0.85815  1.0000
  C   C1301     1.0  0.42514  0.05019  0.92383  1.0000
  H   H1019     1.0  0.35082  0.41841  0.83527  1.0000
  C   C1302     1.0  0.11688  0.06612  0.84559  1.0000
  H   H1020     1.0  0.37840  0.40650  0.85144  1.0000
  H   H1021     1.0  0.41649  0.09433  0.84810  1.0000
  H   H1022     1.0  0.43006  0.05693  0.85961  1.0000
  H   H1023     1.0  0.40490  0.44511  0.82506  1.0000
  H   H1024     1.0  0.36881  0.31975  0.80370  1.0000
  C   C1303     1.0  0.21880  0.23968  0.83846  1.0000
  P   P43       1.0  0.29047  0.35370  0.77956  1.0000
  H   H1025     1.0  0.05022  0.29638  0.96640  1.0000
  C   C1304     1.0  0.48460  0.19257  0.94989  1.0000
  H   H1026     1.0  0.39711  0.44687  0.86918  1.0000
  C   C1305     1.0  0.21297  0.24883  0.79638  1.0000
  H   H1027     1.0  0.46908  0.01152  0.93207  1.0000
  H   H1028     1.0  0.20771  0.18803  0.77747  1.0000
  H   H1029     1.0  0.12049  0.00963  0.87029  1.0000
  H   H1030     1.0  0.44052  0.29460  0.83978  1.0000
  H   H1031     1.0  0.43979  0.12218  0.87796  1.0000
  H   H1032     1.0  0.47156  0.27463  0.91455  1.0000
  C   C1306     1.0  0.43770  0.10784  0.87402  1.0000
  C   C1307     1.0  0.14134  0.18952  0.87174  1.0000
  H   H1033     1.0  0.12232  0.07785  0.79517  1.0000
  H   H1034     1.0  0.22967  0.31703  0.77401  1.0000
  C   C1308     1.0  0.10713  0.22106  0.86186  1.0000
  C   C1309     1.0  0.32675  0.32220  0.78566  1.0000
  H   H1035     1.0  0.99746  0.37063  0.85529  1.0000
  C   C1310     1.0  0.02307  0.07786  0.93418  1.0000
  C   C1311     1.0  0.03551  0.09129  0.92370  1.0000
  C   C1312     1.0  0.03008  0.09699  0.91017  1.0000
  H   H1036     1.0  0.26828  0.33819  0.96165  1.0000
  H   H1037     1.0  0.45159  0.32440  0.87162  1.0000
  C   C1313     1.0  0.22584  0.21855  0.83505  1.0000
  C   C1314     1.0  0.04422  0.03705  0.85271  1.0000
  C   C1315     1.0  0.46376  0.29105  0.88049  1.0000
  P   P44       1.0  0.08374  0.46481  0.91498  1.0000
  H   H1038     1.0  0.02079  0.01454  0.86136  1.0000
  C   C1316     1.0  0.23871  0.30667  0.79461  1.0000
  H   H1039     1.0  0.32594  0.44212  0.90645  1.0000
  H   H1040     1.0  0.21636  0.18780  0.83402  1.0000
  H   H1041     1.0  0.36017  0.20449  0.80532  1.0000
  H   H1042     1.0  0.19101  0.26276  0.84628  1.0000
  C   C1317     1.0  0.12683  0.21551  0.85270  1.0000
  C   C1318     1.0  0.27769  0.17643  0.77228  1.0000
  H   H1043     1.0  0.01459  0.04452  0.89070  1.0000
  C   C1319     1.0  0.34331  0.34791  0.80017  1.0000
  H   H1044     1.0  0.45836  0.11263  0.92085  1.0000
  H   H1045     1.0  0.02678  0.07467  0.94476  1.0000
  H   H1046     1.0  0.04880  0.09802  0.92619  1.0000
  H   H1047     1.0  0.03900  0.10825  0.90224  1.0000
  H   H1048     1.0  0.25108  0.29979  0.81421  1.0000
  H   H1049     1.0  0.36476  0.07292  0.84598  1.0000
  C   C1320     1.0  0.25946  0.01486  0.86316  1.0000
  H   H1050     1.0  0.03712  0.47155  0.92819  1.0000
  C   C1321     1.0  0.39175  0.18809  0.81062  1.0000
  H   H1051     1.0  0.02864  0.45044  0.96695  1.0000
  H   H1052     1.0  0.42268  0.37529  0.85262  1.0000
  C   C1322     1.0  0.19724  0.97893  0.87699  1.0000
  C   C1323     1.0  0.12811  0.45809  0.90155  1.0000
  S   S184      1.0  0.08838  0.31988  0.96765  1.0000
  C   C1324     1.0  0.18978  0.25322  0.79870  1.0000
  C   C1325     1.0  0.39228  0.30704  0.88218  1.0000
  C   C1326     1.0  0.44557  0.08664  0.88057  1.0000
  C   C1327     1.0  0.40841  0.31070  0.84858  1.0000
  H   H1053     1.0  0.11947  0.18730  0.89178  1.0000
  C   C1328     1.0  0.34573  0.46366  0.89146  1.0000
  H   H1054     1.0  0.48448  0.41507  0.94719  1.0000
  H   H1055     1.0  0.36571  0.11133  0.89660  1.0000
  C   C1329     1.0  0.36958  0.34171  0.88668  1.0000
  H   H1056     1.0  0.41539  0.31811  0.85544  1.0000
  H   H1057     1.0  0.47724  0.01462  0.90631  1.0000
  H   H1058     1.0  0.26960  0.05922  0.87487  1.0000
  C   C1330     1.0  0.26363  0.05003  0.86853  1.0000
  C   C1331     1.0  0.99160  0.00184  0.92589  1.0000
  C   C1332     1.0  0.06650  0.45460  0.89324  1.0000
  C   C1333     1.0  0.30868  0.47613  0.87788  1.0000
  H   H1059     1.0  0.47464  0.11323  0.88749  1.0000
  C   C1334     1.0  0.03195  0.02082  0.85212  1.0000
  H   H1060     1.0  0.32214  0.14664  0.83154  1.0000
  C   C1335     1.0  0.42280  0.29758  0.83956  1.0000
  C   C1336     1.0  0.99418  0.31914  0.87784  1.0000
  C   C1337     1.0  0.18949  0.24160  0.77665  1.0000
  C   C1338     1.0  0.24047  0.18202  0.80160  1.0000
  P   P45       1.0  0.16872  0.19119  0.84537  1.0000
  H   H1061     1.0  0.39743  0.29373  0.87612  1.0000
  H   H1062     1.0  0.02330  0.27387  0.96336  1.0000
  C   C1339     1.0  0.32665  0.19140  0.85722  1.0000
  H   H1063     1.0  0.08909  0.21497  0.88295  1.0000
  C   C1340     1.0  0.41925  0.99003  0.88742  1.0000
  C   C1341     1.0  0.40156  0.30564  0.89423  1.0000
  H   H1064     1.0  0.33672  0.07726  0.83042  1.0000
  H   H1065     1.0  0.40113  0.19718  0.80160  1.0000
  C   C1342     1.0  0.10452  0.21087  0.87592  1.0000
  P   P46       1.0  0.35132  0.15222  0.84998  1.0000
  H   H1066     1.0  0.99799  0.28324  0.91493  1.0000
  C   C1343     1.0  0.33115  0.13054  0.83507  1.0000
  H   H1067     1.0  0.36025  0.45754  0.89647  1.0000
  C   C1344     1.0  0.28564  0.17671  0.86231  1.0000
  C   C1345     1.0  0.11938  0.02539  0.86338  1.0000
  H   H1068     1.0  0.15055  0.06564  0.84817  1.0000
  S   S185      1.0  0.21897  0.15128  0.79636  1.0000
  C   C1346     1.0  0.35970  0.12895  0.87619  1.0000
  H   H1069     1.0  0.27146  0.20941  0.86653  1.0000
  H   H1070     1.0  0.24255  0.01761  0.84545  1.0000
  C   C1347     1.0  0.36542  0.14578  0.86505  1.0000
  H   H1071     1.0  0.11618  0.08195  0.83873  1.0000
  H   H1072     1.0  0.23074  0.25082  0.83722  1.0000
  C   C1348     1.0  0.35522  0.08899  0.84306  1.0000
  H   H1073     1.0  0.33830  0.18536  0.82632  1.0000
  C   C1349     1.0  0.47840  0.07748  0.94813  1.0000
  C   C1350     1.0  0.13329  0.18145  0.81677  1.0000
  H   H1074     1.0  0.11778  0.17573  0.81707  1.0000
  H   H1075     1.0  0.30397  0.14587  0.85741  1.0000
  C   C1351     1.0  0.38080  0.15873  0.86635  1.0000
  C   C1352     1.0  0.34625  0.12812  0.84438  1.0000
  C   C1353     1.0  0.48069  0.11989  0.93287  1.0000
  H   H1076     1.0  0.21915  0.14047  0.87484  1.0000
  C   C1354     1.0  0.43934  0.03564  0.93209  1.0000
  C   C1355     1.0  0.09978  0.03459  0.85799  1.0000
  H   H1077     1.0  0.41409  0.29174  0.89712  1.0000
  H   H1078     1.0  0.24241  0.23750  0.78283  1.0000
  C   C1356     1.0  0.35882  0.10732  0.84797  1.0000
  C   C1357     1.0  0.18107  0.23190  0.84550  1.0000
  H   H1079     1.0  0.43436  0.40642  0.96652  1.0000
  C   C1358     1.0  0.09425  0.10380  0.79659  1.0000
  C   C1359     1.0  0.06959  0.03136  0.89293  1.0000
  C   C1360     1.0  0.27538  0.37874  0.78548  1.0000
  H   H1080     1.0  0.18041  0.10978  0.85485  1.0000
  C   C1361     1.0  0.38585  0.13702  0.88907  1.0000
  H   H1081     1.0  0.23187  0.19321  0.79385  1.0000
  C   C1362     1.0  0.39511  0.32236  0.90241  1.0000
  H   H1082     1.0  0.04682  0.06195  0.89164  1.0000
  C   C1363     1.0  0.36857  0.19234  0.81278  1.0000
  H   H1083     1.0  0.48509  0.99969  0.88002  1.0000
  C   C1364     1.0  0.37010  0.12441  0.88807  1.0000
  H   H1084     1.0  0.08581  0.02575  0.86085  1.0000
  H   H1085     1.0  0.22671  0.29546  0.79814  1.0000
  H   H1086     1.0  0.34702  0.11951  0.87577  1.0000
  C   C1365     1.0  0.06846  0.10112  0.81863  1.0000
  C   C1366     1.0  0.09848  0.05500  0.84894  1.0000
  C   C1367     1.0  0.06885  0.43447  0.93821  1.0000
  H   H1087     1.0  0.99217  0.33626  0.91476  1.0000
  H   H1088     1.0  0.07141  0.04323  0.81881  1.0000
  H   H1089     1.0  0.38484  0.17246  0.85827  1.0000
  C   C1368     1.0  0.19765  0.16254  0.86169  1.0000
  Fe  Fe93      1.0  0.45584  0.20873  0.85716  1.0000
  H   H1090     1.0  0.40295  0.16444  0.87906  1.0000
  C   C1369     1.0  0.39107  0.15427  0.87824  1.0000
  H   H1091     1.0  0.39378  0.13367  0.89831  1.0000
  H   H1092     1.0  0.20211  0.17715  0.86404  1.0000
  H   H1093     1.0  0.16005  0.25318  0.79058  1.0000
  H   H1094     1.0  0.37362  0.35297  0.90524  1.0000
  H   H1095     1.0  0.37153  0.10522  0.85441  1.0000
  C   C1370     1.0  0.20113  0.12272  0.86542  1.0000
  C   C1371     1.0  0.18553  0.12445  0.85665  1.0000
  H   H1096     1.0  0.45056  0.35494  0.83603  1.0000
  C   C1372     1.0  0.27094  0.33452  0.78515  1.0000
  C   C1373     1.0  0.36723  0.16644  0.83470  1.0000
  H   H1097     1.0  0.45663  0.07498  0.93417  1.0000
  C   C1374     1.0  0.03310  0.09063  0.85245  1.0000
  C   C1375     1.0  0.35629  0.18165  0.82479  1.0000
  H   H1098     1.0  0.41037  0.05977  0.92882  1.0000
  H   H1099     1.0  0.42347  0.01114  0.90095  1.0000
  H   H1100     1.0  0.28545  0.00305  0.83851  1.0000
  H   H1101     1.0  0.01378  0.45231  0.89655  1.0000
  C   C1376     1.0  0.32411  0.35642  0.79423  1.0000
  C   C1377     1.0  0.45405  0.32202  0.89345  1.0000
  H   H1102     1.0  0.02553  0.08306  0.84599  1.0000
  H   H1103     1.0  0.39933  0.14933  0.83937  1.0000
  C   C1378     1.0  0.01252  0.08890  0.90704  1.0000
  H   H1104     1.0  0.05367  0.10828  0.82505  1.0000
  Fe  Fe94      1.0  0.29361  0.25816  0.79224  1.0000
  H   H1105     1.0  0.22212  0.25153  0.80403  1.0000
  C   C1379     1.0  0.39053  0.16149  0.83214  1.0000
  S   S186      1.0  0.46064  0.21835  0.87713  1.0000
  H   H1106     1.0  0.44314  0.99133  0.85314  1.0000
  C   C1380     1.0  0.01957  0.10529  0.86083  1.0000
  C   C1381     1.0  0.20721  0.14177  0.86794  1.0000
  H   H1107     1.0  0.12845  0.22339  0.84179  1.0000
  C   C1382     1.0  0.24038  0.31884  0.78102  1.0000
  C   C1383     1.0  0.10715  0.08418  0.80169  1.0000
  H   H1108     1.0  0.43567  0.03392  0.94345  1.0000
  C   C1384     1.0  0.08151  0.08150  0.82390  1.0000
  S   S187      1.0  0.46691  0.28135  0.86439  1.0000
  H   H1109     1.0  0.09209  0.98343  0.86796  1.0000
  P   P47       1.0  0.07363  0.06703  0.84152  1.0000
  C   C1385     1.0  0.05829  0.04565  0.84069  1.0000
  C   C1386     1.0  0.40275  0.17263  0.82028  1.0000
  H   H1110     1.0  0.42145  0.12706  0.85719  1.0000
  H   H1111     1.0  0.42074  0.16958  0.81867  1.0000
  C   C1387     1.0  0.05620  0.08618  0.85225  1.0000
  C   C1388     1.0  0.24834  0.02637  0.85211  1.0000
  C   C1389     1.0  0.26530  0.39596  0.77617  1.0000
  C   C1390     1.0  0.02898  0.11582  0.86891  1.0000
  C   C1391     1.0  0.07838  0.43046  0.96139  1.0000
  C   C1392     1.0  0.06554  0.09700  0.86033  1.0000
  C   C1393     1.0  0.06740  0.42393  0.95220  1.0000
  C   C1394     1.0  0.23205  0.30322  0.96278  1.0000
  H   H1112     1.0  0.29318  0.45300  0.89436  1.0000
  S   S188      1.0  0.39997  0.38213  0.96454  1.0000
  C   C1395     1.0  0.24894  0.31173  0.96642  1.0000
  H   H1113     1.0  0.11109  0.05780  0.81898  1.0000
  C   C1396     1.0  0.99728  0.04773  0.96116  1.0000
  C   C1397     1.0  0.04885  0.04431  0.89192  1.0000
  C   C1398     1.0  0.14403  0.19952  0.85754  1.0000
  C   C1399     1.0  0.26711  0.02694  0.87134  1.0000
  H   H1114     1.0  0.09955  0.11262  0.78617  1.0000
  C   C1400     1.0  0.05193  0.11166  0.86867  1.0000
  H   H1115     1.0  0.08335  0.09464  0.85996  1.0000
  H   H1116     1.0  0.06488  0.12747  0.80106  1.0000
  C   C1401     1.0  0.07479  0.11214  0.80499  1.0000
  H   H1117     1.0  0.05928  0.12044  0.87458  1.0000
  C   C1402     1.0  0.18228  0.16438  0.85262  1.0000
  H   H1118     1.0  0.00145  0.25249  0.90163  1.0000
  H   H1119     1.0  0.09939  0.45267  0.96370  1.0000
  H   H1120     1.0  0.24906  0.10673  0.76851  1.0000
  H   H1121     1.0  0.35438  0.29711  0.79061  1.0000
  C   C1403     1.0  0.21730  0.98622  0.87058  1.0000
  C   C1404     1.0  0.10078  0.07298  0.81524  1.0000
  C   C1405     1.0  0.42485  0.98420  0.87403  1.0000
  C   C1406     1.0  0.03359  0.01180  0.89122  1.0000
  H   H1122     1.0  0.02393  0.00069  0.83900  1.0000
  H   H1123     1.0  0.01850  0.12756  0.87515  1.0000
  H   H1124     1.0  0.12493  0.44307  0.89903  1.0000
  H   H1125     1.0  0.17694  0.19930  0.79361  1.0000
  C   C1407     1.0  0.46627  0.08546  0.93715  1.0000
  H   H1126     1.0  0.27592  0.01873  0.87983  1.0000
  C   C1408     1.0  0.35410  0.32649  0.79897  1.0000
  C   C1409     1.0  0.39446  0.45506  0.85872  1.0000
  H   H1127     1.0  0.41182  0.42727  0.84909  1.0000
  C   C1410     1.0  0.09095  0.44753  0.95655  1.0000
  H   H1128     1.0  0.08851  0.99887  0.89420  1.0000
  C   C1411     1.0  0.38671  0.47517  0.83175  1.0000
  H   H1129     1.0  0.05985  0.42940  0.93136  1.0000
  H   H1130     1.0  0.25699  0.40016  0.81581  1.0000
  C   C1412     1.0  0.14647  0.18770  0.80388  1.0000
  C   C1413     1.0  0.47755  0.35342  0.84717  1.0000
  C   C1414     1.0  0.00535  0.06972  0.93109  1.0000
  C   C1415     1.0  0.07238  0.00862  0.89312  1.0000
  C   C1416     1.0  0.27172  0.38020  0.79985  1.0000
  H   H1131     1.0  0.04461  0.98240  0.91997  1.0000
  C   C1417     1.0  0.44602  0.37623  0.86591  1.0000
  H   H1132     1.0  0.12314  0.33509  0.94650  1.0000
  Fe  Fe95      1.0  0.47720  0.24507  0.86259  1.0000
  H   H1133     1.0  0.30925  0.47063  0.83988  1.0000
  H   H1134     1.0  0.27830  0.36669  0.80740  1.0000
  H   H1135     1.0  0.26306  0.98558  0.89653  1.0000
  H   H1136     1.0  0.47990  0.21986  0.93296  1.0000
  C   C1418     1.0  0.14951  0.46344  0.89722  1.0000
  C   C1419     1.0  0.48609  0.20245  0.93577  1.0000
  C   C1420     1.0  0.25008  0.41652  0.79531  1.0000
  C   C1421     1.0  0.01807  0.03432  0.96156  1.0000
  H   H1137     1.0  0.00147  0.99509  0.91692  1.0000
  C   C1422     1.0  0.46804  0.37023  0.86817  1.0000
  C   C1423     1.0  0.34597  0.31374  0.79158  1.0000
  H   H1138     1.0  0.99658  0.28758  0.87146  1.0000
  H   H1139     1.0  0.29841  0.98722  0.81679  1.0000
  C   C1424     1.0  0.48182  0.45421  0.92533  1.0000
  C   C1425     1.0  0.98753  0.29879  0.87851  1.0000
  C   C1426     1.0  0.21281  0.23671  0.77436  1.0000
  H   H1140     1.0  0.30905  0.18119  0.77648  1.0000
  C   C1427     1.0  0.98861  0.35374  0.91514  1.0000
  H   H1141     1.0  0.44629  0.47087  0.88553  1.0000
  H   H1142     1.0  0.43235  0.47655  0.91012  1.0000
  H   H1143     1.0  0.10254  0.47105  0.93898  1.0000
  C   C1428     1.0  0.01854  0.46649  0.96552  1.0000
  H   H1144     1.0  0.18207  0.98654  0.87297  1.0000
  H   H1145     1.0  0.47522  0.25971  0.89242  1.0000
  C   C1429     1.0  0.42874  0.47637  0.88882  1.0000
  H   H1146     1.0  0.99612  0.43895  0.94849  1.0000
  H   H1147     1.0  0.40921  0.98028  0.89573  1.0000
  C   C1430     1.0  0.25615  0.33303  0.77639  1.0000
  C   C1431     1.0  0.30788  0.46069  0.89026  1.0000
  H   H1148     1.0  0.09746  0.36498  0.96403  1.0000
  H   H1149     1.0  0.47789  0.06087  0.95383  1.0000
  C   C1432     1.0  0.11136  0.47197  0.90898  1.0000
  H   H1150     1.0  0.24513  0.17669  0.76836  1.0000
  C   C1433     1.0  0.29078  0.97737  0.82618  1.0000
  H   H1151     1.0  0.18009  0.23881  0.76917  1.0000
  H   H1152     1.0  0.42521  0.93110  0.07748  1.0000
  H   H1153     1.0  0.44208  0.50734  0.97196  1.0000
  S   S189      1.0  0.46569  0.68155  0.10213  1.0000
  S   S190      1.0  0.42542  0.67602  0.13698  1.0000
  Fe  Fe96      1.0  0.46194  0.86454  0.04880  1.0000
  Fe  Fe97      1.0  0.42149  0.89183  0.06290  1.0000
  S   S191      1.0  0.42067  0.91887  0.04427  1.0000
  S   S192      1.0  0.39828  0.89117  0.08375  1.0000
  Fe  Fe98      1.0  0.42746  0.89174  0.03127  1.0000
  S   S193      1.0  0.40563  0.89819  0.01429  1.0000
  Fe  Fe99      1.0  0.45768  0.91488  0.04294  1.0000
  S   S194      1.0  0.42546  0.86483  0.05022  1.0000
  S   S195      1.0  0.45797  0.89000  0.06273  1.0000
  C   C1434     1.0  0.03264  0.70748  0.05958  1.0000
  P   P48       1.0  0.40507  0.49736  0.06036  1.0000
  H   H1154     1.0  0.03048  0.91685  0.96863  1.0000
  Fe  Fe100     1.0  0.26324  0.92111  0.13122  1.0000
  S   S196      1.0  0.25682  0.91492  0.11078  1.0000
  S   S197      1.0  0.27392  0.89474  0.14896  1.0000
  Fe  Fe101     1.0  0.27651  0.94238  0.10138  1.0000
  S   S198      1.0  0.30041  0.94127  0.08105  1.0000
  Fe  Fe102     1.0  0.22751  0.94180  0.11318  1.0000
  S   S199      1.0  0.19316  0.93866  0.10869  1.0000
  S   S200      1.0  0.28573  0.94620  0.12156  1.0000
  S   S201      1.0  0.23268  0.94658  0.13454  1.0000
  C   C1435     1.0  0.32911  0.49888  0.06968  1.0000
  S   S202      1.0  0.19750  0.61282  0.14055  1.0000
  C   C1436     1.0  0.46567  0.54295  0.10634  1.0000
  H   H1155     1.0  0.45771  0.54968  0.05355  1.0000
  Fe  Fe103     1.0  0.16399  0.63228  0.14734  1.0000
  S   S203      1.0  0.14372  0.64848  0.13006  1.0000
  C   C1437     1.0  0.28051  0.85091  0.15957  1.0000
  H   H1156     1.0  0.37614  0.95805  0.14240  1.0000
  C   C1438     1.0  0.08018  0.92764  0.98334  1.0000
  Fe  Fe104     1.0  0.12507  0.87406  0.06900  1.0000
  S   S204      1.0  0.09590  0.86604  0.08568  1.0000
  S   S205      1.0  0.15907  0.87770  0.07404  1.0000
  Fe  Fe105     1.0  0.10030  0.86861  0.04517  1.0000
  S   S206      1.0  0.06995  0.86026  0.06053  1.0000
  S   S207      1.0  0.10260  0.87326  0.02118  1.0000
  Fe  Fe106     1.0  0.07466  0.88793  0.07061  1.0000
  S   S208      1.0  0.04490  0.91222  0.07831  1.0000
  Fe  Fe107     1.0  0.09371  0.83914  0.07404  1.0000
  S   S209      1.0  0.09148  0.80391  0.08529  1.0000
  S   S210      1.0  0.10377  0.89773  0.05463  1.0000
  S   S211      1.0  0.12418  0.84560  0.05807  1.0000
  C   C1439     1.0  0.40500  0.55699  0.07181  1.0000
  Fe  Fe108     1.0  0.01762  0.67864  0.11987  1.0000
  S   S212      1.0  0.02871  0.68698  0.09650  1.0000
  S   S213      1.0  0.03827  0.66250  0.13700  1.0000
  H   H1157     1.0  0.05805  0.70029  0.14842  1.0000
  Fe  Fe109     1.0  0.00569  0.71925  0.09831  1.0000
  S   S214      1.0  0.00946  0.75462  0.08792  1.0000
  C   C1440     1.0  0.39839  0.53755  0.07027  1.0000
  C   C1441     1.0  0.08897  0.86188  0.01055  1.0000
  C   C1442     1.0  0.09229  0.86895  0.99588  1.0000
  C   C1443     1.0  0.08231  0.86002  0.98700  1.0000
  C   C1444     1.0  0.06906  0.84365  0.99268  1.0000
  C   C1445     1.0  0.06520  0.83709  0.00737  1.0000
  C   C1446     1.0  0.07505  0.84609  0.01626  1.0000
  H   H1158     1.0  0.10297  0.88116  0.99133  1.0000
  H   H1159     1.0  0.47737  0.51425  0.97672  1.0000
  H   H1160     1.0  0.05479  0.82466  0.01185  1.0000
  H   H1161     1.0  0.07222  0.84050  0.02750  1.0000
  C   C1447     1.0  0.06834  0.79060  0.08612  1.0000
  C   C1448     1.0  0.07060  0.76756  0.08993  1.0000
  C   C1449     1.0  0.05262  0.75633  0.09083  1.0000
  C   C1450     1.0  0.03216  0.76809  0.08785  1.0000
  C   C1451     1.0  0.02981  0.79119  0.08420  1.0000
  C   C1452     1.0  0.04778  0.80242  0.08333  1.0000
  H   H1162     1.0  0.08647  0.75835  0.09202  1.0000
  H   H1163     1.0  0.05463  0.73858  0.09356  1.0000
  H   H1164     1.0  0.01401  0.80048  0.08206  1.0000
  H   H1165     1.0  0.04572  0.82017  0.08046  1.0000
  H   H1166     1.0  0.47551  0.94982  0.00604  1.0000
  C   C1453     1.0  0.01583  0.94924  0.06995  1.0000
  C   C1454     1.0  0.03499  0.93449  0.06584  1.0000
  C   C1455     1.0  0.04599  0.93778  0.05193  1.0000
  C   C1456     1.0  0.03785  0.95562  0.04220  1.0000
  H   H1167     1.0  0.27734  0.66631  0.15040  1.0000
  H   H1168     1.0  0.06068  0.92649  0.04861  1.0000
  C   C1457     1.0  0.21846  0.78976  0.15900  1.0000
  C   C1458     1.0  0.19491  0.53357  0.14557  1.0000
  C   C1459     1.0  0.19395  0.51082  0.14934  1.0000
  C   C1460     1.0  0.19737  0.49710  0.13903  1.0000
  C   C1461     1.0  0.20189  0.50594  0.12473  1.0000
  C   C1462     1.0  0.20253  0.52875  0.12095  1.0000
  C   C1463     1.0  0.19906  0.54248  0.13127  1.0000
  H   H1169     1.0  0.09223  0.75906  0.15821  1.0000
  H   H1170     1.0  0.20594  0.53584  0.10995  1.0000
  H   H1171     1.0  0.20001  0.55985  0.12815  1.0000
  C   C1464     1.0  0.06764  0.65787  0.13477  1.0000
  C   C1465     1.0  0.07810  0.64913  0.14655  1.0000
  C   C1466     1.0  0.10143  0.64551  0.14523  1.0000
  C   C1467     1.0  0.11448  0.65082  0.13211  1.0000
  C   C1468     1.0  0.10404  0.65911  0.12029  1.0000
  C   C1469     1.0  0.08072  0.66253  0.12159  1.0000
  C   C1470     1.0  0.44890  0.94279  0.99740  1.0000
  H   H1172     1.0  0.10928  0.63894  0.15439  1.0000
  H   H1173     1.0  0.11407  0.66300  0.11009  1.0000
  H   H1174     1.0  0.07283  0.66884  0.11243  1.0000
  C   C1471     1.0  0.16799  0.89453  0.08406  1.0000
  C   C1472     1.0  0.19063  0.89140  0.08540  1.0000
  C   C1473     1.0  0.19857  0.90456  0.09292  1.0000
  C   C1474     1.0  0.18402  0.92114  0.09926  1.0000
  C   C1475     1.0  0.16133  0.92397  0.09816  1.0000
  C   C1476     1.0  0.15337  0.91083  0.09065  1.0000
  H   H1175     1.0  0.20217  0.87878  0.08053  1.0000
  H   H1176     1.0  0.21594  0.90196  0.09376  1.0000
  H   H1177     1.0  0.14981  0.93663  0.10304  1.0000
  H   H1178     1.0  0.13593  0.91349  0.08982  1.0000
  H   H1179     1.0  0.08277  0.54718  0.12476  1.0000
  H   H1180     1.0  0.44429  0.77300  0.06133  1.0000
  C   C1477     1.0  0.13365  0.58998  0.11931  1.0000
  C   C1478     1.0  0.41173  0.88833  0.99801  1.0000
  C   C1479     1.0  0.39863  0.89814  0.98759  1.0000
  C   C1480     1.0  0.40201  0.89012  0.97479  1.0000
  C   C1481     1.0  0.41820  0.87183  0.97241  1.0000
  C   C1482     1.0  0.43150  0.86219  0.98276  1.0000
  C   C1483     1.0  0.42850  0.87056  0.99542  1.0000
  H   H1181     1.0  0.38568  0.91194  0.98948  1.0000
  H   H1182     1.0  0.99440  0.48171  0.09704  1.0000
  H   H1183     1.0  0.44402  0.84798  0.98104  1.0000
  H   H1184     1.0  0.43870  0.86287  0.00333  1.0000
  C   C1484     1.0  0.37102  0.90487  0.08291  1.0000
  C   C1485     1.0  0.35581  0.90649  0.09539  1.0000
  C   C1486     1.0  0.33396  0.91738  0.09497  1.0000
  C   C1487     1.0  0.32736  0.92690  0.08203  1.0000
  C   C1488     1.0  0.34259  0.92534  0.06957  1.0000
  C   C1489     1.0  0.36436  0.91426  0.07000  1.0000
  H   H1185     1.0  0.36105  0.89959  0.10540  1.0000
  H   H1186     1.0  0.32234  0.91866  0.10462  1.0000
  H   H1187     1.0  0.33761  0.93291  0.05957  1.0000
  H   H1188     1.0  0.37598  0.91307  0.06033  1.0000
  H   H1189     1.0  0.43121  0.71457  0.14759  1.0000
  H   H1190     1.0  0.26669  0.83193  0.12759  1.0000
  C   C1490     1.0  0.45907  0.58719  0.11471  1.0000
  H   H1191     1.0  0.16340  0.70102  0.15784  1.0000
  H   H1192     1.0  0.44623  0.51576  0.05074  1.0000
  H   H1193     1.0  0.17514  0.62557  0.09453  1.0000
  C   C1491     1.0  0.11385  0.69967  0.14678  1.0000
  H   H1194     1.0  0.26491  0.87187  0.12780  1.0000
  C   C1492     1.0  0.26465  0.66936  0.15933  1.0000
  C   C1493     1.0  0.01494  0.80118  0.99868  1.0000
  C   C1494     1.0  0.00838  0.47684  0.03044  1.0000
  C   C1495     1.0  0.46667  0.50407  0.11615  1.0000
  H   H1195     1.0  0.10361  0.48943  0.04258  1.0000
  C   C1496     1.0  0.05425  0.57106  0.12052  1.0000
  C   C1497     1.0  0.17338  0.70850  0.12773  1.0000
  C   C1498     1.0  0.38658  0.68773  0.15457  1.0000
  C   C1499     1.0  0.40793  0.69266  0.14863  1.0000
  C   C1500     1.0  0.41473  0.71076  0.15195  1.0000
  C   C1501     1.0  0.11733  0.73399  0.11295  1.0000
  H   H1196     1.0  0.38134  0.67355  0.15224  1.0000
  C   C1502     1.0  0.08757  0.58007  0.12605  1.0000
  H   H1197     1.0  0.09422  0.97519  0.05262  1.0000
  H   H1198     1.0  0.43153  0.57651  0.06691  1.0000
  C   C1503     1.0  0.45211  0.62173  0.12383  1.0000
  C   C1504     1.0  0.27458  0.86673  0.14819  1.0000
  C   C1505     1.0  0.26952  0.85985  0.13664  1.0000
  C   C1506     1.0  0.27047  0.83721  0.13656  1.0000
  S   S215      1.0  0.19120  0.54983  0.15916  1.0000
  C   C1507     1.0  0.11654  0.71570  0.09357  1.0000
  C   C1508     1.0  0.17108  0.70653  0.16522  1.0000
  H   H1199     1.0  0.02622  0.89357  0.05484  1.0000
  C   C1509     1.0  0.08589  0.71620  0.11310  1.0000
  C   C1510     1.0  0.08320  0.92300  0.96970  1.0000
  C   C1511     1.0  0.03769  0.76564  0.99687  1.0000
  P   P49       1.0  0.36874  0.96561  0.11301  1.0000
  C   C1512     1.0  0.02100  0.48062  0.05569  1.0000
  C   C1513     1.0  0.00205  0.96676  0.00290  1.0000
  C   C1514     1.0  0.03189  0.78058  0.01858  1.0000
  C   C1515     1.0  0.04139  0.76372  0.01066  1.0000
  P   P50       1.0  0.03782  0.77830  0.03614  1.0000
  C   C1516     1.0  0.01770  0.79726  0.04571  1.0000
  C   C1517     1.0  0.03610  0.75047  0.04525  1.0000
  C   C1518     1.0  0.43443  0.96063  0.08125  1.0000
  C   C1519     1.0  0.15150  0.51896  0.11300  1.0000
  C   C1520     1.0  0.25092  0.96644  0.06424  1.0000
  C   C1521     1.0  0.47449  0.52399  0.11498  1.0000
  C   C1522     1.0  0.00141  0.55215  0.08326  1.0000
  H   H1200     1.0  0.22957  0.87787  0.16517  1.0000
  H   H1201     1.0  0.03523  0.55511  0.08351  1.0000
  C   C1523     1.0  0.01664  0.75364  0.13932  1.0000
  C   C1524     1.0  0.12048  0.52603  0.13708  1.0000
  C   C1525     1.0  0.00005  0.78985  0.05568  1.0000
  C   C1526     1.0  0.06510  0.78512  0.03532  1.0000
  C   C1527     1.0  0.08076  0.78549  0.02287  1.0000
  C   C1528     1.0  0.10115  0.79234  0.02216  1.0000
  C   C1529     1.0  0.10615  0.79871  0.03387  1.0000
  C   C1530     1.0  0.09086  0.79799  0.04636  1.0000
  C   C1531     1.0  0.07043  0.79123  0.04709  1.0000
  C   C1532     1.0  0.00059  0.90333  0.99359  1.0000
  C   C1533     1.0  0.43451  0.52717  0.05663  1.0000
  C   C1534     1.0  0.33991  0.50326  0.05579  1.0000
  H   H1202     1.0  0.45489  0.91038  0.97258  1.0000
  H   H1203     1.0  0.05198  0.74925  0.01508  1.0000
  H   H1204     1.0  0.44143  0.55628  0.09258  1.0000
  H   H1205     1.0  0.16400  0.51616  0.10387  1.0000
  H   H1206     1.0  0.05221  0.87732  0.03546  1.0000
  C   C1535     1.0  0.41313  0.52251  0.06263  1.0000
  H   H1207     1.0  0.02807  0.59847  0.11664  1.0000
  S   S216      1.0  0.05796  0.82984  0.98205  1.0000
  C   C1536     1.0  0.14952  0.78843  0.14128  1.0000
  H   H1208     1.0  0.03090  0.88012  0.98948  1.0000
  C   C1537     1.0  0.24104  0.94828  0.07145  1.0000
  C   C1538     1.0  0.05922  0.92831  0.99179  1.0000
  H   H1209     1.0  0.07706  0.78138  0.01349  1.0000
  H   H1210     1.0  0.11278  0.79343  0.01235  1.0000
  H   H1211     1.0  0.12169  0.80462  0.03319  1.0000
  H   H1212     1.0  0.09467  0.80304  0.05543  1.0000
  H   H1213     1.0  0.05865  0.79106  0.05678  1.0000
  C   C1539     1.0  0.20955  0.67481  0.12425  1.0000
  C   C1540     1.0  0.19017  0.67445  0.11921  1.0000
  C   C1541     1.0  0.17214  0.69135  0.12089  1.0000
  H   H1214     1.0  0.09420  0.93018  0.98754  1.0000
  H   H1215     1.0  0.22319  0.66119  0.12346  1.0000
  H   H1216     1.0  0.18876  0.66064  0.11447  1.0000
  H   H1217     1.0  0.15688  0.69060  0.11736  1.0000
  P   P51       1.0  0.01442  0.92339  0.99785  1.0000
  C   C1542     1.0  0.22180  0.73829  0.13847  1.0000
  C   C1543     1.0  0.40100  0.94608  0.09316  1.0000
  C   C1544     1.0  0.31430  0.89459  0.01446  1.0000
  C   C1545     1.0  0.33559  0.89757  0.01557  1.0000
  Fe  Fe110     1.0  0.99820  0.67346  0.09458  1.0000
  C   C1546     1.0  0.32308  0.90059  0.04013  1.0000
  C   C1547     1.0  0.30173  0.89729  0.03916  1.0000
  C   C1548     1.0  0.29736  0.89450  0.02621  1.0000
  P   P52       1.0  0.28051  0.89662  0.05463  1.0000
  C   C1549     1.0  0.29367  0.87969  0.06880  1.0000
  C   C1550     1.0  0.26950  0.92404  0.05845  1.0000
  C   C1551     1.0  0.25028  0.92719  0.06856  1.0000
  C   C1552     1.0  0.03949  0.75418  0.13604  1.0000
  H   H1218     1.0  0.23565  0.70904  0.15165  1.0000
  C   C1553     1.0  0.01995  0.81965  0.04345  1.0000
  C   C1554     1.0  0.27922  0.94239  0.05113  1.0000
  C   C1555     1.0  0.30699  0.85941  0.06674  1.0000
  C   C1556     1.0  0.31740  0.84628  0.07758  1.0000
  C   C1557     1.0  0.31500  0.85352  0.09043  1.0000
  C   C1558     1.0  0.30233  0.87392  0.09243  1.0000
  C   C1559     1.0  0.29168  0.88694  0.08166  1.0000
  C   C1560     1.0  0.25702  0.88513  0.05241  1.0000
  C   C1561     1.0  0.23946  0.89907  0.04650  1.0000
  C   C1562     1.0  0.22005  0.89109  0.04621  1.0000
  C   C1563     1.0  0.21810  0.86907  0.05159  1.0000
  C   C1564     1.0  0.23572  0.85490  0.05706  1.0000
  C   C1565     1.0  0.25513  0.86285  0.05745  1.0000
  H   H1219     1.0  0.31096  0.89236  0.00447  1.0000
  H   H1220     1.0  0.46718  0.84183  0.10527  1.0000
  H   H1221     1.0  0.01264  0.85360  0.98248  1.0000
  Fe  Fe111     1.0  0.25502  0.97158  0.12353  1.0000
  H   H1222     1.0  0.28099  0.89216  0.02515  1.0000
  H   H1223     1.0  0.24247  0.91329  0.07424  1.0000
  C   C1566     1.0  0.08739  0.77956  0.12399  1.0000
  C   C1567     1.0  0.02088  0.73867  0.04237  1.0000
  C   C1568     1.0  0.47242  0.61196  0.06678  1.0000
  H   H1224     1.0  0.29409  0.94052  0.04336  1.0000
  H   H1225     1.0  0.30946  0.85385  0.05671  1.0000
  H   H1226     1.0  0.32780  0.83075  0.07589  1.0000
  H   H1227     1.0  0.32327  0.84355  0.09875  1.0000
  H   H1228     1.0  0.30093  0.87984  0.10226  1.0000
  H   H1229     1.0  0.28210  0.90272  0.08343  1.0000
  H   H1230     1.0  0.24043  0.91631  0.04249  1.0000
  H   H1231     1.0  0.20623  0.90209  0.04212  1.0000
  H   H1232     1.0  0.20274  0.86314  0.05168  1.0000
  H   H1233     1.0  0.23410  0.83784  0.06122  1.0000
  H   H1234     1.0  0.26836  0.85164  0.06190  1.0000
  C   C1569     1.0  0.44997  0.50296  0.10877  1.0000
  C   C1570     1.0  0.12816  0.60259  0.10660  1.0000
  C   C1571     1.0  0.22625  0.75845  0.13013  1.0000
  H   H1235     1.0  0.32667  0.90312  0.04999  1.0000
  C   C1572     1.0  0.43838  0.58241  0.12226  1.0000
  S   S217      1.0  0.46550  0.73804  0.07998  1.0000
  S   S218      1.0  0.20702  0.48943  0.11115  1.0000
  C   C1573     1.0  0.01307  0.88363  0.98974  1.0000
  C   C1574     1.0  0.04927  0.74066  0.05558  1.0000
  C   C1575     1.0  0.37870  0.71928  0.16672  1.0000
  C   C1576     1.0  0.37522  0.49873  0.06395  1.0000
  C   C1577     1.0  0.02425  0.54454  0.08206  1.0000
  H   H1236     1.0  0.27997  0.75574  0.13375  1.0000
  H   H1237     1.0  0.04678  0.88989  0.01101  1.0000
  H   H1238     1.0  0.08545  0.86532  0.97573  1.0000
  C   C1578     1.0  0.33995  0.90065  0.02839  1.0000
  H   H1239     1.0  0.35430  0.88174  0.14514  1.0000
  C   C1579     1.0  0.05924  0.96408  0.08344  1.0000
  H   H1240     1.0  0.19074  0.50369  0.16035  1.0000
  C   C1580     1.0  0.01781  0.91410  0.01597  1.0000
  C   C1581     1.0  0.04461  0.59328  0.11930  1.0000
  H   H1241     1.0  0.43762  0.48261  0.00402  1.0000
  C   C1582     1.0  0.36430  0.93878  0.12292  1.0000
  H   H1242     1.0  0.99113  0.73367  0.14860  1.0000
  C   C1583     1.0  0.04672  0.71546  0.14607  1.0000
  C   C1584     1.0  0.44324  0.93180  0.98788  1.0000
  H   H1243     1.0  0.12614  0.49065  0.14308  1.0000
  C   C1585     1.0  0.09476  0.48338  0.05282  1.0000
  C   C1586     1.0  0.42576  0.50710  0.01757  1.0000
  C   C1587     1.0  0.34603  0.97652  0.10330  1.0000
  C   C1588     1.0  0.02387  0.71503  0.14939  1.0000
  H   H1244     1.0  0.22234  0.84757  0.15504  1.0000
  H   H1245     1.0  0.35646  0.90315  0.02917  1.0000
  C   C1589     1.0  0.00481  0.83435  0.05106  1.0000
  C   C1590     1.0  0.04120  0.92396  0.98670  1.0000
  H   H1246     1.0  0.00746  0.70817  0.04728  1.0000
  H   H1247     1.0  0.34877  0.89759  0.00649  1.0000
  S   S219      1.0  0.47327  0.94621  0.03626  1.0000
  H   H1248     1.0  0.08491  0.77493  0.11443  1.0000
  C   C1591     1.0  0.03522  0.89718  0.01925  1.0000
  H   H1249     1.0  0.00497  0.76825  0.13639  1.0000
  Fe  Fe112     1.0  0.47853  0.71394  0.09816  1.0000
  H   H1250     1.0  0.43598  0.95196  0.00411  1.0000
  H   H1251     1.0  0.07215  0.72856  0.16718  1.0000
  H   H1252     1.0  0.02214  0.78615  0.98004  1.0000
  C   C1592     1.0  0.46951  0.76590  0.07450  1.0000
  H   H1253     1.0  0.45748  0.63694  0.12448  1.0000
  C   C1593     1.0  0.19636  0.82160  0.14700  1.0000
  C   C1594     1.0  0.21681  0.80775  0.14809  1.0000
  P   P53       1.0  0.19492  0.84654  0.13406  1.0000
  C   C1595     1.0  0.21653  0.84333  0.11904  1.0000
  C   C1596     1.0  0.16806  0.85309  0.12838  1.0000
  C   C1597     1.0  0.16555  0.84909  0.11525  1.0000
  C   C1598     1.0  0.14482  0.85467  0.11088  1.0000
  C   C1599     1.0  0.12648  0.86450  0.11944  1.0000
  C   C1600     1.0  0.12879  0.86861  0.13249  1.0000
  C   C1601     1.0  0.14947  0.86294  0.13695  1.0000
  C   C1602     1.0  0.22866  0.86049  0.11278  1.0000
  C   C1603     1.0  0.24544  0.85792  0.10122  1.0000
  C   C1604     1.0  0.25035  0.83822  0.09582  1.0000
  C   C1605     1.0  0.23809  0.82117  0.10183  1.0000
  C   C1606     1.0  0.22119  0.82372  0.11338  1.0000
  C   C1607     1.0  0.19939  0.86849  0.14211  1.0000
  C   C1608     1.0  0.21373  0.86406  0.15206  1.0000
  Fe  Fe113     1.0  0.18790  0.58710  0.15903  1.0000
  C   C1609     1.0  0.20768  0.90277  0.15392  1.0000
  C   C1610     1.0  0.19374  0.90738  0.14382  1.0000
  C   C1611     1.0  0.18976  0.89036  0.13782  1.0000
  H   H1254     1.0  0.01787  0.69964  0.15413  1.0000
  C   C1612     1.0  0.47165  0.60317  0.08106  1.0000
  H   H1255     1.0  0.01010  0.74608  0.03473  1.0000
  H   H1256     1.0  0.23173  0.81116  0.14080  1.0000
  H   H1257     1.0  0.17952  0.84222  0.10812  1.0000
  H   H1258     1.0  0.14311  0.85198  0.10060  1.0000
  H   H1259     1.0  0.11063  0.86938  0.11578  1.0000
  H   H1260     1.0  0.11465  0.87668  0.13900  1.0000
  H   H1261     1.0  0.15107  0.86674  0.14695  1.0000
  H   H1262     1.0  0.22519  0.87598  0.11672  1.0000
  H   H1263     1.0  0.25450  0.87137  0.09645  1.0000
  H   H1264     1.0  0.26356  0.83626  0.08696  1.0000
  H   H1265     1.0  0.24163  0.80604  0.09749  1.0000
  H   H1266     1.0  0.21163  0.81053  0.11789  1.0000
  H   H1267     1.0  0.00524  0.81594  0.99385  1.0000
  C   C1613     1.0  0.26993  0.96352  0.05406  1.0000
  H   H1268     1.0  0.18657  0.92428  0.14027  1.0000
  H   H1269     1.0  0.17965  0.89446  0.12957  1.0000
  C   C1614     1.0  0.14297  0.61557  0.09778  1.0000
  C   C1615     1.0  0.12649  0.54417  0.12708  1.0000
  C   C1616     1.0  0.09120  0.80821  0.13624  1.0000
  C   C1617     1.0  0.26395  0.75066  0.13487  1.0000
  H   H1270     1.0  0.01162  0.81292  0.01810  1.0000
  H   H1271     1.0  0.40883  0.59344  0.13632  1.0000
  C   C1618     1.0  0.37213  0.97562  0.13894  1.0000
  H   H1272     1.0  0.04536  0.75279  0.99072  1.0000
  C   C1619     1.0  0.36288  0.50322  0.05291  1.0000
  H   H1273     1.0  0.99072  0.62713  0.05825  1.0000
  H   H1274     1.0  0.08655  0.61464  0.12654  1.0000
  C   C1620     1.0  0.42070  0.94462  0.08342  1.0000
  H   H1275     1.0  0.12581  0.74332  0.11778  1.0000
  C   C1621     1.0  0.33909  0.91429  0.13682  1.0000
  H   H1276     1.0  0.05758  0.71185  0.07075  1.0000
  C   C1622     1.0  0.28066  0.69341  0.11809  1.0000
  C   C1623     1.0  0.27503  0.71352  0.10952  1.0000
  C   C1624     1.0  0.29032  0.72823  0.10505  1.0000
  C   C1625     1.0  0.31117  0.72297  0.10931  1.0000
  C   C1626     1.0  0.31683  0.70294  0.11811  1.0000
  C   C1627     1.0  0.30153  0.68804  0.12227  1.0000
  P   P54       1.0  0.34330  0.69665  0.12425  1.0000
  C   C1628     1.0  0.36573  0.68730  0.11095  1.0000
  C   C1629     1.0  0.34927  0.72116  0.12903  1.0000
  C   C1630     1.0  0.37126  0.72467  0.12784  1.0000
  C   C1631     1.0  0.37570  0.74334  0.13190  1.0000
  C   C1632     1.0  0.35829  0.75861  0.13728  1.0000
  C   C1633     1.0  0.33636  0.75549  0.13828  1.0000
  C   C1634     1.0  0.33186  0.73681  0.13424  1.0000
  C   C1635     1.0  0.38571  0.67538  0.11488  1.0000
  C   C1636     1.0  0.40385  0.66959  0.10468  1.0000
  C   C1637     1.0  0.40215  0.67547  0.09044  1.0000
  C   C1638     1.0  0.38222  0.68705  0.08641  1.0000
  C   C1639     1.0  0.36406  0.69300  0.09661  1.0000
  C   C1640     1.0  0.34074  0.67558  0.13969  1.0000
  C   C1641     1.0  0.34658  0.65314  0.13848  1.0000
  C   C1642     1.0  0.34319  0.63688  0.15034  1.0000
  H   H1277     1.0  0.13486  0.67032  0.15459  1.0000
  H   H1278     1.0  0.16446  0.76449  0.15695  1.0000
  C   C1643     1.0  0.33100  0.68138  0.15285  1.0000
  H   H1279     1.0  0.26882  0.68195  0.12161  1.0000
  H   H1280     1.0  0.25877  0.71768  0.10638  1.0000
  H   H1281     1.0  0.28592  0.74381  0.09840  1.0000
  H   H1282     1.0  0.32276  0.73463  0.10590  1.0000
  H   H1283     1.0  0.30543  0.67232  0.12889  1.0000
  H   H1284     1.0  0.38519  0.71284  0.12418  1.0000
  H   H1285     1.0  0.39275  0.74553  0.13134  1.0000
  C   C1644     1.0  0.16313  0.76889  0.14591  1.0000
  H   H1286     1.0  0.32286  0.76721  0.14263  1.0000
  H   H1287     1.0  0.31483  0.73424  0.13559  1.0000
  H   H1288     1.0  0.38753  0.67112  0.12586  1.0000
  H   H1289     1.0  0.41940  0.66096  0.10787  1.0000
  H   H1290     1.0  0.41637  0.67124  0.08254  1.0000
  H   H1291     1.0  0.38098  0.69165  0.07534  1.0000
  H   H1292     1.0  0.34892  0.70221  0.09326  1.0000
  H   H1293     1.0  0.35335  0.64817  0.12837  1.0000
  H   H1294     1.0  0.34759  0.61961  0.14933  1.0000
  H   H1295     1.0  0.30419  0.91954  0.16748  1.0000
  Fe  Fe114     1.0  0.20963  0.62855  0.15573  1.0000
  H   H1296     1.0  0.32595  0.69847  0.15401  1.0000
  H   H1297     1.0  0.46664  0.61440  0.08851  1.0000
  H   H1298     1.0  0.18563  0.60224  0.11634  1.0000
  C   C1645     1.0  0.47844  0.80888  0.06257  1.0000
  H   H1299     1.0  0.05406  0.95013  0.09100  1.0000
  C   C1646     1.0  0.24514  0.66002  0.16164  1.0000
  H   H1300     1.0  0.39355  0.56862  0.07766  1.0000
  H   H1301     1.0  0.32227  0.91132  0.14120  1.0000
  H   H1302     1.0  0.14035  0.79887  0.14873  1.0000
  C   C1647     1.0  0.45979  0.91923  0.97958  1.0000
  H   H1303     1.0  0.13715  0.80963  0.12346  1.0000
  C   C1648     1.0  0.44109  0.54649  0.05822  1.0000
  C   C1649     1.0  0.05632  0.60888  0.12151  1.0000
  C   C1650     1.0  0.39476  0.96361  0.10083  1.0000
  S   S220      1.0  0.46455  0.88937  0.02872  1.0000
  P   P55       1.0  0.11535  0.57193  0.13029  1.0000
  H   H1304     1.0  0.12415  0.71091  0.08350  1.0000
  S   S221      1.0  0.99789  0.65223  0.07815  1.0000
  C   C1651     1.0  0.12727  0.72770  0.09999  1.0000
  Fe  Fe115     1.0  0.45820  0.68565  0.12484  1.0000
  H   H1305     1.0  0.21354  0.76976  0.12520  1.0000
  H   H1306     1.0  0.01287  0.96237  0.01076  1.0000
  H   H1307     1.0  0.31133  0.49871  0.07190  1.0000
  C   C1652     1.0  0.15449  0.58999  0.12277  1.0000
  C   C1653     1.0  0.16364  0.61553  0.10134  1.0000
  H   H1308     1.0  0.36229  0.96363  0.08425  1.0000
  H   H1309     1.0  0.06810  0.64525  0.15676  1.0000
  C   C1654     1.0  0.04420  0.91999  0.97283  1.0000
  C   C1655     1.0  0.00977  0.49901  0.04772  1.0000
  H   H1310     1.0  0.23436  0.77930  0.15981  1.0000
  H   H1311     1.0  0.09198  0.82536  0.13620  1.0000
  C   C1656     1.0  0.02452  0.78439  0.99087  1.0000
  C   C1657     1.0  0.47117  0.94151  0.99851  1.0000
  H   H1312     1.0  0.15790  0.78585  0.10637  1.0000
  C   C1658     1.0  0.00883  0.73417  0.14620  1.0000
  C   C1659     1.0  0.09611  0.71635  0.15016  1.0000
  H   H1313     1.0  0.44963  0.95953  0.07359  1.0000
  C   C1660     1.0  0.41765  0.51082  0.03138  1.0000
  C   C1661     1.0  0.44086  0.52184  0.10033  1.0000
  C   C1662     1.0  0.47783  0.58040  0.08536  1.0000
  H   H1314     1.0  0.45199  0.81085  0.05097  1.0000
  H   H1315     1.0  0.00594  0.51499  0.05097  1.0000
  H   H1316     1.0  0.42794  0.52091  0.00913  1.0000
  H   H1317     1.0  0.12101  0.69828  0.13598  1.0000
  C   C1663     1.0  0.04758  0.71922  0.06267  1.0000
  C   C1664     1.0  0.32773  0.66510  0.16470  1.0000
  H   H1318     1.0  0.42110  0.62840  0.13765  1.0000
  H   H1319     1.0  0.37337  0.49097  0.08658  1.0000
  C   C1665     1.0  0.42635  0.56148  0.06576  1.0000
  C   C1666     1.0  0.09847  0.58644  0.15613  1.0000
  H   H1320     1.0  0.06994  0.71144  0.11801  1.0000
  H   H1321     1.0  0.14321  0.73226  0.09485  1.0000
  C   C1667     1.0  0.44854  0.54181  0.09921  1.0000
  C   C1668     1.0  0.09585  0.71002  0.10010  1.0000
  C   C1669     1.0  0.03818  0.88978  0.03319  1.0000
  C   C1670     1.0  0.00554  0.91507  0.04092  1.0000
  P   P56       1.0  0.19413  0.73105  0.14192  1.0000
  H   H1322     1.0  0.03354  0.82573  0.03590  1.0000
  C   C1671     1.0  0.43158  0.61688  0.13126  1.0000
  S   S222      1.0  0.24695  0.96929  0.10240  1.0000
  C   C1672     1.0  0.00324  0.49701  0.03527  1.0000
  H   H1323     1.0  0.06061  0.74955  0.05838  1.0000
  S   S223      1.0  0.24159  0.64330  0.15003  1.0000
  H   H1324     1.0  0.37092  0.50644  0.04207  1.0000
  C   C1673     1.0  0.41598  0.75006  0.10131  1.0000
  C   C1674     1.0  0.40104  0.74039  0.09655  1.0000
  C   C1675     1.0  0.38240  0.75348  0.09163  1.0000
  C   C1676     1.0  0.37892  0.77631  0.09128  1.0000
  C   C1677     1.0  0.39407  0.78620  0.09587  1.0000
  C   C1678     1.0  0.41264  0.77286  0.10093  1.0000
  P   P57       1.0  0.38984  0.81584  0.09476  1.0000
  C   C1679     1.0  0.41443  0.82408  0.09801  1.0000
  C   C1680     1.0  0.38485  0.82838  0.07719  1.0000
  C   C1681     1.0  0.39427  0.81733  0.06577  1.0000
  C   C1682     1.0  0.39033  0.82680  0.05218  1.0000
  C   C1683     1.0  0.37723  0.84752  0.04983  1.0000
  C   C1684     1.0  0.36817  0.85880  0.06108  1.0000
  C   C1685     1.0  0.37198  0.84933  0.07468  1.0000
  C   C1686     1.0  0.41761  0.82307  0.11189  1.0000
  C   C1687     1.0  0.43660  0.82940  0.11451  1.0000
  C   C1688     1.0  0.45256  0.83671  0.10330  1.0000
  C   C1689     1.0  0.44965  0.83746  0.08949  1.0000
  C   C1690     1.0  0.43073  0.83108  0.08683  1.0000
  C   C1691     1.0  0.36689  0.82497  0.10787  1.0000
  C   C1692     1.0  0.35189  0.81086  0.11532  1.0000
  C   C1693     1.0  0.33431  0.81827  0.12546  1.0000
  C   C1694     1.0  0.33153  0.83977  0.12817  1.0000
  C   C1695     1.0  0.34634  0.85388  0.12082  1.0000
  C   C1696     1.0  0.36413  0.84645  0.11086  1.0000
  H   H1325     1.0  0.43056  0.73990  0.10497  1.0000
  H   H1326     1.0  0.40409  0.72275  0.09662  1.0000
  H   H1327     1.0  0.37087  0.74594  0.08792  1.0000
  H   H1328     1.0  0.36461  0.78634  0.08724  1.0000
  H   H1329     1.0  0.42492  0.77990  0.10428  1.0000
  H   H1330     1.0  0.40508  0.80159  0.06727  1.0000
  H   H1331     1.0  0.39803  0.81841  0.04338  1.0000
  H   H1332     1.0  0.37484  0.85522  0.03923  1.0000
  H   H1333     1.0  0.35867  0.87518  0.05923  1.0000
  H   H1334     1.0  0.36514  0.85873  0.08306  1.0000
  H   H1335     1.0  0.40545  0.81734  0.12068  1.0000
  H   H1336     1.0  0.43893  0.82869  0.12523  1.0000
  H   H1337     1.0  0.42591  0.93251  0.98721  1.0000
  H   H1338     1.0  0.99467  0.56858  0.08559  1.0000
  H   H1339     1.0  0.42895  0.83165  0.07605  1.0000
  H   H1340     1.0  0.35366  0.79417  0.11343  1.0000
  H   H1341     1.0  0.32268  0.80743  0.13118  1.0000
  H   H1342     1.0  0.31786  0.84553  0.13595  1.0000
  H   H1343     1.0  0.34393  0.87066  0.12276  1.0000
  H   H1344     1.0  0.37566  0.85755  0.10539  1.0000
  H   H1345     1.0  0.08747  0.70077  0.09513  1.0000
  C   C1697     1.0  0.99580  0.51763  0.07801  1.0000
  C   C1698     1.0  0.21102  0.69216  0.13087  1.0000
  C   C1699     1.0  0.19306  0.70939  0.13245  1.0000
  H   H1346     1.0  0.36182  0.77258  0.14095  1.0000
  H   H1347     1.0  0.11260  0.60232  0.10336  1.0000
  H   H1348     1.0  0.00732  0.94686  0.08071  1.0000
  C   C1700     1.0  0.38235  0.92199  0.12526  1.0000
  H   H1349     1.0  0.14700  0.55402  0.10705  1.0000
  C   C1701     1.0  0.09653  0.72832  0.11957  1.0000
  S   S224      1.0  0.27776  0.79316  0.14794  1.0000
  H   H1350     1.0  0.21121  0.91603  0.15832  1.0000
  S   S225      1.0  0.46883  0.71894  0.12070  1.0000
  H   H1351     1.0  0.15875  0.72070  0.12960  1.0000
  H   H1352     1.0  0.39923  0.92469  0.12100  1.0000
  C   C1702     1.0  0.11516  0.57264  0.14863  1.0000
  C   C1703     1.0  0.13025  0.50456  0.13514  1.0000
  C   C1704     1.0  0.27633  0.82147  0.14806  1.0000
  C   C1705     1.0  0.48454  0.56669  0.07506  1.0000
  C   C1706     1.0  0.01876  0.50984  0.07669  1.0000
  C   C1707     1.0  0.03292  0.52346  0.07882  1.0000
  C   C1708     1.0  0.28131  0.82844  0.15953  1.0000
  H   H1353     1.0  0.06255  0.49508  0.04689  1.0000
  C   C1709     1.0  0.45694  0.77943  0.06472  1.0000
  C   C1710     1.0  0.07150  0.48660  0.05531  1.0000
  H   H1354     1.0  0.16197  0.82804  0.15694  1.0000
  H   H1355     1.0  0.04641  0.95795  0.03145  1.0000
  C   C1711     1.0  0.34125  0.49455  0.08072  1.0000
  C   C1712     1.0  0.40025  0.72384  0.16111  1.0000
  H   H1356     1.0  0.43273  0.56729  0.12186  1.0000
  C   C1713     1.0  0.35711  0.89763  0.13899  1.0000
  C   C1714     1.0  0.46123  0.80091  0.05887  1.0000
  H   H1357     1.0  0.04881  0.62610  0.12065  1.0000
  H   H1358     1.0  0.22593  0.69155  0.13510  1.0000
  C   C1715     1.0  0.36419  0.49456  0.07789  1.0000
  H   H1359     1.0  0.00689  0.85152  0.04936  1.0000
  H   H1360     1.0  0.14525  0.54870  0.15006  1.0000
  C   C1716     1.0  0.00272  0.86837  0.98587  1.0000
  C   C1717     1.0  0.16949  0.60252  0.11371  1.0000
  H   H1361     1.0  0.05066  0.51799  0.07787  1.0000
  H   H1362     1.0  0.40573  0.73764  0.16379  1.0000
  H   H1363     1.0  0.13846  0.62556  0.08815  1.0000
  C   C1718     1.0  0.47579  0.49768  0.97585  1.0000
  H   H1364     1.0  0.46207  0.84303  0.08080  1.0000
  C   C1719     1.0  0.02348  0.89883  0.04404  1.0000
  H   H1365     1.0  0.32861  0.94764  0.12757  1.0000
  C   C1720     1.0  0.17511  0.75538  0.13627  1.0000
  C   C1721     1.0  0.14770  0.79453  0.12705  1.0000
  C   C1722     1.0  0.13178  0.55908  0.15562  1.0000
  H   H1366     1.0  0.22634  0.95049  0.07940  1.0000
  H   H1367     1.0  0.05727  0.93173  0.00239  1.0000
  C   C1723     1.0  0.24723  0.76459  0.12840  1.0000
  H   H1368     1.0  0.99402  0.51113  0.02943  1.0000
  C   C1724     1.0  0.17324  0.76168  0.12195  1.0000
  C   C1725     1.0  0.09130  0.77064  0.14856  1.0000
  C   C1726     1.0  0.07563  0.56444  0.12391  1.0000
  C   C1727     1.0  0.15945  0.78111  0.11740  1.0000
  H   H1369     1.0  0.18264  0.75171  0.11428  1.0000
  H   H1370     1.0  0.27277  0.71984  0.14812  1.0000
  H   H1371     1.0  0.39051  0.93360  0.09458  1.0000
  C   C1728     1.0  0.33379  0.64286  0.16344  1.0000
  C   C1729     1.0  0.09254  0.79274  0.14852  1.0000
  H   H1372     1.0  0.42804  0.52094  0.09452  1.0000
  H   H1373     1.0  0.38180  0.53440  0.07500  1.0000
  P   P58       1.0  0.08418  0.73604  0.13647  1.0000
  H   H1374     1.0  0.03121  0.69088  0.06511  1.0000
  C   C1730     1.0  0.14189  0.54045  0.11492  1.0000
  S   S226      1.0  0.98900  0.66286  0.11780  1.0000
  C   C1731     1.0  0.17775  0.81733  0.15721  1.0000
  C   C1732     1.0  0.48572  0.57562  0.06080  1.0000
  H   H1375     1.0  0.25048  0.78041  0.12238  1.0000
  C   C1733     1.0  0.12186  0.68360  0.15738  1.0000
  C   C1734     1.0  0.34270  0.93483  0.12892  1.0000
  H   H1376     1.0  0.48152  0.60520  0.04556  1.0000
  C   C1735     1.0  0.25981  0.73052  0.14303  1.0000
  H   H1377     1.0  0.15935  0.58013  0.13235  1.0000
  H   H1378     1.0  0.47379  0.48940  0.12265  1.0000
  S   S227      1.0  0.17710  0.65033  0.16085  1.0000
  C   C1736     1.0  0.41539  0.49293  0.04243  1.0000
  H   H1379     1.0  0.33048  0.50650  0.04723  1.0000
  C   C1737     1.0  0.21783  0.88118  0.15792  1.0000
  H   H1380     1.0  0.44522  0.48967  0.07390  1.0000
  C   C1738     1.0  0.37872  0.90146  0.13319  1.0000
  H   H1381     1.0  0.39271  0.88851  0.13478  1.0000
  C   C1739     1.0  0.07767  0.60232  0.12489  1.0000
  S   S228      1.0  0.99636  0.71166  0.12180  1.0000
  H   H1382     1.0  0.04512  0.76939  0.13063  1.0000
  H   H1383     1.0  0.09433  0.79788  0.15807  1.0000
  C   C1740     1.0  0.42471  0.59723  0.13049  1.0000
  H   H1384     1.0  0.08566  0.59740  0.15109  1.0000
  H   H1385     1.0  0.04512  0.55898  0.11882  1.0000
  H   H1386     1.0  0.08269  0.94361  0.07031  1.0000
  H   H1387     1.0  0.99434  0.92233  0.04933  1.0000
  C   C1741     1.0  0.08843  0.76391  0.13632  1.0000
  C   C1742     1.0  0.05471  0.73518  0.13967  1.0000
  H   H1388     1.0  0.10868  0.52851  0.14655  1.0000
  C   C1743     1.0  0.43120  0.48557  0.01467  1.0000
  C   C1744     1.0  0.18648  0.72123  0.16050  1.0000
  H   H1389     1.0  0.08773  0.81347  0.11436  1.0000
  C   C1745     1.0  0.08882  0.80156  0.12394  1.0000
  H   H1390     1.0  0.99819  0.77262  0.05796  1.0000
  C   C1746     1.0  0.23881  0.72438  0.14488  1.0000
  C   C1747     1.0  0.00246  0.92244  0.02695  1.0000
  H   H1391     1.0  0.41338  0.52761  0.03340  1.0000
  C   C1748     1.0  0.01924  0.71724  0.04948  1.0000
  C   C1749     1.0  0.07543  0.96037  0.07174  1.0000
  P   P59       1.0  0.47678  0.56838  0.10379  1.0000
  C   C1750     1.0  0.14587  0.50106  0.12315  1.0000
  C   C1751     1.0  0.01869  0.79940  0.01245  1.0000
  H   H1392     1.0  0.98834  0.93488  0.02478  1.0000
  C   C1752     1.0  0.00763  0.96709  0.06019  1.0000
  C   C1753     1.0  0.99973  0.95128  0.99493  1.0000
  C   C1754     1.0  0.34757  0.97288  0.08947  1.0000
  C   C1755     1.0  0.37193  0.70116  0.16344  1.0000
  H   H1393     1.0  0.35644  0.82338  0.16406  1.0000
  C   C1756     1.0  0.98737  0.82679  0.06102  1.0000
  H   H1394     1.0  0.33287  0.49095  0.09149  1.0000
  H   H1395     1.0  0.46844  0.62961  0.06352  1.0000
  C   C1757     1.0  0.01864  0.97029  0.04627  1.0000
  C   C1758     1.0  0.05993  0.47884  0.06859  1.0000
  H   H1396     1.0  0.46384  0.47789  0.04258  1.0000
  C   C1759     1.0  0.47965  0.59823  0.05665  1.0000
  C   C1760     1.0  0.08648  0.71648  0.16435  1.0000
  P   P60       1.0  0.02987  0.48296  0.07178  1.0000
  C   C1761     1.0  0.48220  0.91769  0.98074  1.0000
  H   H1397     1.0  0.44416  0.48744  0.10953  1.0000
  S   S229      1.0  0.15384  0.60608  0.16517  1.0000
  H   H1398     1.0  0.19675  0.47965  0.14216  1.0000
  H   H1399     1.0  0.28295  0.68941  0.16695  1.0000
  C   C1762     1.0  0.45568  0.49383  0.97317  1.0000
  C   C1763     1.0  0.48577  0.77439  0.07886  1.0000
  H   H1400     1.0  0.48649  0.79420  0.12226  1.0000
  H   H1401     1.0  0.20830  0.73896  0.16708  1.0000
  C   C1764     1.0  0.46576  0.60698  0.11561  1.0000
  H   H1402     1.0  0.48160  0.61104  0.10989  1.0000
  S   S230      1.0  0.30160  0.73533  0.16713  1.0000
  H   H1403     1.0  0.15405  0.48451  0.12183  1.0000
  C   C1765     1.0  0.98720  0.53865  0.08130  1.0000
  Fe  Fe116     1.0  0.27419  0.76925  0.31243  1.0000
  S   S231      1.0  0.27916  0.79774  0.29475  1.0000
  S   S232      1.0  0.24235  0.75427  0.31731  1.0000
  Fe  Fe117     1.0  0.31973  0.76736  0.32035  1.0000
  S   S233      1.0  0.32872  0.79461  0.30279  1.0000
  S   S234      1.0  0.33925  0.75142  0.33798  1.0000
  Fe  Fe118     1.0  0.29410  0.81196  0.30955  1.0000
  S   S235      1.0  0.28955  0.84906  0.30990  1.0000
  Fe  Fe119     1.0  0.31306  0.77832  0.28952  1.0000
  S   S236      1.0  0.32915  0.77114  0.26770  1.0000
  S   S237      1.0  0.28574  0.78535  0.32769  1.0000
  S   S238      1.0  0.30742  0.74924  0.30656  1.0000
  Fe  Fe120     1.0  0.27773  0.72730  0.18702  1.0000
  S   S239      1.0  0.25561  0.70102  0.19287  1.0000
  Fe  Fe121     1.0  0.28507  0.76527  0.19974  1.0000
  S   S240      1.0  0.30917  0.77685  0.18080  1.0000
  S   S241      1.0  0.27247  0.78222  0.21874  1.0000
  H   H1404     1.0  0.31921  0.49762  0.29203  1.0000
  Fe  Fe122     1.0  0.32355  0.74105  0.18128  1.0000
  S   S242      1.0  0.36117  0.73585  0.17836  1.0000
  S   S243      1.0  0.26017  0.76213  0.18677  1.0000
  S   S244      1.0  0.30091  0.72997  0.20132  1.0000
  Fe  Fe123     1.0  0.16967  0.62239  0.17836  1.0000
  S   S245      1.0  0.15137  0.62814  0.20019  1.0000
  H   H1405     1.0  0.46782  0.68204  0.32333  1.0000
  Fe  Fe124     1.0  0.20142  0.66282  0.29375  1.0000
  S   S246      1.0  0.18327  0.68895  0.27924  1.0000
  S   S247      1.0  0.23560  0.66499  0.29779  1.0000
  Fe  Fe125     1.0  0.16514  0.63376  0.29912  1.0000
  S   S248      1.0  0.14426  0.65774  0.28472  1.0000
  S   S249      1.0  0.15325  0.60373  0.31337  1.0000
  Fe  Fe126     1.0  0.17686  0.66099  0.26997  1.0000
  S   S250      1.0  0.18838  0.66382  0.24620  1.0000
  Fe  Fe127     1.0  0.15253  0.68343  0.29509  1.0000
  S   S251      1.0  0.12972  0.71070  0.30532  1.0000
  S   S252      1.0  0.19682  0.63506  0.28378  1.0000
  S   S253      1.0  0.17141  0.65931  0.31031  1.0000
  Fe  Fe128     1.0  0.22229  0.49273  0.34103  1.0000
  S   S254      1.0  0.22357  0.51601  0.32014  1.0000
  Fe  Fe129     1.0  0.00406  0.72024  0.33549  1.0000
  S   S255      1.0  0.02493  0.71735  0.31416  1.0000
  C   C1766     1.0  0.29984  0.83667  0.25134  1.0000
  H   H1406     1.0  0.35562  0.69728  0.16807  1.0000
  H   H1407     1.0  0.35688  0.58118  0.35262  1.0000
  C   C1767     1.0  0.41373  0.91521  0.35157  1.0000
  H   H1408     1.0  0.20225  0.71091  0.21667  1.0000
  H   H1409     1.0  0.08459  0.54002  0.34524  1.0000
  S   S256      1.0  0.47946  0.68399  0.35478  1.0000
  C   C1768     1.0  0.05409  0.71469  0.31224  1.0000
  C   C1769     1.0  0.06732  0.70632  0.30058  1.0000
  C   C1770     1.0  0.09060  0.70438  0.29858  1.0000
  C   C1771     1.0  0.10070  0.71166  0.30794  1.0000
  C   C1772     1.0  0.08744  0.72053  0.31942  1.0000
  C   C1773     1.0  0.06424  0.72154  0.32177  1.0000
  H   H1410     1.0  0.05949  0.70134  0.29307  1.0000
  H   H1411     1.0  0.10070  0.69782  0.28959  1.0000
  H   H1412     1.0  0.09518  0.72635  0.32662  1.0000
  H   H1413     1.0  0.05417  0.72825  0.33068  1.0000
  C   C1774     1.0  0.17208  0.57877  0.31477  1.0000
  C   C1775     1.0  0.16927  0.56289  0.32697  1.0000
  C   C1776     1.0  0.18479  0.54338  0.32864  1.0000
  C   C1777     1.0  0.20286  0.53945  0.31799  1.0000
  C   C1778     1.0  0.20507  0.55490  0.30556  1.0000
  C   C1779     1.0  0.18992  0.57461  0.30401  1.0000
  H   H1414     1.0  0.15537  0.56590  0.33527  1.0000
  H   H1415     1.0  0.18294  0.53137  0.33812  1.0000
  H   H1416     1.0  0.21870  0.55177  0.29718  1.0000
  H   H1417     1.0  0.19205  0.58655  0.29448  1.0000
  C   C1780     1.0  0.16228  0.63766  0.21290  1.0000
  C   C1781     1.0  0.18103  0.64819  0.20928  1.0000
  C   C1782     1.0  0.18866  0.65622  0.21961  1.0000
  C   C1783     1.0  0.17789  0.65349  0.23368  1.0000
  C   C1784     1.0  0.15922  0.64289  0.23733  1.0000
  C   C1785     1.0  0.15136  0.63519  0.22696  1.0000
  H   H1418     1.0  0.18953  0.65029  0.19852  1.0000
  H   H1419     1.0  0.20312  0.66441  0.21669  1.0000
  H   H1420     1.0  0.15082  0.64070  0.24812  1.0000
  H   H1421     1.0  0.13680  0.62714  0.22985  1.0000
  C   C1786     1.0  0.41479  0.83576  0.34638  1.0000
  H   H1422     1.0  0.99900  0.68162  0.31080  1.0000
  C   C1787     1.0  0.23246  0.67627  0.18285  1.0000
  C   C1788     1.0  0.43216  0.82186  0.35229  1.0000
  Fe  Fe130     1.0  0.99842  0.70100  0.36637  1.0000
  H   H1423     1.0  0.11564  0.55807  0.33053  1.0000
  C   C1789     1.0  0.31098  0.79573  0.35986  1.0000
  C   C1790     1.0  0.24111  0.72875  0.31246  1.0000
  C   C1791     1.0  0.22023  0.72303  0.31276  1.0000
  C   C1792     1.0  0.21849  0.70338  0.30845  1.0000
  C   C1793     1.0  0.23760  0.68926  0.30377  1.0000
  C   C1794     1.0  0.25852  0.69453  0.30388  1.0000
  C   C1795     1.0  0.26028  0.71417  0.30825  1.0000
  H   H1424     1.0  0.20533  0.73402  0.31617  1.0000
  H   H1425     1.0  0.20234  0.69916  0.30869  1.0000
  H   H1426     1.0  0.27340  0.68360  0.30037  1.0000
  H   H1427     1.0  0.27645  0.71817  0.30815  1.0000
  C   C1796     1.0  0.31301  0.77379  0.25432  1.0000
  C   C1797     1.0  0.32217  0.76420  0.24225  1.0000
  C   C1798     1.0  0.30977  0.76620  0.23139  1.0000
  C   C1799     1.0  0.28831  0.77830  0.23237  1.0000
  C   C1800     1.0  0.27927  0.78800  0.24436  1.0000
  C   C1801     1.0  0.29141  0.78552  0.25536  1.0000
  H   H1428     1.0  0.33889  0.75511  0.24134  1.0000
  H   H1429     1.0  0.31695  0.75868  0.22218  1.0000
  H   H1430     1.0  0.26284  0.79755  0.24513  1.0000
  H   H1431     1.0  0.28414  0.79296  0.26457  1.0000
  C   C1802     1.0  0.28271  0.88673  0.34698  1.0000
  C   C1803     1.0  0.28661  0.89739  0.33303  1.0000
  C   C1804     1.0  0.28869  0.88559  0.32186  1.0000
  C   C1805     1.0  0.28703  0.86298  0.32445  1.0000
  C   C1806     1.0  0.28317  0.85231  0.33841  1.0000
  C   C1807     1.0  0.28110  0.86411  0.34957  1.0000
  H   H1432     1.0  0.28787  0.91476  0.33083  1.0000
  H   H1433     1.0  0.29156  0.89406  0.31113  1.0000
  H   H1434     1.0  0.28172  0.83498  0.34061  1.0000
  H   H1435     1.0  0.44350  0.92616  0.35326  1.0000
  C   C1808     1.0  0.41540  0.73555  0.33148  1.0000
  C   C1809     1.0  0.40277  0.73264  0.34495  1.0000
  C   C1810     1.0  0.37947  0.73749  0.34673  1.0000
  C   C1811     1.0  0.36858  0.74574  0.33513  1.0000
  C   C1812     1.0  0.38116  0.74883  0.32164  1.0000
  C   C1813     1.0  0.40451  0.74359  0.31983  1.0000
  H   H1436     1.0  0.41092  0.72640  0.35398  1.0000
  H   H1437     1.0  0.36981  0.73471  0.35715  1.0000
  H   H1438     1.0  0.37290  0.75504  0.31262  1.0000
  C   C1814     1.0  0.22206  0.73301  0.22069  1.0000
  H   H1439     1.0  0.44209  0.80870  0.34701  1.0000
  H   H1440     1.0  0.41346  0.96749  0.33751  1.0000
  C   C1815     1.0  0.28164  0.56168  0.34786  1.0000
  H   H1441     1.0  0.35398  0.71885  0.30001  1.0000
  H   H1442     1.0  0.20139  0.77220  0.17783  1.0000
  H   H1443     1.0  0.03287  0.62457  0.35885  1.0000
  C   C1816     1.0  0.43666  0.82469  0.36515  1.0000
  H   H1444     1.0  0.43242  0.96032  0.31375  1.0000
  H   H1445     1.0  0.26435  0.84421  0.25285  1.0000
  H   H1446     1.0  0.11849  0.67112  0.17960  1.0000
  P   P61       1.0  0.06259  0.78314  0.35394  1.0000
  C   C1817     1.0  0.25841  0.73486  0.25514  1.0000
  C   C1818     1.0  0.17576  0.70484  0.18931  1.0000
  C   C1819     1.0  0.24178  0.74890  0.26254  1.0000
  C   C1820     1.0  0.38272  0.62057  0.35898  1.0000
  H   H1447     1.0  0.01441  0.93994  0.35280  1.0000
  C   C1821     1.0  0.13136  0.55891  0.16989  1.0000
  H   H1448     1.0  0.11469  0.57278  0.18827  1.0000
  C   C1822     1.0  0.20423  0.72128  0.22381  1.0000
  C   C1823     1.0  0.30926  0.91092  0.17732  1.0000
  C   C1824     1.0  0.06476  0.73757  0.36103  1.0000
  H   H1449     1.0  0.33823  0.69618  0.20510  1.0000
  C   C1825     1.0  0.25352  0.61276  0.34158  1.0000
  C   C1826     1.0  0.18956  0.72205  0.23649  1.0000
  C   C1827     1.0  0.06288  0.60575  0.36563  1.0000
  C   C1828     1.0  0.24577  0.62115  0.19657  1.0000
  H   H1450     1.0  0.15567  0.50869  0.35651  1.0000
  H   H1451     1.0  0.20759  0.73029  0.28278  1.0000
  C   C1829     1.0  0.04885  0.89516  0.36659  1.0000
  H   H1452     1.0  0.29933  0.83247  0.26264  1.0000
  C   C1830     1.0  0.22212  0.57864  0.36653  1.0000
  C   C1831     1.0  0.99406  0.64926  0.30880  1.0000
  H   H1453     1.0  0.45252  0.97207  0.34642  1.0000
  C   C1832     1.0  0.09170  0.78579  0.35002  1.0000
  H   H1454     1.0  0.14450  0.54864  0.17510  1.0000
  H   H1455     1.0  0.36639  0.78645  0.17812  1.0000
  C   C1833     1.0  0.22894  0.66377  0.17333  1.0000
  C   C1834     1.0  0.22037  0.83449  0.23971  1.0000
  C   C1835     1.0  0.29541  0.57112  0.33597  1.0000
  C   C1836     1.0  0.13443  0.62587  0.34776  1.0000
  H   H1456     1.0  0.22782  0.69195  0.24220  1.0000
  H   H1457     1.0  0.27002  0.53110  0.35864  1.0000
  H   H1458     1.0  0.16516  0.79639  0.17615  1.0000
  C   C1837     1.0  0.12053  0.80821  0.33944  1.0000
  C   C1838     1.0  0.05972  0.56848  0.34132  1.0000
  C   C1839     1.0  0.21093  0.74595  0.24321  1.0000
  H   H1459     1.0  0.27265  0.62559  0.17936  1.0000
  H   H1460     1.0  0.06539  0.70236  0.36611  1.0000
  C   C1840     1.0  0.21320  0.60306  0.32085  1.0000
  C   C1841     1.0  0.21275  0.58521  0.33188  1.0000
  C   C1842     1.0  0.23004  0.56733  0.33167  1.0000
  C   C1843     1.0  0.24736  0.56695  0.32019  1.0000
  C   C1844     1.0  0.24719  0.58420  0.30862  1.0000
  C   C1845     1.0  0.23041  0.60262  0.30932  1.0000
  P   P62       1.0  0.26844  0.58366  0.29310  1.0000
  C   C1846     1.0  0.28471  0.55640  0.29272  1.0000
  C   C1847     1.0  0.25429  0.59142  0.27798  1.0000
  C   C1848     1.0  0.25020  0.61366  0.27164  1.0000
  C   C1849     1.0  0.23811  0.61989  0.26053  1.0000
  C   C1850     1.0  0.22936  0.60418  0.25592  1.0000
  C   C1851     1.0  0.23348  0.58204  0.26203  1.0000
  C   C1852     1.0  0.24596  0.57565  0.27295  1.0000
  C   C1853     1.0  0.27424  0.53759  0.29643  1.0000
  C   C1854     1.0  0.28663  0.51654  0.29624  1.0000
  C   C1855     1.0  0.30966  0.51400  0.29214  1.0000
  C   C1856     1.0  0.32031  0.53256  0.28834  1.0000
  C   C1857     1.0  0.30793  0.55367  0.28867  1.0000
  C   C1858     1.0  0.28596  0.60392  0.29255  1.0000
  C   C1859     1.0  0.29972  0.61111  0.27999  1.0000
  C   C1860     1.0  0.31255  0.62746  0.27939  1.0000
  C   C1861     1.0  0.31140  0.63706  0.29125  1.0000
  C   C1862     1.0  0.29773  0.63001  0.30378  1.0000
  C   C1863     1.0  0.28522  0.61339  0.30446  1.0000
  H   H1461     1.0  0.19975  0.61687  0.32098  1.0000
  H   H1462     1.0  0.19878  0.58506  0.34042  1.0000
  H   H1463     1.0  0.22960  0.55332  0.34014  1.0000
  H   H1464     1.0  0.26035  0.55283  0.32034  1.0000
  H   H1465     1.0  0.23045  0.61655  0.30086  1.0000
  H   H1466     1.0  0.25535  0.62643  0.27568  1.0000
  H   H1467     1.0  0.23419  0.63717  0.25609  1.0000
  H   H1468     1.0  0.21887  0.60929  0.24787  1.0000
  H   H1469     1.0  0.22641  0.56989  0.25859  1.0000
  H   H1470     1.0  0.24840  0.55849  0.27764  1.0000
  H   H1471     1.0  0.25642  0.53904  0.29970  1.0000
  H   H1472     1.0  0.27823  0.50221  0.29938  1.0000
  C   C1864     1.0  0.42423  0.65460  0.33793  1.0000
  H   H1473     1.0  0.33821  0.53053  0.28526  1.0000
  H   H1474     1.0  0.31661  0.56769  0.28581  1.0000
  H   H1475     1.0  0.30016  0.60431  0.27062  1.0000
  H   H1476     1.0  0.32307  0.63305  0.26967  1.0000
  H   H1477     1.0  0.32085  0.65017  0.29070  1.0000
  H   H1478     1.0  0.29644  0.63777  0.31290  1.0000
  H   H1479     1.0  0.27460  0.60835  0.31418  1.0000
  C   C1865     1.0  0.00645  0.66448  0.31076  1.0000
  H   H1480     1.0  0.22092  0.59389  0.35916  1.0000
  S   S257      1.0  0.01526  0.72908  0.35363  1.0000
  H   H1481     1.0  0.39780  0.79321  0.31980  1.0000
  C   C1866     1.0  0.33305  0.83586  0.18109  1.0000
  S   S258      1.0  0.25681  0.96752  0.35555  1.0000
  C   C1867     1.0  0.41413  0.47780  0.36679  1.0000
  H   H1482     1.0  0.10390  0.75202  0.35871  1.0000
  C   C1868     1.0  0.39251  0.68066  0.31549  1.0000
  P   P63       1.0  0.21592  0.76075  0.25614  1.0000
  C   C1869     1.0  0.19290  0.73421  0.24618  1.0000
  C   C1870     1.0  0.09804  0.80603  0.34307  1.0000
  C   C1871     1.0  0.26789  0.68237  0.16869  1.0000
  H   H1483     1.0  0.22566  0.88270  0.19489  1.0000
  H   H1484     1.0  0.05622  0.67336  0.35174  1.0000
  H   H1485     1.0  0.19900  0.72439  0.19221  1.0000
  H   H1486     1.0  0.29433  0.88293  0.17733  1.0000
  C   C1872     1.0  0.30978  0.87874  0.19584  1.0000
  H   H1487     1.0  0.22000  0.83661  0.26136  1.0000
  C   C1873     1.0  0.36108  0.69198  0.33284  1.0000
  C   C1874     1.0  0.26686  0.62613  0.19045  1.0000
  H   H1488     1.0  0.04636  0.56089  0.34820  1.0000
  C   C1875     1.0  0.32098  0.83963  0.22776  1.0000
  C   C1876     1.0  0.19617  0.72791  0.17040  1.0000
  C   C1877     1.0  0.24599  0.75476  0.27473  1.0000
  H   H1489     1.0  0.32547  0.93693  0.17999  1.0000
  H   H1490     1.0  0.32199  0.78804  0.35159  1.0000
  H   H1491     1.0  0.34812  0.77790  0.20283  1.0000
  C   C1878     1.0  0.09826  0.58640  0.17039  1.0000
  P   P64       1.0  0.26838  0.57766  0.36156  1.0000
  C   C1879     1.0  0.11461  0.57254  0.17729  1.0000
  C   C1880     1.0  0.27982  0.53925  0.34946  1.0000
  H   H1492     1.0  0.42707  0.68874  0.32950  1.0000
  C   C1881     1.0  0.33866  0.87894  0.36578  1.0000
  C   C1882     1.0  0.42584  0.92723  0.35705  1.0000
  C   C1883     1.0  0.26667  0.74767  0.27900  1.0000
  H   H1493     1.0  0.17605  0.71247  0.23907  1.0000
  H   H1494     1.0  0.99448  0.61561  0.30665  1.0000
  H   H1495     1.0  0.21862  0.84809  0.18905  1.0000
  C   C1884     1.0  0.29105  0.52673  0.33917  1.0000
  C   C1885     1.0  0.37334  0.60130  0.36130  1.0000
  H   H1496     1.0  0.17209  0.69800  0.20038  1.0000
  H   H1497     1.0  0.41117  0.83342  0.33647  1.0000
  C   C1886     1.0  0.36407  0.59616  0.35076  1.0000
  H   H1498     1.0  0.26998  0.75293  0.28813  1.0000
  P   P65       1.0  0.39446  0.66012  0.34329  1.0000
  H   H1499     1.0  0.29934  0.72903  0.27468  1.0000
  H   H1500     1.0  0.04028  0.87924  0.33719  1.0000
  C   C1887     1.0  0.03915  0.88959  0.34501  1.0000
  H   H1501     1.0  0.27606  0.66577  0.26925  1.0000
  H   H1502     1.0  0.25257  0.66826  0.33618  1.0000
  C   C1888     1.0  0.21954  0.82074  0.23032  1.0000
  C   C1889     1.0  0.05334  0.78116  0.33798  1.0000
  H   H1503     1.0  0.08554  0.59733  0.17604  1.0000
  C   C1890     1.0  0.02412  0.77545  0.32652  1.0000
  C   C1891     1.0  0.03912  0.77431  0.31399  1.0000
  C   C1892     1.0  0.06122  0.77662  0.31338  1.0000
  C   C1893     1.0  0.06836  0.78002  0.32531  1.0000
  H   H1504     1.0  0.14263  0.62663  0.33691  1.0000
  H   H1505     1.0  0.17454  0.72839  0.30146  1.0000
  H   H1506     1.0  0.28447  0.85599  0.16850  1.0000
  C   C1894     1.0  0.27575  0.65583  0.23629  1.0000
  C   C1895     1.0  0.26910  0.62298  0.35959  1.0000
  C   C1896     1.0  0.27260  0.63310  0.21286  1.0000
  C   C1897     1.0  0.30096  0.61213  0.23431  1.0000
  C   C1898     1.0  0.13684  0.79020  0.34269  1.0000
  H   H1507     1.0  0.32873  0.85172  0.17475  1.0000
  H   H1508     1.0  0.33418  0.86009  0.35100  1.0000
  H   H1509     1.0  0.40844  0.67076  0.31263  1.0000
  H   H1510     1.0  0.39090  0.69642  0.29406  1.0000
  H   H1511     1.0  0.33672  0.91718  0.20260  1.0000
  C   C1899     1.0  0.16591  0.69823  0.17956  1.0000
  H   H1512     1.0  0.23370  0.73210  0.21098  1.0000
  C   C1900     1.0  0.38248  0.69496  0.30487  1.0000
  C   C1901     1.0  0.36166  0.70753  0.30820  1.0000
  H   H1513     1.0  0.03376  0.77084  0.30491  1.0000
  H   H1514     1.0  0.07299  0.77492  0.30379  1.0000
  H   H1515     1.0  0.08572  0.78098  0.32465  1.0000
  C   C1902     1.0  0.26532  0.64513  0.35324  1.0000
  C   C1903     1.0  0.12345  0.60812  0.35430  1.0000
  C   C1904     1.0  0.21935  0.82602  0.25402  1.0000
  C   C1905     1.0  0.27898  0.72750  0.25961  1.0000
  H   H1516     1.0  0.15430  0.79181  0.33977  1.0000
  H   H1517     1.0  0.26996  0.65775  0.35771  1.0000
  H   H1518     1.0  0.00167  0.84632  0.36014  1.0000
  C   C1906     1.0  0.09655  0.65018  0.27517  1.0000
  C   C1907     1.0  0.10396  0.63108  0.26918  1.0000
  C   C1908     1.0  0.10034  0.61060  0.27711  1.0000
  C   C1909     1.0  0.08940  0.60918  0.29106  1.0000
  C   C1910     1.0  0.08257  0.62824  0.29729  1.0000
  C   C1911     1.0  0.08584  0.64876  0.28915  1.0000
  P   P66       1.0  0.06714  0.62702  0.31494  1.0000
  C   C1912     1.0  0.03842  0.63558  0.31279  1.0000
  C   C1913     1.0  0.07254  0.59973  0.32497  1.0000
  C   C1914     1.0  0.05532  0.58994  0.33400  1.0000
  C   C1915     1.0  0.15496  0.77462  0.28019  1.0000
  C   C1916     1.0  0.30362  0.89006  0.18300  1.0000
  C   C1917     1.0  0.09875  0.56689  0.33145  1.0000
  C   C1918     1.0  0.09439  0.58833  0.32413  1.0000
  C   C1919     1.0  0.02860  0.65775  0.31257  1.0000
  C   C1920     1.0  0.43589  0.67208  0.33156  1.0000
  H   H1519     1.0  0.33792  0.83820  0.31312  1.0000
  C   C1921     1.0  0.05060  0.88200  0.35635  1.0000
  C   C1922     1.0  0.02614  0.62054  0.31029  1.0000
  C   C1923     1.0  0.07584  0.64480  0.32447  1.0000
  C   C1924     1.0  0.09756  0.64968  0.32118  1.0000
  C   C1925     1.0  0.10413  0.66345  0.32864  1.0000
  C   C1926     1.0  0.08934  0.67189  0.33970  1.0000
  C   C1927     1.0  0.06785  0.66667  0.34326  1.0000
  C   C1928     1.0  0.06113  0.65315  0.33569  1.0000
  H   H1520     1.0  0.09928  0.66609  0.26902  1.0000
  H   H1521     1.0  0.11241  0.63216  0.25837  1.0000
  H   H1522     1.0  0.10597  0.59581  0.27242  1.0000
  H   H1523     1.0  0.08629  0.59321  0.29688  1.0000
  H   H1524     1.0  0.08008  0.66366  0.29365  1.0000
  H   H1525     1.0  0.03854  0.59883  0.33549  1.0000
  H   H1526     1.0  0.12536  0.82380  0.33399  1.0000
  C   C1929     1.0  0.25066  0.68030  0.25678  1.0000
  H   H1527     1.0  0.10805  0.59591  0.31763  1.0000
  H   H1528     1.0  0.03802  0.66998  0.31368  1.0000
  C   C1930     1.0  0.32751  0.90957  0.19711  1.0000
  H   H1529     1.0  0.14098  0.75631  0.29986  1.0000
  H   H1530     1.0  0.03373  0.60362  0.30969  1.0000
  H   H1531     1.0  0.10942  0.64301  0.31281  1.0000
  H   H1532     1.0  0.12066  0.66783  0.32570  1.0000
  H   H1533     1.0  0.09443  0.68277  0.34531  1.0000
  H   H1534     1.0  0.46844  0.61312  0.33994  1.0000
  H   H1535     1.0  0.04435  0.64951  0.33847  1.0000
  H   H1536     1.0  0.36714  0.67235  0.19150  1.0000
  P   P67       1.0  0.29072  0.63804  0.22391  1.0000
  H   H1537     1.0  0.23345  0.76494  0.28099  1.0000
  H   H1538     1.0  0.29774  0.58813  0.33471  1.0000
  H   H1539     1.0  0.28556  0.56253  0.25027  1.0000
  H   H1540     1.0  0.24443  0.63013  0.22963  1.0000
  H   H1541     1.0  0.33544  0.82896  0.24669  1.0000
  H   H1542     1.0  0.29190  0.71724  0.25362  1.0000
  C   C1931     1.0  0.13453  0.64281  0.35508  1.0000
  C   C1932     1.0  0.19081  0.71976  0.18472  1.0000
  H   H1543     1.0  0.28949  0.50942  0.34055  1.0000
  C   C1933     1.0  0.45903  0.66830  0.32806  1.0000
  C   C1934     1.0  0.08133  0.55682  0.33983  1.0000
  C   C1935     1.0  0.31687  0.57218  0.25062  1.0000
  C   C1936     1.0  0.30438  0.53634  0.32729  1.0000
  C   C1937     1.0  0.30654  0.55855  0.32566  1.0000
  H   H1544     1.0  0.42078  0.48976  0.35823  1.0000
  H   H1545     1.0  0.07703  0.92692  0.36024  1.0000
  H   H1546     1.0  0.21726  0.78840  0.22758  1.0000
  H   H1547     1.0  0.32650  0.83632  0.33861  1.0000
  H   H1548     1.0  0.24917  0.60040  0.33684  1.0000
  C   C1938     1.0  0.17349  0.77580  0.26955  1.0000
  C   C1939     1.0  0.21776  0.80376  0.25888  1.0000
  H   H1549     1.0  0.38832  0.86310  0.34880  1.0000
  H   H1550     1.0  0.30428  0.68212  0.21873  1.0000
  H   H1551     1.0  0.35259  0.69149  0.34357  1.0000
  H   H1552     1.0  0.14004  0.78663  0.27939  1.0000
  C   C1940     1.0  0.32285  0.83122  0.19520  1.0000
  H   H1553     1.0  0.10976  0.94545  0.35631  1.0000
  H   H1554     1.0  0.32303  0.55668  0.25677  1.0000
  H   H1555     1.0  0.31310  0.52645  0.31942  1.0000
  H   H1556     1.0  0.32688  0.88047  0.21271  1.0000
  C   C1941     1.0  0.19278  0.76006  0.27046  1.0000
  C   C1942     1.0  0.27066  0.66697  0.25925  1.0000
  H   H1557     1.0  0.33232  0.62168  0.23527  1.0000
  C   C1943     1.0  0.19315  0.74298  0.28206  1.0000
  H   H1558     1.0  0.15467  0.68622  0.18313  1.0000
  H   H1559     1.0  0.29624  0.63625  0.19340  1.0000
  H   H1560     1.0  0.36290  0.63368  0.19175  1.0000
  C   C1944     1.0  0.28317  0.65478  0.24906  1.0000
  C   C1945     1.0  0.00396  0.62732  0.30844  1.0000
  C   C1946     1.0  0.28019  0.63219  0.19850  1.0000
  H   H1561     1.0  0.17261  0.78875  0.26049  1.0000
  H   H1562     1.0  0.22135  0.61897  0.21539  1.0000
  C   C1947     1.0  0.36897  0.81639  0.31479  1.0000
  H   H1563     1.0  0.25025  0.67182  0.22374  1.0000
  C   C1948     1.0  0.10819  0.76781  0.35336  1.0000
  C   C1949     1.0  0.33127  0.63582  0.20564  1.0000
  C   C1950     1.0  0.32201  0.60884  0.23832  1.0000
  H   H1564     1.0  0.23964  0.75379  0.22782  1.0000
  C   C1951     1.0  0.25616  0.67013  0.23362  1.0000
  H   H1565     1.0  0.25596  0.72970  0.24583  1.0000
  C   C1952     1.0  0.28895  0.79199  0.36334  1.0000
  C   C1953     1.0  0.24963  0.63489  0.33530  1.0000
  C   C1954     1.0  0.15548  0.75763  0.29174  1.0000
  H   H1566     1.0  0.29841  0.64431  0.25126  1.0000
  C   C1955     1.0  0.05792  0.75787  0.36585  1.0000
  H   H1567     1.0  0.11483  0.51141  0.35982  1.0000
  C   C1956     1.0  0.32822  0.81008  0.20291  1.0000
  H   H1568     1.0  0.08557  0.82002  0.34030  1.0000
  C   C1957     1.0  0.19987  0.78572  0.16913  1.0000
  C   C1958     1.0  0.38813  0.67105  0.35960  1.0000
  C   C1959     1.0  0.25073  0.83005  0.19248  1.0000
  C   C1960     1.0  0.23438  0.84875  0.19195  1.0000
  C   C1961     1.0  0.23835  0.86820  0.19525  1.0000
  C   C1962     1.0  0.25880  0.86906  0.19887  1.0000
  C   C1963     1.0  0.27559  0.85053  0.19895  1.0000
  C   C1964     1.0  0.27123  0.83093  0.19599  1.0000
  P   P68       1.0  0.30229  0.85174  0.20318  1.0000
  C   C1965     1.0  0.30123  0.84618  0.22206  1.0000
  H   H1569     1.0  0.37357  0.81664  0.30355  1.0000
  C   C1966     1.0  0.28013  0.84326  0.24580  1.0000
  C   C1967     1.0  0.28077  0.84790  0.23122  1.0000
  C   C1968     1.0  0.33604  0.67938  0.20521  1.0000
  H   H1570     1.0  0.32972  0.61883  0.20579  1.0000
  C   C1969     1.0  0.34879  0.81982  0.17497  1.0000
  H   H1571     1.0  0.24769  0.81482  0.19010  1.0000
  S   S259      1.0  0.98894  0.69103  0.34793  1.0000
  S   S260      1.0  0.22754  0.50337  0.36043  1.0000
  H   H1572     1.0  0.26163  0.88424  0.20142  1.0000
  H   H1573     1.0  0.28373  0.81633  0.19621  1.0000
  C   C1970     1.0  0.25103  0.62884  0.21876  1.0000
  H   H1574     1.0  0.12331  0.59533  0.34833  1.0000
  H   H1575     1.0  0.22020  0.67840  0.19213  1.0000
  H   H1576     1.0  0.26530  0.85248  0.22718  1.0000
  H   H1577     1.0  0.28582  0.81652  0.16842  1.0000
  C   C1971     1.0  0.29580  0.57544  0.24691  1.0000
  S   S261      1.0  0.20294  0.60121  0.17389  1.0000
  H   H1578     1.0  0.22053  0.82718  0.21923  1.0000
  H   H1579     1.0  0.24208  0.63952  0.32586  1.0000
  C   C1972     1.0  0.03126  0.77856  0.33850  1.0000
  C   C1973     1.0  0.32120  0.92070  0.18437  1.0000
  H   H1580     1.0  0.21695  0.79761  0.27001  1.0000
  H   H1581     1.0  0.17238  0.53731  0.36294  1.0000
  H   H1582     1.0  0.24061  0.68921  0.26485  1.0000
  C   C1974     1.0  0.35087  0.70578  0.32214  1.0000
  H   H1583     1.0  0.23537  0.61667  0.19027  1.0000
  C   C1975     1.0  0.23783  0.62260  0.21071  1.0000
  C   C1976     1.0  0.01678  0.83704  0.36357  1.0000
  C   C1977     1.0  0.25180  0.68579  0.18050  1.0000
  C   C1978     1.0  0.17453  0.74184  0.29265  1.0000
  C   C1979     1.0  0.04030  0.60929  0.36459  1.0000
  H   H1584     1.0  0.31701  0.56595  0.31648  1.0000
  C   C1980     1.0  0.45931  0.95212  0.36621  1.0000
  H   H1585     1.0  0.38695  0.79150  0.34523  1.0000
  C   C1981     1.0  0.24352  0.68196  0.24396  1.0000
  H   H1586     1.0  0.21397  0.65651  0.17528  1.0000
  C   C1982     1.0  0.17950  0.79943  0.16820  1.0000
  C   C1983     1.0  0.28787  0.59527  0.23879  1.0000
  C   C1984     1.0  0.28317  0.73405  0.27147  1.0000
  H   H1587     1.0  0.27152  0.59725  0.23610  1.0000
  C   C1985     1.0  0.36424  0.61028  0.33783  1.0000
  H   H1588     1.0  0.22188  0.85166  0.23590  1.0000
  C   C1986     1.0  0.21729  0.78966  0.24947  1.0000
  C   C1987     1.0  0.32996  0.58891  0.24635  1.0000
  H   H1589     1.0  0.42202  0.90531  0.34360  1.0000
  H   H1590     1.0  0.28320  0.78137  0.35783  1.0000
  H   H1591     1.0  0.37359  0.64027  0.32538  1.0000
  H   H1592     1.0  0.31989  0.80568  0.21359  1.0000
  H   H1593     1.0  0.34631  0.58642  0.24925  1.0000
  C   C1988     1.0  0.22540  0.74528  0.23031  1.0000
  H   H1594     1.0  0.14336  0.75606  0.35211  1.0000
  C   C1989     1.0  0.21784  0.79848  0.23515  1.0000
  H   H1595     1.0  0.18158  0.73389  0.25607  1.0000
  C   C1990     1.0  0.31457  0.64933  0.21337  1.0000
  C   C1991     1.0  0.31698  0.67128  0.21299  1.0000
  C   C1992     1.0  0.38201  0.67930  0.32962  1.0000
  C   C1993     1.0  0.35446  0.79906  0.18287  1.0000
  H   H1596     1.0  0.02277  0.81642  0.34795  1.0000
  C   C1994     1.0  0.26311  0.60656  0.35383  1.0000
  Fe  Fe131     1.0  0.46229  0.71842  0.34777  1.0000
  S   S262      1.0  0.44471  0.72877  0.32884  1.0000
  H   H1597     1.0  0.27799  0.85572  0.36030  1.0000
  H   H1598     1.0  0.41414  0.74577  0.30936  1.0000
  H   H1599     1.0  0.33143  0.89439  0.36000  1.0000
  Fe  Fe132     1.0  0.28068  0.93694  0.36229  1.0000
  P   P69       1.0  0.34744  0.81332  0.36280  1.0000
  H   H1600     1.0  0.33696  0.83790  0.22094  1.0000
  C   C1995     1.0  0.34417  0.79422  0.19683  1.0000
  C   C1996     1.0  0.45933  0.62955  0.33744  1.0000
  C   C1997     1.0  0.11243  0.68397  0.17146  1.0000
  C   C1998     1.0  0.12205  0.52446  0.36213  1.0000
  C   C1999     1.0  0.46515  0.96219  0.35220  1.0000
  C   C2000     1.0  0.37634  0.80240  0.33848  1.0000
  C   C2001     1.0  0.32024  0.83473  0.24233  1.0000
  C   C2002     1.0  0.34251  0.82754  0.33469  1.0000
  C   C2003     1.0  0.38263  0.80327  0.32394  1.0000
  H   H1601     1.0  0.06065  0.86578  0.35729  1.0000
  C   C2004     1.0  0.35009  0.64411  0.19772  1.0000
  H   H1602     1.0  0.01960  0.77850  0.34827  1.0000
  C   C2005     1.0  0.35250  0.66587  0.19755  1.0000
  H   H1603     1.0  0.08709  0.70043  0.18584  1.0000
  H   H1604     1.0  0.33482  0.71567  0.32478  1.0000
  C   C2006     1.0  0.14510  0.52286  0.36031  1.0000
  S   S263      1.0  0.27971  0.90071  0.36155  1.0000
  S   S264      1.0  0.31106  0.95347  0.35530  1.0000
  C   C2007     1.0  0.40194  0.85250  0.35334  1.0000
  C   C2008     1.0  0.34891  0.82852  0.32018  1.0000
  C   C2009     1.0  0.25555  0.65109  0.34111  1.0000
  C   C2010     1.0  0.35628  0.81478  0.34399  1.0000
  C   C2011     1.0  0.32185  0.88868  0.20283  1.0000
  C   C2012     1.0  0.09476  0.70046  0.17494  1.0000
  H   H1605     1.0  0.07284  0.73696  0.35026  1.0000
  H   H1606     1.0  0.38139  0.90709  0.35189  1.0000
  C   C2013     1.0  0.02878  0.81979  0.35675  1.0000
  C   C2014     1.0  0.04775  0.80693  0.36161  1.0000
  C   C2015     1.0  0.43612  0.63327  0.34083  1.0000
  H   H1607     1.0  0.42023  0.68128  0.35775  1.0000
  C   C2016     1.0  0.40406  0.68003  0.36408  1.0000
  H   H1608     1.0  0.14284  0.65669  0.34987  1.0000
  C   C2017     1.0  0.02618  0.91050  0.34379  1.0000
  C   C2018     1.0  0.13067  0.77004  0.34966  1.0000
  C   C2019     1.0  0.37360  0.62959  0.33546  1.0000
  C   C2020     1.0  0.02452  0.92379  0.35396  1.0000
  H   H1609     1.0  0.42761  0.61952  0.34589  1.0000
  H   H1610     1.0  0.00709  0.77322  0.32707  1.0000
  H   H1611     1.0  0.35713  0.60626  0.32963  1.0000
  C   C2021     1.0  0.39091  0.91607  0.35628  1.0000
  C   C2022     1.0  0.38280  0.63496  0.34607  1.0000
  H   H1612     1.0  0.01733  0.91640  0.33499  1.0000
  C   C2023     1.0  0.03561  0.91608  0.36554  1.0000
  C   C2024     1.0  0.31873  0.80917  0.36707  1.0000
  C   C2025     1.0  0.34028  0.85928  0.36067  1.0000
  C   C2026     1.0  0.15449  0.53906  0.36393  1.0000
  C   C2027     1.0  0.40644  0.85538  0.36620  1.0000
  H   H1613     1.0  0.07277  0.61837  0.36038  1.0000
  C   C2028     1.0  0.09539  0.95019  0.36396  1.0000
  H   H1614     1.0  0.35488  0.66277  0.36513  1.0000
  H   H1615     1.0  0.46427  0.85514  0.36394  1.0000
  H   H1616     1.0  0.33099  0.63026  0.17259  1.0000
  C   C2029     1.0  0.47078  0.64706  0.33107  1.0000
  H   H1617     1.0  0.32027  0.66980  0.17485  1.0000
  H   H1618     1.0  0.31589  0.55926  0.36168  1.0000
  H   H1619     1.0  0.38989  0.62419  0.36729  1.0000
  C   C2030     1.0  0.41514  0.94031  0.36729  1.0000
  C   C2031     1.0  0.38030  0.92849  0.36672  1.0000
  C   C2032     1.0  0.07675  0.93965  0.36629  1.0000
  H   H1620     1.0  0.33277  0.48135  0.36757  1.0000
  C   C2033     1.0  0.10831  0.54237  0.36746  1.0000
  Fe  Fe133     1.0  0.28583  0.77059  0.16795  1.0000
  Fe  Fe134     1.0  0.03772  0.52736  0.44199  1.0000
  S   S265      1.0  0.03920  0.49547  0.43446  1.0000
  S   S266      1.0  0.05833  0.52151  0.45957  1.0000
  Fe  Fe135     1.0  0.01273  0.55305  0.41851  1.0000
  S   S267      1.0  0.01345  0.52283  0.40916  1.0000
  C   C2034     1.0  0.36741  0.66972  0.36830  1.0000
  Fe  Fe136     1.0  0.00392  0.50665  0.43134  1.0000
  Fe  Fe137     1.0  0.04881  0.51381  0.41291  1.0000
  C   C2035     1.0  0.04264  0.82926  0.37999  1.0000
  S   S268      1.0  0.04922  0.54544  0.42026  1.0000
  Fe  Fe138     1.0  0.05584  0.53882  0.53757  1.0000
  S   S269      1.0  0.02890  0.52898  0.55533  1.0000
  S   S270      1.0  0.04439  0.55722  0.51727  1.0000
  Fe  Fe139     1.0  0.09246  0.52188  0.55574  1.0000
  S   S271      1.0  0.07153  0.55513  0.55081  1.0000
  H   H1621     1.0  0.03077  0.91509  0.54432  1.0000
  C   C2036     1.0  0.45178  0.96183  0.51829  1.0000
  H   H1622     1.0  0.12317  0.92095  0.44472  1.0000
  C   C2037     1.0  0.28576  0.49664  0.38985  1.0000
  H   H1623     1.0  0.04070  0.63965  0.39815  1.0000
  S   S272      1.0  0.04324  0.96040  0.43953  1.0000
  Fe  Fe140     1.0  0.36248  0.52459  0.41321  1.0000
  S   S273      1.0  0.39323  0.52960  0.39739  1.0000
  S   S274      1.0  0.32952  0.51624  0.40945  1.0000
  Fe  Fe141     1.0  0.38373  0.53488  0.43695  1.0000
  S   S275      1.0  0.41593  0.54014  0.42263  1.0000
  S   S276      1.0  0.37540  0.53643  0.46059  1.0000
  Fe  Fe142     1.0  0.39475  0.55917  0.40683  1.0000
  S   S277      1.0  0.40457  0.58826  0.39021  1.0000
  Fe  Fe143     1.0  0.41241  0.51039  0.41421  1.0000
  S   S278      1.0  0.36233  0.55590  0.42157  1.0000
  S   S279      1.0  0.38178  0.50345  0.42960  1.0000
  Fe  Fe144     1.0  0.43077  0.55223  0.52682  1.0000
  S   S280      1.0  0.43485  0.51792  0.53927  1.0000
  S   S281      1.0  0.43090  0.55887  0.50294  1.0000
  Fe  Fe145     1.0  0.43949  0.57290  0.55145  1.0000
  H   H1624     1.0  0.20825  0.56351  0.47567  1.0000
  Fe  Fe146     1.0  0.41464  0.53352  0.55748  1.0000
  S   S282      1.0  0.40835  0.56745  0.54472  1.0000
  H   H1625     1.0  0.26013  0.58662  0.39029  1.0000
  S   S283      1.0  0.27616  0.94389  0.38442  1.0000
  H   H1626     1.0  0.00851  0.89599  0.38972  1.0000
  C   C2038     1.0  0.14131  0.48108  0.38572  1.0000
  H   H1627     1.0  0.36005  0.82337  0.38792  1.0000
  H   H1628     1.0  0.99896  0.77186  0.38210  1.0000
  H   H1629     1.0  0.47608  0.78359  0.41589  1.0000
  S   S284      1.0  0.44896  0.66975  0.39513  1.0000
  C   C2039     1.0  0.24270  0.56770  0.37005  1.0000
  C   C2040     1.0  0.35309  0.85850  0.38646  1.0000
  H   H1630     1.0  0.22469  0.52357  0.39285  1.0000
  C   C2041     1.0  0.44580  0.87974  0.49233  1.0000
  S   S285      1.0  0.01912  0.67696  0.38107  1.0000
  C   C2042     1.0  0.22432  0.91032  0.39320  1.0000
  C   C2043     1.0  0.39200  0.54038  0.47254  1.0000
  C   C2044     1.0  0.41389  0.54442  0.46816  1.0000
  C   C2045     1.0  0.42569  0.54923  0.47779  1.0000
  C   C2046     1.0  0.41606  0.54972  0.49194  1.0000
  C   C2047     1.0  0.39458  0.54459  0.49650  1.0000
  C   C2048     1.0  0.38261  0.54010  0.48683  1.0000
  H   H1631     1.0  0.42144  0.54466  0.45726  1.0000
  H   H1632     1.0  0.44219  0.55331  0.47423  1.0000
  H   H1633     1.0  0.38684  0.54494  0.50733  1.0000
  H   H1634     1.0  0.36575  0.53687  0.49039  1.0000
  C   C2049     1.0  0.41763  0.61016  0.39205  1.0000
  C   C2050     1.0  0.43022  0.62095  0.38011  1.0000
  C   C2051     1.0  0.44006  0.63907  0.38088  1.0000
  C   C2052     1.0  0.43742  0.64660  0.39368  1.0000
  C   C2053     1.0  0.42501  0.63567  0.40568  1.0000
  C   C2054     1.0  0.41499  0.61767  0.40484  1.0000
  H   H1635     1.0  0.45442  0.56850  0.38663  1.0000
  H   H1636     1.0  0.44818  0.51341  0.50555  1.0000
  H   H1637     1.0  0.42277  0.64140  0.41562  1.0000
  H   H1638     1.0  0.40473  0.61001  0.41398  1.0000
  C   C2055     1.0  0.01710  0.89793  0.39786  1.0000
  C   C2056     1.0  0.17818  0.90810  0.45593  1.0000
  H   H1639     1.0  0.06934  0.80239  0.37709  1.0000
  H   H1640     1.0  0.18614  0.89279  0.47632  1.0000
  C   C2057     1.0  0.01333  0.94034  0.47844  1.0000
  C   C2058     1.0  0.11720  0.94749  0.40634  1.0000
  S   S286      1.0  0.44747  0.72550  0.36939  1.0000
  H   H1641     1.0  0.14834  0.56971  0.37164  1.0000
  C   C2059     1.0  0.27434  0.80200  0.37382  1.0000
  C   C2060     1.0  0.32218  0.48815  0.37632  1.0000
  H   H1642     1.0  0.36985  0.95398  0.51848  1.0000
  C   C2061     1.0  0.45565  0.81045  0.40482  1.0000
  C   C2062     1.0  0.14082  0.93261  0.42404  1.0000
  H   H1643     1.0  0.44588  0.49633  0.48558  1.0000
  C   C2063     1.0  0.07710  0.97296  0.38137  1.0000
  C   C2064     1.0  0.01051  0.93689  0.43907  1.0000
  C   C2065     1.0  0.02063  0.95548  0.43283  1.0000
  C   C2066     1.0  0.12191  0.92773  0.43385  1.0000
  C   C2067     1.0  0.03005  0.91481  0.39571  1.0000
  C   C2068     1.0  0.12884  0.51254  0.51938  1.0000
  H   H1644     1.0  0.01661  0.92584  0.44790  1.0000
  H   H1645     1.0  0.41508  0.96460  0.42463  1.0000
  C   C2069     1.0  0.27754  0.57988  0.38777  1.0000
  C   C2070     1.0  0.29128  0.57731  0.39783  1.0000
  C   C2071     1.0  0.42221  0.95104  0.47663  1.0000
  C   C2072     1.0  0.29536  0.50545  0.39903  1.0000
  C   C2073     1.0  0.31845  0.50559  0.39703  1.0000
  C   C2074     1.0  0.33179  0.49700  0.38549  1.0000
  H   H1646     1.0  0.14300  0.53786  0.52474  1.0000
  H   H1647     1.0  0.37339  0.59031  0.37132  1.0000
  H   H1648     1.0  0.10993  0.97516  0.36966  1.0000
  H   H1649     1.0  0.46558  0.54249  0.45410  1.0000
  H   H1650     1.0  0.44916  0.86391  0.40746  1.0000
  C   C2075     1.0  0.05215  0.53029  0.47612  1.0000
  C   C2076     1.0  0.03659  0.54890  0.47870  1.0000
  C   C2077     1.0  0.03388  0.55653  0.49157  1.0000
  C   C2078     1.0  0.04648  0.54548  0.50201  1.0000
  C   C2079     1.0  0.06139  0.52633  0.49965  1.0000
  C   C2080     1.0  0.06434  0.51889  0.48670  1.0000
  H   H1651     1.0  0.02719  0.55784  0.47061  1.0000
  H   H1652     1.0  0.02234  0.57139  0.49331  1.0000
  H   H1653     1.0  0.07113  0.51773  0.50762  1.0000
  H   H1654     1.0  0.04417  0.63458  0.56564  1.0000
  C   C2081     1.0  0.10355  0.49451  0.39659  1.0000
  H   H1655     1.0  0.04714  0.94550  0.47058  1.0000
  H   H1656     1.0  0.04754  0.83256  0.38926  1.0000
  C   C2082     1.0  0.14986  0.49397  0.39281  1.0000
  C   C2083     1.0  0.11213  0.50681  0.40407  1.0000
  H   H1657     1.0  0.37573  0.69054  0.39597  1.0000
  H   H1658     1.0  0.27050  0.82345  0.38905  1.0000
  C   C2084     1.0  0.00492  0.88430  0.55996  1.0000
  Fe  Fe147     1.0  0.30500  0.96240  0.37693  1.0000
  C   C2085     1.0  0.01951  0.61462  0.40279  1.0000
  C   C2086     1.0  0.02538  0.63544  0.39660  1.0000
  H   H1659     1.0  0.03017  0.60278  0.40909  1.0000
  C   C2087     1.0  0.41980  0.49251  0.45661  1.0000
  H   H1660     1.0  0.04058  0.77347  0.38369  1.0000
  C   C2088     1.0  0.48367  0.88383  0.48179  1.0000
  C   C2089     1.0  0.48167  0.80763  0.47880  1.0000
  H   H1661     1.0  0.19550  0.88561  0.42328  1.0000
  C   C2090     1.0  0.18965  0.92067  0.41518  1.0000
  C   C2091     1.0  0.35709  0.76982  0.37649  1.0000
  C   C2092     1.0  0.24335  0.54813  0.37993  1.0000
  C   C2093     1.0  0.13729  0.53233  0.51648  1.0000
  C   C2094     1.0  0.98996  0.78818  0.38311  1.0000
  H   H1662     1.0  0.17410  0.51562  0.43677  1.0000
  H   H1663     1.0  0.03352  0.73884  0.39918  1.0000
  C   C2095     1.0  0.42778  0.94615  0.39318  1.0000
  H   H1664     1.0  0.99256  0.94111  0.54508  1.0000
  C   C2096     1.0  0.16854  0.90618  0.44454  1.0000
  H   H1665     1.0  0.47706  0.79763  0.50124  1.0000
  C   C2097     1.0  0.22393  0.53916  0.38567  1.0000
  H   H1666     1.0  0.17059  0.85895  0.47679  1.0000
  C   C2098     1.0  0.10091  0.93242  0.42984  1.0000
  C   C2099     1.0  0.99424  0.86943  0.55589  1.0000
  C   C2100     1.0  0.41956  0.95308  0.41725  1.0000
  C   C2101     1.0  0.42388  0.93050  0.42219  1.0000
  C   C2102     1.0  0.42992  0.91565  0.41269  1.0000
  C   C2103     1.0  0.43177  0.92343  0.39822  1.0000
  C   C2104     1.0  0.28187  0.81548  0.38102  1.0000
  C   C2105     1.0  0.45871  0.91453  0.49102  1.0000
  H   H1667     1.0  0.39614  0.86832  0.37139  1.0000
  H   H1668     1.0  0.45516  0.97661  0.51094  1.0000
  C   C2106     1.0  0.12052  0.50577  0.50901  1.0000
  H   H1669     1.0  0.11326  0.49080  0.51150  1.0000
  Fe  Fe148     1.0  0.46397  0.52687  0.54597  1.0000
  C   C2107     1.0  0.02596  0.88530  0.42129  1.0000
  S   S287      1.0  0.44325  0.48693  0.40711  1.0000
  C   C2108     1.0  0.40427  0.47827  0.46195  1.0000
  C   C2109     1.0  0.19656  0.93719  0.40422  1.0000
  H   H1670     1.0  0.12340  0.65532  0.37459  1.0000
  H   H1671     1.0  0.02407  0.87413  0.43122  1.0000
  H   H1672     1.0  0.25718  0.79937  0.37629  1.0000
  C   C2110     1.0  0.47696  0.53868  0.42071  1.0000
  P   P70       1.0  0.47444  0.57806  0.43091  1.0000
  C   C2111     1.0  0.05807  0.94571  0.37623  1.0000
  H   H1673     1.0  0.42295  0.92463  0.43339  1.0000
  H   H1674     1.0  0.43342  0.89819  0.41658  1.0000
  H   H1675     1.0  0.43679  0.91182  0.39094  1.0000
  H   H1676     1.0  0.41203  0.69365  0.38059  1.0000
  C   C2112     1.0  0.11287  0.62409  0.37565  1.0000
  C   C2113     1.0  0.44170  0.90153  0.49479  1.0000
  C   C2114     1.0  0.40057  0.77349  0.37823  1.0000
  H   H1677     1.0  0.48432  0.94690  0.55314  1.0000
  C   C2115     1.0  0.04672  0.75817  0.37972  1.0000
  C   C2116     1.0  0.04096  0.91667  0.40655  1.0000
  H   H1678     1.0  0.27681  0.61885  0.36891  1.0000
  C   C2117     1.0  0.13050  0.53799  0.49241  1.0000
  C   C2118     1.0  0.13787  0.54518  0.50312  1.0000
  P   P71       1.0  0.13095  0.55493  0.47524  1.0000
  C   C2119     1.0  0.15378  0.57037  0.47191  1.0000
  C   C2120     1.0  0.13469  0.53778  0.46186  1.0000
  C   C2121     1.0  0.15553  0.53273  0.45351  1.0000
  C   C2122     1.0  0.15803  0.51945  0.44323  1.0000
  C   C2123     1.0  0.13978  0.51125  0.44113  1.0000
  C   C2124     1.0  0.11897  0.51650  0.44921  1.0000
  C   C2125     1.0  0.11641  0.52969  0.45952  1.0000
  C   C2126     1.0  0.15106  0.59284  0.46599  1.0000
  C   C2127     1.0  0.16886  0.60456  0.46355  1.0000
  C   C2128     1.0  0.18946  0.59400  0.46701  1.0000
  C   C2129     1.0  0.21381  0.93208  0.39331  1.0000
  H   H1679     1.0  0.47769  0.50864  0.41292  1.0000
  C   C2130     1.0  0.10482  0.57330  0.47472  1.0000
  C   C2131     1.0  0.09049  0.57752  0.48718  1.0000
  C   C2132     1.0  0.07024  0.59165  0.48658  1.0000
  C   C2133     1.0  0.06400  0.60137  0.47360  1.0000
  C   C2134     1.0  0.07819  0.59730  0.46116  1.0000
  C   C2135     1.0  0.09859  0.58341  0.46171  1.0000
  H   H1680     1.0  0.15401  0.85509  0.45659  1.0000
  H   H1681     1.0  0.05771  0.88898  0.37537  1.0000
  H   H1682     1.0  0.08631  0.92912  0.43751  1.0000
  C   C2136     1.0  0.14082  0.55725  0.36894  1.0000
  H   H1683     1.0  0.14387  0.56080  0.50125  1.0000
  H   H1684     1.0  0.16990  0.53897  0.45481  1.0000
  S   S288      1.0  0.33321  0.95545  0.38967  1.0000
  C   C2137     1.0  0.01788  0.48997  0.48542  1.0000
  H   H1685     1.0  0.10465  0.51066  0.44738  1.0000
  H   H1686     1.0  0.10007  0.53372  0.46558  1.0000
  H   H1687     1.0  0.13525  0.60144  0.46332  1.0000
  H   H1688     1.0  0.16665  0.62191  0.45902  1.0000
  H   H1689     1.0  0.20322  0.60313  0.46515  1.0000
  C   C2138     1.0  0.99479  0.96508  0.41621  1.0000
  H   H1690     1.0  0.46542  0.97301  0.41254  1.0000
  H   H1691     1.0  0.09457  0.56976  0.49740  1.0000
  H   H1692     1.0  0.05908  0.59453  0.49624  1.0000
  H   H1693     1.0  0.04803  0.61185  0.47322  1.0000
  H   H1694     1.0  0.07325  0.60478  0.45111  1.0000
  H   H1695     1.0  0.10949  0.58047  0.45200  1.0000
  C   C2139     1.0  0.15267  0.96715  0.44023  1.0000
  H   H1696     1.0  0.11537  0.95590  0.39583  1.0000
  S   S289      1.0  0.12964  0.52111  0.55523  1.0000
  C   C2140     1.0  0.99157  0.64543  0.38658  1.0000
  C   C2141     1.0  0.20027  0.89877  0.41499  1.0000
  H   H1697     1.0  0.18873  0.54249  0.38606  1.0000
  C   C2142     1.0  0.01507  0.88330  0.41058  1.0000
  C   C2143     1.0  0.20364  0.54982  0.38182  1.0000
  C   C2144     1.0  0.45926  0.86622  0.39714  1.0000
  C   C2145     1.0  0.46842  0.94783  0.43072  1.0000
  C   C2146     1.0  0.47300  0.97509  0.47516  1.0000
  C   C2147     1.0  0.44127  0.48682  0.45979  1.0000
  C   C2148     1.0  0.46068  0.78880  0.41169  1.0000
  C   C2149     1.0  0.48654  0.87125  0.37086  1.0000
  H   H1698     1.0  0.41615  0.76828  0.40730  1.0000
  H   H1699     1.0  0.26807  0.49635  0.39177  1.0000
  S   S290      1.0  0.07876  0.50655  0.54081  1.0000
  H   H1700     1.0  0.05088  0.92950  0.40540  1.0000
  C   C2150     1.0  0.16003  0.88685  0.44480  1.0000
  C   C2151     1.0  0.04959  0.71839  0.38373  1.0000
  C   C2152     1.0  0.42163  0.96093  0.40282  1.0000
  C   C2153     1.0  0.38640  0.79190  0.37270  1.0000
  C   C2154     1.0  0.17454  0.55989  0.47538  1.0000
  C   C2155     1.0  0.02321  0.87668  0.56697  1.0000
  P   P72       1.0  0.16776  0.92789  0.42944  1.0000
  H   H1701     1.0  0.36172  0.54025  0.55432  1.0000
  H   H1702     1.0  0.39964  0.95900  0.46168  1.0000
  C   C2156     1.0  0.04522  0.91987  0.54671  1.0000
  H   H1703     1.0  0.34954  0.49687  0.38373  1.0000
  C   C2157     1.0  0.30882  0.56468  0.37162  1.0000
  H   H1704     1.0  0.48147  0.80662  0.53551  1.0000
  H   H1705     1.0  0.04588  0.70320  0.39051  1.0000
  C   C2158     1.0  0.36453  0.79025  0.37177  1.0000
  H   H1706     1.0  0.32428  0.56599  0.40273  1.0000
  C   C2159     1.0  0.42813  0.95667  0.48838  1.0000
  H   H1707     1.0  0.99268  0.50234  0.47235  1.0000
  H   H1708     1.0  0.42004  0.49382  0.38286  1.0000
  H   H1709     1.0  0.36259  0.92912  0.37044  1.0000
  H   H1710     1.0  0.00253  0.97279  0.55260  1.0000
  C   C2160     1.0  0.16074  0.86990  0.45641  1.0000
  H   H1711     1.0  0.40385  0.73903  0.38735  1.0000
  H   H1712     1.0  0.14169  0.50115  0.43307  1.0000
  H   H1713     1.0  0.99354  0.91978  0.51244  1.0000
  H   H1714     1.0  0.46591  0.87629  0.53506  1.0000
  H   H1715     1.0  0.47229  0.93192  0.38436  1.0000
  H   H1716     1.0  0.07635  0.50442  0.48477  1.0000
  C   C2161     1.0  0.00507  0.92560  0.50325  1.0000
  H   H1717     1.0  0.98870  0.97597  0.40733  1.0000
  C   C2162     1.0  0.43640  0.81703  0.39862  1.0000
  S   S291      1.0  0.07466  0.49554  0.39775  1.0000
  P   P73       1.0  0.43011  0.84452  0.38890  1.0000
  C   C2163     1.0  0.40738  0.86063  0.39887  1.0000
  H   H1718     1.0  0.06493  0.55641  0.38786  1.0000
  C   C2164     1.0  0.21751  0.89366  0.40402  1.0000
  C   C2165     1.0  0.42199  0.80177  0.39977  1.0000
  H   H1719     1.0  0.01624  0.50532  0.48933  1.0000
  H   H1720     1.0  0.45964  0.59025  0.40370  1.0000
  H   H1721     1.0  0.30940  0.82952  0.38345  1.0000
  C   C2166     1.0  0.40165  0.88330  0.39409  1.0000
  H   H1722     1.0  0.99722  0.56008  0.52389  1.0000
  C   C2167     1.0  0.37294  0.88629  0.41453  1.0000
  C   C2168     1.0  0.37874  0.86383  0.41948  1.0000
  C   C2169     1.0  0.39590  0.85103  0.41172  1.0000
  C   C2170     1.0  0.28625  0.57375  0.37454  1.0000
  H   H1723     1.0  0.46350  0.52763  0.39118  1.0000
  C   C2171     1.0  0.09854  0.94233  0.41609  1.0000
  H   H1724     1.0  0.33978  0.47792  0.43265  1.0000
  C   C2172     1.0  0.99261  0.93238  0.43390  1.0000
  C   C2173     1.0  0.20270  0.56968  0.37236  1.0000
  C   C2174     1.0  0.34848  0.83897  0.36838  1.0000
  S   S292      1.0  0.43911  0.60643  0.55800  1.0000
  H   H1725     1.0  0.43269  0.86973  0.49542  1.0000
  H   H1726     1.0  0.40705  0.80651  0.39509  1.0000
  C   C2175     1.0  0.44648  0.77361  0.41255  1.0000
  C   C2176     1.0  0.47785  0.62296  0.42345  1.0000
  H   H1727     1.0  0.47011  0.85399  0.48405  1.0000
  H   H1728     1.0  0.46573  0.80401  0.47784  1.0000
  Fe  Fe149     1.0  0.46610  0.69188  0.37656  1.0000
  H   H1729     1.0  0.13611  0.96317  0.44171  1.0000
  C   C2177     1.0  0.37757  0.93958  0.56201  1.0000
  H   H1730     1.0  0.37989  0.91348  0.39818  1.0000
  H   H1731     1.0  0.35960  0.89624  0.42051  1.0000
  H   H1732     1.0  0.36993  0.85636  0.42938  1.0000
  H   H1733     1.0  0.40019  0.83375  0.41588  1.0000
  H   H1734     1.0  0.44515  0.90851  0.52008  1.0000
  H   H1735     1.0  0.44204  0.94391  0.55363  1.0000
  C   C2178     1.0  0.05167  0.91253  0.55997  1.0000
  H   H1736     1.0  0.17458  0.52375  0.55723  1.0000
  H   H1737     1.0  0.39267  0.80726  0.36871  1.0000
  C   C2179     1.0  0.45395  0.85847  0.38594  1.0000
  C   C2180     1.0  0.35918  0.97243  0.40316  1.0000
  C   C2181     1.0  0.46683  0.87087  0.48590  1.0000
  Fe  Fe150     1.0  0.05256  0.49755  0.55932  1.0000
  S   S293      1.0  0.46131  0.56047  0.53255  1.0000
  C   C2182     1.0  0.05845  0.57094  0.38096  1.0000
  C   C2183     1.0  0.99779  0.93388  0.49030  1.0000
  C   C2184     1.0  0.08066  0.59196  0.40374  1.0000
  H   H1738     1.0  0.41052  0.89114  0.38435  1.0000
  C   C2185     1.0  0.09837  0.57967  0.39592  1.0000
  P   P74       1.0  0.45330  0.94245  0.49476  1.0000
  C   C2186     1.0  0.13822  0.94271  0.41027  1.0000
  C   C2187     1.0  0.09552  0.96691  0.37144  1.0000
  Fe  Fe151     1.0  0.20235  0.48162  0.37181  1.0000
  C   C2188     1.0  0.07762  0.58808  0.41843  1.0000
  H   H1739     1.0  0.44017  0.90962  0.54542  1.0000
  H   H1740     1.0  0.14184  0.51631  0.40776  1.0000
  H   H1741     1.0  0.09544  0.94052  0.55511  1.0000
  H   H1742     1.0  0.47541  0.91990  0.44682  1.0000
  C   C2189     1.0  0.32873  0.53310  0.56365  1.0000
  H   H1743     1.0  0.39829  0.96496  0.55691  1.0000
  H   H1744     1.0  0.12827  0.50275  0.52982  1.0000
  H   H1745     1.0  0.10094  0.51691  0.41105  1.0000
  H   H1746     1.0  0.46735  0.82156  0.40399  1.0000
  C   C2190     1.0  0.05699  0.93429  0.53653  1.0000
  H   H1747     1.0  0.42530  0.90822  0.49974  1.0000
  C   C2191     1.0  0.30401  0.81897  0.37774  1.0000
  C   C2192     1.0  0.44309  0.92425  0.53779  1.0000
  C   C2193     1.0  0.47191  0.84100  0.53646  1.0000
  H   H1748     1.0  0.28453  0.58177  0.40810  1.0000
  H   H1749     1.0  0.08215  0.94668  0.41316  1.0000
  H   H1750     1.0  0.45022  0.81377  0.36956  1.0000
  C   C2194     1.0  0.37113  0.75156  0.38231  1.0000
  C   C2195     1.0  0.16656  0.48409  0.47988  1.0000
  H   H1751     1.0  0.06882  0.60409  0.39846  1.0000
  C   C2196     1.0  0.13525  0.50645  0.40221  1.0000
  H   H1752     1.0  0.34312  0.89381  0.38277  1.0000
  C   C2197     1.0  0.09230  0.57192  0.42543  1.0000
  H   H1753     1.0  0.17699  0.54260  0.48002  1.0000
  H   H1754     1.0  0.00382  0.79076  0.40112  1.0000
  C   C2198     1.0  0.32247  0.56208  0.38174  1.0000
  H   H1755     1.0  0.38745  0.48313  0.45975  1.0000
  C   C2199     1.0  0.38893  0.95468  0.56521  1.0000
  C   C2200     1.0  0.39944  0.68723  0.37709  1.0000
  S   S294      1.0  0.44889  0.96263  0.44237  1.0000
  C   C2201     1.0  0.47426  0.52649  0.41085  1.0000
  H   H1756     1.0  0.38393  0.94932  0.38071  1.0000
  H   H1757     1.0  0.18077  0.48978  0.49692  1.0000
  H   H1758     1.0  0.48234  0.88206  0.40391  1.0000
  C   C2202     1.0  0.35182  0.53129  0.56310  1.0000
  H   H1759     1.0  0.45999  0.83823  0.54603  1.0000
  C   C2203     1.0  0.36288  0.67689  0.38131  1.0000
  H   H1760     1.0  0.25899  0.53939  0.38287  1.0000
  C   C2204     1.0  0.47935  0.94882  0.56407  1.0000
  C   C2205     1.0  0.42792  0.58602  0.43631  1.0000
  C   C2206     1.0  0.40730  0.59199  0.44447  1.0000
  C   C2207     1.0  0.40623  0.59917  0.45720  1.0000
  H   H1761     1.0  0.37792  0.93822  0.55117  1.0000
  C   C2208     1.0  0.00456  0.48829  0.47591  1.0000
  C   C2209     1.0  0.38441  0.89601  0.40187  1.0000
  C   C2210     1.0  0.44642  0.59452  0.45360  1.0000
  C   C2211     1.0  0.11298  0.60686  0.36841  1.0000
  H   H1762     1.0  0.46141  0.59525  0.45743  1.0000
  H   H1763     1.0  0.41772  0.77463  0.37838  1.0000
  C   C2212     1.0  0.41354  0.48021  0.38068  1.0000
  H   H1764     1.0  0.00491  0.87044  0.41219  1.0000
  H   H1765     1.0  0.10110  0.60697  0.55168  1.0000
  C   C2213     1.0  0.47964  0.90558  0.48428  1.0000
  H   H1766     1.0  0.01309  0.52046  0.52764  1.0000
  H   H1767     1.0  0.20711  0.94831  0.42850  1.0000
  H   H1768     1.0  0.17424  0.49655  0.47225  1.0000
  H   H1769     1.0  0.98895  0.48335  0.40859  1.0000
  H   H1770     1.0  0.12183  0.54775  0.42310  1.0000
  H   H1771     1.0  0.22575  0.87681  0.40391  1.0000
  C   C2214     1.0  0.46769  0.86116  0.37274  1.0000
  H   H1772     1.0  0.42833  0.58034  0.42658  1.0000
  H   H1773     1.0  0.39215  0.59045  0.44112  1.0000
  H   H1774     1.0  0.39029  0.60305  0.46375  1.0000
  C   C2215     1.0  0.17009  0.87206  0.46778  1.0000
  S   S295      1.0  0.17858  0.49533  0.39000  1.0000
  H   H1775     1.0  0.99835  0.90171  0.55808  1.0000
  C   C2216     1.0  0.44869  0.96232  0.53272  1.0000
  H   H1776     1.0  0.00863  0.94572  0.46815  1.0000
  H   H1777     1.0  0.43250  0.93811  0.47134  1.0000
  C   C2217     1.0  0.12136  0.51840  0.49555  1.0000
  C   C2218     1.0  0.46112  0.50023  0.50241  1.0000
  C   C2219     1.0  0.47351  0.95679  0.41652  1.0000
  C   C2220     1.0  0.11824  0.48135  0.38763  1.0000
  H   H1778     1.0  0.98836  0.49236  0.53634  1.0000
  C   C2221     1.0  0.03539  0.94000  0.47975  1.0000
  S   S296      1.0  0.00124  0.53717  0.44084  1.0000
  H   H1779     1.0  0.08404  0.95299  0.53168  1.0000
  H   H1780     1.0  0.11599  0.56779  0.55968  1.0000
  C   C2222     1.0  0.06070  0.71792  0.36997  1.0000
  H   H1781     1.0  0.21922  0.94507  0.38501  1.0000
  H   H1782     1.0  0.18872  0.95411  0.40422  1.0000
  H   H1783     1.0  0.06335  0.59697  0.42438  1.0000
  H   H1784     1.0  0.02549  0.56244  0.38530  1.0000
  H   H1785     1.0  0.34703  0.67543  0.38806  1.0000
  H   H1786     1.0  0.10459  0.62374  0.38643  1.0000
  C   C2223     1.0  0.00180  0.84680  0.55869  1.0000
  C   C2224     1.0  0.01142  0.65089  0.38848  1.0000
  H   H1787     1.0  0.04719  0.90366  0.42762  1.0000
  H   H1788     1.0  0.46332  0.62606  0.43132  1.0000
  H   H1789     1.0  0.12729  0.55436  0.39730  1.0000
  C   C2225     1.0  0.07214  0.58648  0.37385  1.0000
  C   C2226     1.0  0.07533  0.94136  0.53946  1.0000
  C   C2227     1.0  0.31375  0.56852  0.39479  1.0000
  C   C2228     1.0  0.42703  0.78015  0.40671  1.0000
  H   H1790     1.0  0.42496  0.60547  0.47182  1.0000
  C   C2229     1.0  0.08179  0.93428  0.55263  1.0000
  H   H1791     1.0  0.44957  0.64727  0.37157  1.0000
  C   C2230     1.0  0.44598  0.92373  0.52337  1.0000
  C   C2231     1.0  0.37897  0.68549  0.38575  1.0000
  H   H1792     1.0  0.11471  0.51290  0.48772  1.0000
  H   H1793     1.0  0.99315  0.83529  0.55581  1.0000
  C   C2232     1.0  0.19229  0.57167  0.47293  1.0000
  C   C2233     1.0  0.17120  0.95321  0.43438  1.0000
  C   C2234     1.0  0.40356  0.96292  0.47108  1.0000
  C   C2235     1.0  0.47920  0.92682  0.43581  1.0000
  C   C2236     1.0  0.37945  0.63154  0.56370  1.0000
  C   C2237     1.0  0.04226  0.93265  0.49281  1.0000
  C   C2238     1.0  0.03901  0.90188  0.41924  1.0000
  C   C2239     1.0  0.02699  0.59346  0.37142  1.0000
  C   C2240     1.0  0.44426  0.94357  0.54245  1.0000
  C   C2241     1.0  0.44764  0.58705  0.44086  1.0000
  C   C2242     1.0  0.46628  0.53721  0.39854  1.0000
  H   H1794     1.0  0.35743  0.85819  0.39662  1.0000
  C   C2243     1.0  0.42579  0.60055  0.46173  1.0000
  C   C2244     1.0  0.39241  0.94026  0.37236  1.0000
  C   C2245     1.0  0.99959  0.60924  0.40096  1.0000
  H   H1795     1.0  0.32095  0.54333  0.55517  1.0000
  C   C2246     1.0  0.47588  0.95724  0.48615  1.0000
  C   C2247     1.0  0.11046  0.56025  0.41771  1.0000
  H   H1796     1.0  0.28479  0.51199  0.40788  1.0000
  H   H1797     1.0  0.45287  0.49836  0.45578  1.0000
  H   H1798     1.0  0.36537  0.73579  0.38573  1.0000
  H   H1799     1.0  0.03254  0.91909  0.51459  1.0000
  H   H1800     1.0  0.05153  0.94073  0.52650  1.0000
  H   H1801     1.0  0.18511  0.92268  0.45595  1.0000
  P   P75       1.0  0.03346  0.93288  0.37888  1.0000
  C   C2248     1.0  0.47889  0.49307  0.50981  1.0000
  C   C2249     1.0  0.45013  0.94261  0.51347  1.0000
  H   H1802     1.0  0.45079  0.75668  0.41752  1.0000
  Fe  Fe152     1.0  0.25459  0.97557  0.37716  1.0000
  C   C2250     1.0  0.39285  0.75337  0.38316  1.0000
  C   C2251     1.0  0.46116  0.56018  0.39600  1.0000
  P   P76       1.0  0.10034  0.58298  0.37707  1.0000
  C   C2252     1.0  0.47605  0.93964  0.37351  1.0000
  C   C2253     1.0  0.45989  0.49037  0.49107  1.0000
  H   H1803     1.0  0.06723  0.47763  0.45386  1.0000
  H   H1804     1.0  0.15282  0.88492  0.43603  1.0000
  H   H1805     1.0  0.39351  0.63350  0.55528  1.0000
  H   H1806     1.0  0.23783  0.90644  0.38476  1.0000
  C   C2254     1.0  0.11351  0.56408  0.40302  1.0000
  C   C2255     1.0  0.00902  0.95376  0.37784  1.0000
  C   C2256     1.0  0.35472  0.83877  0.38140  1.0000
  H   H1807     1.0  0.15221  0.94756  0.40261  1.0000
  H   H1808     1.0  0.34068  0.76769  0.37540  1.0000
  C   C2257     1.0  0.46399  0.57245  0.40577  1.0000
  H   H1809     1.0  0.41506  0.50818  0.45019  1.0000
  H   H1810     1.0  0.05932  0.93263  0.49382  1.0000
  H   H1811     1.0  0.33971  0.55444  0.37971  1.0000
  C   C2258     1.0  0.17885  0.89112  0.46752  1.0000
  C   C2259     1.0  0.42386  0.84146  0.37223  1.0000
  H   H1812     1.0  0.08923  0.56801  0.43680  1.0000
  H   H1813     1.0  0.01358  0.85430  0.38095  1.0000
  C   C2260     1.0  0.19249  0.95879  0.43290  1.0000
  H   H1814     1.0  0.36486  0.95546  0.40741  1.0000
  C   C2261     1.0  0.47181  0.56180  0.41823  1.0000
  C   C2262     1.0  0.29911  0.48774  0.37844  1.0000
  S   S297      1.0  0.99137  0.58344  0.40850  1.0000
  Fe  Fe153     1.0  0.47897  0.73843  0.36917  1.0000
  C   C2263     1.0  0.99262  0.79889  0.39388  1.0000
  C   C2264     1.0  0.01275  0.96954  0.42134  1.0000
  C   C2265     1.0  0.02717  0.92518  0.50451  1.0000
  C   C2266     1.0  0.04259  0.73849  0.38860  1.0000
  C   C2267     1.0  0.03608  0.57428  0.37957  1.0000
  H   H1815     1.0  0.36355  0.66518  0.55925  1.0000
  S   S298      1.0  0.44433  0.53976  0.56527  1.0000
  P   P77       1.0  0.43049  0.95603  0.37450  1.0000
  C   C2268     1.0  0.34507  0.87858  0.37866  1.0000
  C   C2269     1.0  0.47509  0.86247  0.53022  1.0000
  H   H1816     1.0  0.04619  0.59460  0.56576  1.0000
  C   C2270     1.0  0.11759  0.55920  0.37059  1.0000
  S   S299      1.0  0.47853  0.77274  0.37389  1.0000
  H   H1817     1.0  0.43239  0.61522  0.37021  1.0000
  H   H1818     1.0  0.40290  0.95870  0.52753  1.0000
  C   C2271     1.0  0.98777  0.94795  0.38260  1.0000
  H   H1819     1.0  0.32207  0.73216  0.56484  1.0000
  C   C2272     1.0  0.47808  0.87635  0.39520  1.0000
  H   H1820     1.0  0.48284  0.52988  0.43021  1.0000
  C   C2273     1.0  0.41525  0.97457  0.49430  1.0000
  H   H1821     1.0  0.04428  0.96740  0.39155  1.0000
  C   C2274     1.0  0.06996  0.92007  0.56288  1.0000
  H   H1822     1.0  0.35347  0.75065  0.56587  1.0000
  C   C2275     1.0  0.99522  0.52545  0.52974  1.0000
  H   H1823     1.0  0.00940  0.59642  0.37088  1.0000
  C   C2276     1.0  0.48444  0.82303  0.53055  1.0000
  C   C2277     1.0  0.38876  0.97177  0.52721  1.0000
  C   C2278     1.0  0.37015  0.96911  0.52215  1.0000
  H   H1824     1.0  0.09059  0.54281  0.36907  1.0000
  H   H1825     1.0  0.47943  0.65757  0.41673  1.0000
  H   H1826     1.0  0.09155  0.47834  0.43049  1.0000
  H   H1827     1.0  0.48649  0.52247  0.47286  1.0000
  C   C2279     1.0  0.02352  0.84160  0.37529  1.0000
  C   C2280     1.0  0.05846  0.96242  0.38382  1.0000
  C   C2281     1.0  0.17039  0.48019  0.49376  1.0000
  C   C2282     1.0  0.48210  0.54581  0.45399  1.0000
  H   H1828     1.0  0.18696  0.57798  0.36939  1.0000
  C   C2283     1.0  0.12358  0.64203  0.36898  1.0000
  C   C2284     1.0  0.02031  0.83904  0.56537  1.0000
  H   H1829     1.0  0.44225  0.64944  0.56295  1.0000
  C   C2285     1.0  0.36257  0.64935  0.56597  1.0000
  C   C2286     1.0  0.10130  0.60093  0.56277  1.0000
  H   H1830     1.0  0.47971  0.50081  0.51860  1.0000
  C   C2287     1.0  0.05484  0.81214  0.37311  1.0000
  C   C2288     1.0  0.01091  0.97560  0.37137  1.0000
  C   C2289     1.0  0.46940  0.96961  0.56767  1.0000
  H   H1831     1.0  0.02602  0.82144  0.56763  1.0000
  C   C2290     1.0  0.10963  0.57887  0.56726  1.0000
  H   H1832     1.0  0.39158  0.59735  0.57056  1.0000
  C   C2291     1.0  0.18959  0.69257  0.60490  1.0000
  C   C2292     1.0  0.25419  0.55388  0.75790  1.0000
  S   S300      1.0  0.02762  0.56023  0.58681  1.0000
  C   C2293     1.0  0.13317  0.50954  0.58372  1.0000
  H   H1833     1.0  0.18385  0.55725  0.62751  1.0000
  C   C2294     1.0  0.10342  0.63347  0.65641  1.0000
  H   H1834     1.0  0.48534  0.68955  0.65245  1.0000
  S   S301      1.0  0.24136  0.95705  0.62835  1.0000
  H   H1835     1.0  0.00632  0.96532  0.59244  1.0000
  Fe  Fe154     1.0  0.21947  0.93740  0.62163  1.0000
  S   S302      1.0  0.22117  0.90123  0.63260  1.0000
  S   S303      1.0  0.23170  0.94807  0.59856  1.0000
  C   C2295     1.0  0.14885  0.56932  0.63300  1.0000
  Fe  Fe155     1.0  0.35061  0.61919  0.67290  1.0000
  S   S304      1.0  0.34655  0.58568  0.68516  1.0000
  S   S305      1.0  0.38325  0.62016  0.65784  1.0000
  Fe  Fe156     1.0  0.30485  0.63913  0.68591  1.0000
  S   S306      1.0  0.29725  0.60704  0.69923  1.0000
  S   S307      1.0  0.28146  0.67074  0.68927  1.0000
  Fe  Fe157     1.0  0.33192  0.60263  0.70367  1.0000
  S   S308      1.0  0.34020  0.58457  0.72477  1.0000
  Fe  Fe158     1.0  0.31228  0.59242  0.67976  1.0000
  S   S309      1.0  0.30180  0.56221  0.67523  1.0000
  S   S310      1.0  0.33869  0.63579  0.69186  1.0000
  S   S311      1.0  0.31718  0.62484  0.66592  1.0000
  Fe  Fe159     1.0  0.26498  0.51195  0.59588  1.0000
  S   S312      1.0  0.27578  0.50834  0.61668  1.0000
  C   C2296     1.0  0.23050  0.72485  0.74875  1.0000
  Fe  Fe160     1.0  0.21795  0.50293  0.60912  1.0000
  S   S313      1.0  0.22571  0.49866  0.63118  1.0000
  H   H1836     1.0  0.00363  0.82412  0.64118  1.0000
  Fe  Fe161     1.0  0.24277  0.52837  0.62316  1.0000
  S   S314      1.0  0.23851  0.55978  0.63238  1.0000
  S   S315      1.0  0.23285  0.53397  0.60187  1.0000
  C   C2297     1.0  0.09461  0.65431  0.64996  1.0000
  C   C2298     1.0  0.15427  0.67905  0.61288  1.0000
  H   H1837     1.0  0.14221  0.61224  0.57656  1.0000
  Fe  Fe162     1.0  0.16193  0.79035  0.65050  1.0000
  S   S316      1.0  0.16862  0.76458  0.63649  1.0000
  S   S317      1.0  0.15840  0.82745  0.64161  1.0000
  Fe  Fe163     1.0  0.14993  0.75649  0.67657  1.0000
  S   S318      1.0  0.15528  0.72828  0.66447  1.0000
  S   S319      1.0  0.13585  0.75170  0.69993  1.0000
  Fe  Fe164     1.0  0.18599  0.74217  0.65323  1.0000
  S   S320      1.0  0.21622  0.71760  0.64618  1.0000
  Fe  Fe165     1.0  0.13748  0.75215  0.64854  1.0000
  S   S321      1.0  0.11586  0.74497  0.63413  1.0000
  S   S322      1.0  0.18198  0.76890  0.66642  1.0000
  S   S323      1.0  0.12949  0.77927  0.66149  1.0000
  S   S324      1.0  0.18378  0.77364  0.74596  1.0000
  Fe  Fe166     1.0  0.00437  0.68187  0.60283  1.0000
  C   C2299     1.0  0.03106  0.85388  0.56944  1.0000
  S   S325      1.0  0.02386  0.66282  0.58569  1.0000
  H   H1838     1.0  0.26318  0.57157  0.58606  1.0000
  C   C2300     1.0  0.48553  0.64011  0.72740  1.0000
  Fe  Fe167     1.0  0.01033  0.69641  0.62942  1.0000
  S   S326      1.0  0.03366  0.69272  0.64532  1.0000
  H   H1839     1.0  0.30080  0.91355  0.64393  1.0000
  S   S327      1.0  0.02034  0.70901  0.60662  1.0000
  H   H1840     1.0  0.40069  0.63203  0.58742  1.0000
  C   C2301     1.0  0.14913  0.75837  0.71256  1.0000
  C   C2302     1.0  0.17032  0.76437  0.70897  1.0000
  C   C2303     1.0  0.18072  0.76874  0.71938  1.0000
  C   C2304     1.0  0.17013  0.76709  0.73348  1.0000
  C   C2305     1.0  0.14887  0.76127  0.73707  1.0000
  C   C2306     1.0  0.13839  0.75704  0.72662  1.0000
  H   H1841     1.0  0.17877  0.76547  0.69821  1.0000
  H   H1842     1.0  0.19713  0.77332  0.71649  1.0000
  H   H1843     1.0  0.14046  0.76016  0.74786  1.0000
  H   H1844     1.0  0.12196  0.75245  0.72949  1.0000
  C   C2307     1.0  0.09245  0.73116  0.63777  1.0000
  C   C2308     1.0  0.08522  0.71982  0.65113  1.0000
  C   C2309     1.0  0.06704  0.70836  0.65332  1.0000
  C   C2310     1.0  0.05578  0.70828  0.64223  1.0000
  C   C2311     1.0  0.06286  0.71992  0.62893  1.0000
  C   C2312     1.0  0.08114  0.73118  0.62671  1.0000
  H   H1845     1.0  0.09365  0.71984  0.65975  1.0000
  H   H1846     1.0  0.06157  0.69960  0.66368  1.0000
  H   H1847     1.0  0.05444  0.72005  0.62029  1.0000
  H   H1848     1.0  0.08655  0.73995  0.61634  1.0000
  C   C2313     1.0  0.26363  0.68363  0.67710  1.0000
  C   C2314     1.0  0.26478  0.67587  0.66454  1.0000
  C   C2315     1.0  0.25022  0.68648  0.65512  1.0000
  C   C2316     1.0  0.23413  0.70462  0.65830  1.0000
  C   C2317     1.0  0.23284  0.71223  0.67093  1.0000
  C   C2318     1.0  0.24772  0.70191  0.68021  1.0000
  H   H1849     1.0  0.27682  0.66168  0.66209  1.0000
  H   H1850     1.0  0.25131  0.68047  0.64540  1.0000
  H   H1851     1.0  0.22055  0.72623  0.67347  1.0000
  H   H1852     1.0  0.24678  0.70804  0.68989  1.0000
  C   C2319     1.0  0.39910  0.64173  0.65489  1.0000
  C   C2320     1.0  0.41957  0.63991  0.64579  1.0000
  C   C2321     1.0  0.43238  0.65701  0.64268  1.0000
  C   C2322     1.0  0.42471  0.67620  0.64853  1.0000
  C   C2323     1.0  0.40437  0.67794  0.65782  1.0000
  C   C2324     1.0  0.39161  0.66073  0.66103  1.0000
  H   H1853     1.0  0.42553  0.62526  0.64105  1.0000
  H   H1854     1.0  0.33674  0.64989  0.74642  1.0000
  H   H1855     1.0  0.39834  0.69274  0.66241  1.0000
  H   H1856     1.0  0.37587  0.66232  0.66806  1.0000
  C   C2325     1.0  0.28431  0.56228  0.66310  1.0000
  C   C2326     1.0  0.28059  0.54197  0.66082  1.0000
  C   C2327     1.0  0.26679  0.54108  0.65130  1.0000
  C   C2328     1.0  0.25666  0.56055  0.64392  1.0000
  C   C2329     1.0  0.26049  0.58095  0.64609  1.0000
  C   C2330     1.0  0.27431  0.58183  0.65565  1.0000
  H   H1857     1.0  0.28831  0.52679  0.66653  1.0000
  H   H1858     1.0  0.26386  0.52530  0.64975  1.0000
  H   H1859     1.0  0.25266  0.59609  0.64042  1.0000
  H   H1860     1.0  0.27715  0.59757  0.65731  1.0000
  C   C2331     1.0  0.34781  0.58620  0.75096  1.0000
  C   C2332     1.0  0.34204  0.59857  0.73830  1.0000
  C   C2333     1.0  0.33810  0.62158  0.73668  1.0000
  C   C2334     1.0  0.33990  0.63210  0.74770  1.0000
  H   H1861     1.0  0.35099  0.56840  0.75225  1.0000
  H   H1862     1.0  0.33385  0.63124  0.72692  1.0000
  C   C2335     1.0  0.48188  0.93036  0.57466  1.0000
  H   H1863     1.0  0.11411  0.53118  0.62739  1.0000
  C   C2336     1.0  0.10057  0.58479  0.59159  1.0000
  H   H1864     1.0  0.37170  0.49551  0.61380  1.0000
  C   C2337     1.0  0.32590  0.50851  0.58597  1.0000
  C   C2338     1.0  0.34901  0.50617  0.58520  1.0000
  H   H1865     1.0  0.05074  0.57524  0.61992  1.0000
  H   H1866     1.0  0.31606  0.49975  0.59485  1.0000
  H   H1867     1.0  0.35680  0.49560  0.59350  1.0000
  C   C2339     1.0  0.17613  0.84768  0.63935  1.0000
  C   C2340     1.0  0.16919  0.86929  0.63269  1.0000
  C   C2341     1.0  0.18269  0.88586  0.63048  1.0000
  C   C2342     1.0  0.20335  0.88104  0.63497  1.0000
  C   C2343     1.0  0.21012  0.85951  0.64182  1.0000
  C   C2344     1.0  0.19665  0.84293  0.64401  1.0000
  H   H1868     1.0  0.15335  0.87320  0.62906  1.0000
  H   H1869     1.0  0.17717  0.90229  0.62524  1.0000
  H   H1870     1.0  0.22598  0.85560  0.64543  1.0000
  H   H1871     1.0  0.20222  0.82649  0.64921  1.0000
  C   C2345     1.0  0.12255  0.65074  0.62905  1.0000
  H   H1872     1.0  0.33120  0.72419  0.61994  1.0000
  H   H1873     1.0  0.12848  0.60498  0.65425  1.0000
  C   C2346     1.0  0.38946  0.49511  0.61238  1.0000
  H   H1874     1.0  0.09670  0.73140  0.58634  1.0000
  C   C2347     1.0  0.03953  0.60411  0.62939  1.0000
  C   C2348     1.0  0.12611  0.57067  0.61521  1.0000
  C   C2349     1.0  0.14512  0.50532  0.59503  1.0000
  C   C2350     1.0  0.16769  0.50761  0.59283  1.0000
  C   C2351     1.0  0.41481  0.91482  0.60527  1.0000
  C   C2352     1.0  0.36522  0.92794  0.58686  1.0000
  C   C2353     1.0  0.02717  0.58864  0.58652  1.0000
  C   C2354     1.0  0.01592  0.59827  0.59824  1.0000
  C   C2355     1.0  0.01487  0.62094  0.59824  1.0000
  C   C2356     1.0  0.02510  0.63414  0.58649  1.0000
  H   H1875     1.0  0.40973  0.91146  0.59610  1.0000
  C   C2357     1.0  0.01230  0.83132  0.60537  1.0000
  H   H1876     1.0  0.00786  0.58816  0.60730  1.0000
  H   H1877     1.0  0.00594  0.62826  0.60723  1.0000
  H   H1878     1.0  0.31328  0.69990  0.58285  1.0000
  C   C2358     1.0  0.12023  0.94223  0.63514  1.0000
  H   H1879     1.0  0.15567  0.96161  0.60198  1.0000
  C   C2359     1.0  0.33380  0.53625  0.62877  1.0000
  C   C2360     1.0  0.14881  0.69312  0.62294  1.0000
  H   H1880     1.0  0.18714  0.91795  0.65723  1.0000
  C   C2361     1.0  0.99208  0.91021  0.58709  1.0000
  C   C2362     1.0  0.33465  0.70913  0.62728  1.0000
  P   P78       1.0  0.39111  0.66657  0.71795  1.0000
  C   C2363     1.0  0.40446  0.68408  0.70307  1.0000
  C   C2364     1.0  0.39307  0.63946  0.71349  1.0000
  C   C2365     1.0  0.39319  0.62059  0.72394  1.0000
  C   C2366     1.0  0.39389  0.59987  0.72044  1.0000
  C   C2367     1.0  0.39447  0.59774  0.70651  1.0000
  C   C2368     1.0  0.39454  0.61633  0.69602  1.0000
  C   C2369     1.0  0.39361  0.63712  0.69949  1.0000
  C   C2370     1.0  0.42417  0.67550  0.69482  1.0000
  C   C2371     1.0  0.43396  0.68873  0.68294  1.0000
  C   C2372     1.0  0.42441  0.71068  0.67933  1.0000
  C   C2373     1.0  0.40513  0.71950  0.68765  1.0000
  C   C2374     1.0  0.39517  0.70629  0.69950  1.0000
  C   C2375     1.0  0.36202  0.67832  0.72143  1.0000
  C   C2376     1.0  0.35375  0.69063  0.73238  1.0000
  C   C2377     1.0  0.33116  0.69943  0.73497  1.0000
  C   C2378     1.0  0.31679  0.69651  0.72644  1.0000
  C   C2379     1.0  0.32504  0.68497  0.71523  1.0000
  C   C2380     1.0  0.34755  0.67595  0.71273  1.0000
  H   H1881     1.0  0.37811  0.65063  0.74800  1.0000
  H   H1882     1.0  0.39206  0.62166  0.73488  1.0000
  H   H1883     1.0  0.39309  0.58552  0.72863  1.0000
  H   H1884     1.0  0.39430  0.58177  0.70389  1.0000
  C   C2381     1.0  0.46294  0.97201  0.58186  1.0000
  C   C2382     1.0  0.39825  0.50912  0.61859  1.0000
  H   H1885     1.0  0.43164  0.65843  0.69735  1.0000
  H   H1886     1.0  0.29878  0.53965  0.62838  1.0000
  H   H1887     1.0  0.43170  0.72069  0.66988  1.0000
  C   C2383     1.0  0.05585  0.58903  0.62282  1.0000
  H   H1888     1.0  0.36465  0.69348  0.73892  1.0000
  H   H1889     1.0  0.32476  0.70851  0.74360  1.0000
  H   H1890     1.0  0.29930  0.70337  0.72843  1.0000
  H   H1891     1.0  0.31399  0.68303  0.70842  1.0000
  H   H1892     1.0  0.35368  0.66725  0.70394  1.0000
  P   P79       1.0  0.03802  0.79969  0.62251  1.0000
  C   C2384     1.0  0.02555  0.77928  0.63576  1.0000
  C   C2385     1.0  0.06027  0.80745  0.62901  1.0000
  C   C2386     1.0  0.08216  0.79653  0.62595  1.0000
  C   C2387     1.0  0.09942  0.80234  0.63098  1.0000
  C   C2388     1.0  0.09498  0.81872  0.63937  1.0000
  C   C2389     1.0  0.07318  0.82923  0.64283  1.0000
  C   C2390     1.0  0.05589  0.82361  0.63771  1.0000
  C   C2391     1.0  0.15599  0.87286  0.73154  1.0000
  H   H1893     1.0  0.02231  0.60172  0.63145  1.0000
  C   C2392     1.0  0.16779  0.56131  0.62406  1.0000
  H   H1894     1.0  0.32399  0.59799  0.57623  1.0000
  C   C2393     1.0  0.03687  0.76723  0.64657  1.0000
  H   H1895     1.0  0.08596  0.78318  0.61991  1.0000
  H   H1896     1.0  0.11626  0.79375  0.62861  1.0000
  H   H1897     1.0  0.10845  0.82304  0.64329  1.0000
  H   H1898     1.0  0.06665  0.55659  0.59914  1.0000
  C   C2394     1.0  0.43499  0.67019  0.74338  1.0000
  H   H1899     1.0  0.98758  0.89509  0.58563  1.0000
  S   S328      1.0  0.06816  0.51004  0.57448  1.0000
  H   H1900     1.0  0.05213  0.86675  0.62164  1.0000
  H   H1901     1.0  0.05356  0.76945  0.64701  1.0000
  S   S329      1.0  0.08480  0.97484  0.58437  1.0000
  H   H1902     1.0  0.19484  0.60056  0.60083  1.0000
  C   C2395     1.0  0.06790  0.52258  0.60859  1.0000
  C   C2396     1.0  0.34338  0.67095  0.64673  1.0000
  C   C2397     1.0  0.35419  0.69405  0.62447  1.0000
  C   C2398     1.0  0.35850  0.67496  0.63432  1.0000
  P   P80       1.0  0.37388  0.70003  0.60862  1.0000
  C   C2399     1.0  0.39288  0.67521  0.60525  1.0000
  C   C2400     1.0  0.35798  0.71014  0.59445  1.0000
  H   H1903     1.0  0.35998  0.59246  0.58996  1.0000
  C   C2401     1.0  0.36262  0.72861  0.58431  1.0000
  C   C2402     1.0  0.41246  0.66961  0.61114  1.0000
  C   C2403     1.0  0.42754  0.65073  0.60846  1.0000
  C   C2404     1.0  0.42304  0.63709  0.60010  1.0000
  C   C2405     1.0  0.40365  0.64244  0.59421  1.0000
  C   C2406     1.0  0.38857  0.66145  0.59675  1.0000
  C   C2407     1.0  0.39053  0.71958  0.61064  1.0000
  C   C2408     1.0  0.38749  0.72779  0.62331  1.0000
  C   C2409     1.0  0.40160  0.74161  0.62507  1.0000
  C   C2410     1.0  0.41873  0.74744  0.61422  1.0000
  C   C2411     1.0  0.42188  0.73932  0.60162  1.0000
  C   C2412     1.0  0.40815  0.72511  0.59992  1.0000
  H   H1904     1.0  0.34702  0.65638  0.65438  1.0000
  H   H1905     1.0  0.37360  0.66324  0.63261  1.0000
  H   H1906     1.0  0.10067  0.61438  0.62038  1.0000
  C   C2413     1.0  0.24902  0.65844  0.74382  1.0000
  H   H1907     1.0  0.41628  0.67991  0.61771  1.0000
  H   H1908     1.0  0.44299  0.64684  0.61263  1.0000
  H   H1909     1.0  0.43501  0.62271  0.59785  1.0000
  H   H1910     1.0  0.26695  0.75049  0.75871  1.0000
  H   H1911     1.0  0.37386  0.66535  0.59191  1.0000
  H   H1912     1.0  0.37476  0.72306  0.63202  1.0000
  H   H1913     1.0  0.39965  0.74732  0.63501  1.0000
  H   H1914     1.0  0.42996  0.75778  0.61566  1.0000
  H   H1915     1.0  0.43555  0.74343  0.59335  1.0000
  H   H1916     1.0  0.41162  0.71805  0.59036  1.0000
  C   C2414     1.0  0.20181  0.69741  0.71285  1.0000
  C   C2415     1.0  0.17971  0.70584  0.71753  1.0000
  C   C2416     1.0  0.17240  0.70680  0.73179  1.0000
  C   C2417     1.0  0.18716  0.69952  0.74137  1.0000
  C   C2418     1.0  0.20924  0.69026  0.73686  1.0000
  C   C2419     1.0  0.21655  0.68955  0.72245  1.0000
  C   C2420     1.0  0.01378  0.91496  0.58236  1.0000
  H   H1917     1.0  0.20522  0.69275  0.59774  1.0000
  H   H1918     1.0  0.07334  0.48888  0.61899  1.0000
  H   H1919     1.0  0.45323  0.49396  0.60618  1.0000
  C   C2421     1.0  0.24808  0.63647  0.75027  1.0000
  C   C2422     1.0  0.09269  0.61499  0.57261  1.0000
  C   C2423     1.0  0.34564  0.61971  0.76037  1.0000
  C   C2424     1.0  0.08377  0.61104  0.62314  1.0000
  C   C2425     1.0  0.31716  0.54762  0.60773  1.0000
  C   C2426     1.0  0.16622  0.51870  0.56779  1.0000
  H   H1920     1.0  0.28628  0.71191  0.76300  1.0000
  C   C2427     1.0  0.28263  0.64597  0.72821  1.0000
  S   S330      1.0  0.18186  0.50164  0.60757  1.0000
  P   P81       1.0  0.03522  0.89582  0.57375  1.0000
  H   H1921     1.0  0.20750  0.69723  0.70173  1.0000
  H   H1922     1.0  0.16831  0.71204  0.71009  1.0000
  H   H1923     1.0  0.15533  0.71361  0.73540  1.0000
  C   C2428     1.0  0.39404  0.65606  0.74654  1.0000
  H   H1924     1.0  0.23354  0.68313  0.71849  1.0000
  H   H1925     1.0  0.26335  0.60263  0.75071  1.0000
  H   H1926     1.0  0.23506  0.63228  0.75890  1.0000
  H   H1927     1.0  0.13264  0.69457  0.62950  1.0000
  H   H1928     1.0  0.17864  0.66979  0.59511  1.0000
  C   C2429     1.0  0.46633  0.64533  0.57678  1.0000
  H   H1929     1.0  0.05493  0.52017  0.60339  1.0000
  H   H1930     1.0  0.23118  0.75871  0.74973  1.0000
  C   C2430     1.0  0.00173  0.83120  0.63043  1.0000
  H   H1931     1.0  0.11589  0.50744  0.58564  1.0000
  C   C2431     1.0  0.31286  0.93266  0.62417  1.0000
  C   C2432     1.0  0.33599  0.91419  0.64144  1.0000
  C   C2433     1.0  0.35450  0.92198  0.63268  1.0000
  C   C2434     1.0  0.35232  0.93512  0.61953  1.0000
  C   C2435     1.0  0.33131  0.94043  0.61542  1.0000
  P   P82       1.0  0.37592  0.94579  0.60816  1.0000
  H   H1932     1.0  0.37589  0.73729  0.58462  1.0000
  C   C2436     1.0  0.40167  0.93045  0.61318  1.0000
  C   C2437     1.0  0.40903  0.93448  0.62492  1.0000
  C   C2438     1.0  0.42925  0.92313  0.62864  1.0000
  C   C2439     1.0  0.20100  0.97504  0.71625  1.0000
  H   H1933     1.0  0.10427  0.85081  0.58772  1.0000
  P   P83       1.0  0.22803  0.68061  0.74949  1.0000
  H   H1934     1.0  0.99524  0.78418  0.62696  1.0000
  C   C2440     1.0  0.34978  0.73639  0.57364  1.0000
  H   H1935     1.0  0.11345  0.57874  0.63607  1.0000
  C   C2441     1.0  0.35271  0.51752  0.67057  1.0000
  H   H1936     1.0  0.29896  0.57630  0.57055  1.0000
  H   H1937     1.0  0.17997  0.95014  0.71998  1.0000
  C   C2442     1.0  0.09093  0.54682  0.61314  1.0000
  H   H1938     1.0  0.33137  0.53083  0.63999  1.0000
  H   H1939     1.0  0.33596  0.68580  0.60164  1.0000
  C   C2443     1.0  0.48378  0.73302  0.66874  1.0000
  C   C2444     1.0  0.31502  0.54124  0.62224  1.0000
  H   H1940     1.0  0.29672  0.93692  0.62083  1.0000
  H   H1941     1.0  0.37039  0.91763  0.63622  1.0000
  H   H1942     1.0  0.18040  0.55038  0.60416  1.0000
  H   H1943     1.0  0.39922  0.94657  0.63110  1.0000
  H   H1944     1.0  0.43496  0.92650  0.63760  1.0000
  C   C2445     1.0  0.26163  0.69840  0.75618  1.0000
  H   H1945     1.0  0.19615  0.71566  0.61672  1.0000
  C   C2446     1.0  0.13630  0.95310  0.63770  1.0000
  H   H1946     1.0  0.09697  0.67922  0.63160  1.0000
  C   C2447     1.0  0.29085  0.56179  0.74680  1.0000
  H   H1947     1.0  0.33240  0.96963  0.57928  1.0000
  H   H1948     1.0  0.08011  0.66364  0.65542  1.0000
  C   C2448     1.0  0.18065  0.96766  0.71786  1.0000
  C   C2449     1.0  0.07448  0.54329  0.60627  1.0000
  H   H1949     1.0  0.35463  0.54535  0.65407  1.0000
  H   H1950     1.0  0.03545  0.93887  0.58128  1.0000
  C   C2450     1.0  0.13256  0.97610  0.63646  1.0000
  P   P84       1.0  0.37988  0.52844  0.62876  1.0000
  C   C2451     1.0  0.37247  0.51533  0.64680  1.0000
  C   C2452     1.0  0.39407  0.55178  0.62725  1.0000
  C   C2453     1.0  0.39900  0.55790  0.63917  1.0000
  C   C2454     1.0  0.41087  0.57531  0.63771  1.0000
  C   C2455     1.0  0.41846  0.58638  0.62437  1.0000
  C   C2456     1.0  0.41415  0.58009  0.61244  1.0000
  C   C2457     1.0  0.40204  0.56292  0.61386  1.0000
  C   C2458     1.0  0.35971  0.52777  0.65687  1.0000
  C   C2459     1.0  0.35508  0.53748  0.62073  1.0000
  C   C2460     1.0  0.35697  0.54400  0.60608  1.0000
  H   H1951     1.0  0.39405  0.54926  0.64963  1.0000
  H   H1952     1.0  0.41419  0.58027  0.64697  1.0000
  H   H1953     1.0  0.42787  0.59969  0.62330  1.0000
  H   H1954     1.0  0.42051  0.58822  0.60203  1.0000
  H   H1955     1.0  0.39972  0.55792  0.60442  1.0000
  H   H1956     1.0  0.33972  0.55388  0.58835  1.0000
  H   H1957     1.0  0.37302  0.54367  0.59938  1.0000
  P   P85       1.0  0.13453  0.66215  0.61139  1.0000
  C   C2461     1.0  0.11234  0.67911  0.60293  1.0000
  C   C2462     1.0  0.14833  0.63981  0.60194  1.0000
  C   C2463     1.0  0.13896  0.63420  0.59147  1.0000
  C   C2464     1.0  0.14963  0.61664  0.58451  1.0000
  C   C2465     1.0  0.16982  0.60466  0.58782  1.0000
  C   C2466     1.0  0.17933  0.61013  0.59814  1.0000
  C   C2467     1.0  0.16869  0.62765  0.60513  1.0000
  C   C2468     1.0  0.09333  0.67029  0.60261  1.0000
  C   C2469     1.0  0.07606  0.68314  0.59610  1.0000
  C   C2470     1.0  0.07737  0.70509  0.59013  1.0000
  C   C2471     1.0  0.09594  0.71422  0.59069  1.0000
  C   C2472     1.0  0.11343  0.70129  0.59702  1.0000
  C   C2473     1.0  0.13134  0.62976  0.63567  1.0000
  H   H1958     1.0  0.12352  0.64326  0.58852  1.0000
  C   C2474     1.0  0.12470  0.96713  0.59396  1.0000
  H   H1959     1.0  0.39714  0.96848  0.58142  1.0000
  C   C2475     1.0  0.28487  0.56395  0.73357  1.0000
  H   H1960     1.0  0.09192  0.65340  0.60727  1.0000
  H   H1961     1.0  0.06153  0.67613  0.59576  1.0000
  H   H1962     1.0  0.44537  0.89195  0.60262  1.0000
  C   C2476     1.0  0.07814  0.50504  0.61747  1.0000
  H   H1963     1.0  0.12757  0.70879  0.59738  1.0000
  H   H1964     1.0  0.14542  0.61978  0.63045  1.0000
  C   C2477     1.0  0.16591  0.83406  0.74035  1.0000
  H   H1965     1.0  0.03262  0.63441  0.63785  1.0000
  H   H1966     1.0  0.19549  0.51636  0.57723  1.0000
  C   C2478     1.0  0.16063  0.86847  0.71775  1.0000
  C   C2479     1.0  0.16813  0.84679  0.71516  1.0000
  C   C2480     1.0  0.17056  0.82965  0.72660  1.0000
  P   P86       1.0  0.17366  0.84066  0.69744  1.0000
  C   C2481     1.0  0.15048  0.82993  0.69417  1.0000
  C   C2482     1.0  0.17799  0.86542  0.68493  1.0000
  C   C2483     1.0  0.15969  0.88075  0.68101  1.0000
  C   C2484     1.0  0.16296  0.89970  0.67111  1.0000
  C   C2485     1.0  0.31518  0.91953  0.63718  1.0000
  C   C2486     1.0  0.20275  0.88861  0.66920  1.0000
  C   C2487     1.0  0.19957  0.86956  0.67901  1.0000
  C   C2488     1.0  0.14570  0.83313  0.68046  1.0000
  C   C2489     1.0  0.12800  0.82458  0.67787  1.0000
  C   C2490     1.0  0.11525  0.81233  0.68885  1.0000
  C   C2491     1.0  0.12007  0.80881  0.70246  1.0000
  C   C2492     1.0  0.13762  0.81751  0.70513  1.0000
  C   C2493     1.0  0.19826  0.82018  0.69510  1.0000
  C   C2494     1.0  0.21489  0.81765  0.70338  1.0000
  C   C2495     1.0  0.23367  0.80148  0.70167  1.0000
  C   C2496     1.0  0.23620  0.78802  0.69151  1.0000
  C   C2497     1.0  0.22005  0.79086  0.68297  1.0000
  C   C2498     1.0  0.20117  0.80690  0.68473  1.0000
  C   C2499     1.0  0.06736  0.62605  0.62974  1.0000
  C   C2500     1.0  0.37115  0.48222  0.66446  1.0000
  S   S331      1.0  0.28806  0.96819  0.59442  1.0000
  H   H1967     1.0  0.15836  0.88202  0.70920  1.0000
  H   H1968     1.0  0.17604  0.81279  0.72490  1.0000
  H   H1969     1.0  0.14290  0.87791  0.68547  1.0000
  H   H1970     1.0  0.14884  0.91120  0.66784  1.0000
  H   H1971     1.0  0.21940  0.89146  0.66428  1.0000
  H   H1972     1.0  0.21399  0.85802  0.68173  1.0000
  H   H1973     1.0  0.15587  0.84182  0.67166  1.0000
  H   H1974     1.0  0.12459  0.82697  0.66724  1.0000
  H   H1975     1.0  0.10205  0.80499  0.68676  1.0000
  H   H1976     1.0  0.45808  0.89915  0.62340  1.0000
  H   H1977     1.0  0.14135  0.81392  0.71570  1.0000
  H   H1978     1.0  0.21334  0.82801  0.71123  1.0000
  H   H1979     1.0  0.24617  0.79928  0.70831  1.0000
  H   H1980     1.0  0.25066  0.77539  0.69024  1.0000
  H   H1981     1.0  0.22209  0.78053  0.67503  1.0000
  H   H1982     1.0  0.18885  0.80883  0.67800  1.0000
  C   C2501     1.0  0.07969  0.85739  0.60576  1.0000
  C   C2502     1.0  0.14634  0.97089  0.59395  1.0000
  H   H1983     1.0  0.18127  0.70129  0.75228  1.0000
  C   C2503     1.0  0.28153  0.62418  0.73469  1.0000
  H   H1984     1.0  0.15183  0.94369  0.64045  1.0000
  H   H1985     1.0  0.21607  0.96325  0.71714  1.0000
  H   H1986     1.0  0.33163  0.66065  0.57841  1.0000
  H   H1987     1.0  0.07468  0.91573  0.57322  1.0000
  C   C2504     1.0  0.42464  0.66140  0.75671  1.0000
  H   H1988     1.0  0.13691  0.49987  0.60556  1.0000
  C   C2505     1.0  0.23998  0.74193  0.75123  1.0000
  H   H1989     1.0  0.11070  0.79861  0.71087  1.0000
  H   H1990     1.0  0.27694  0.61080  0.61360  1.0000
  H   H1991     1.0  0.17795  0.59093  0.58249  1.0000
  H   H1992     1.0  0.04505  0.84735  0.57483  1.0000
  C   C2506     1.0  0.10921  0.57081  0.58159  1.0000
  H   H1993     1.0  0.29678  0.56803  0.72417  1.0000
  H   H1994     1.0  0.19265  0.65354  0.75742  1.0000
  Fe  Fe168     1.0  0.25174  0.96947  0.60527  1.0000
  H   H1995     1.0  0.15027  0.57141  0.64343  1.0000
  S   S332      1.0  0.28674  0.52451  0.57561  1.0000
  H   H1996     1.0  0.11518  0.55352  0.58485  1.0000
  C   C2507     1.0  0.32717  0.70778  0.58320  1.0000
  C   C2508     1.0  0.33805  0.54947  0.59969  1.0000
  C   C2509     1.0  0.40420  0.65427  0.75827  1.0000
  H   H1997     1.0  0.44857  0.68183  0.67621  1.0000
  Fe  Fe169     1.0  0.20376  0.97671  0.59992  1.0000
  C   C2510     1.0  0.16404  0.70594  0.62443  1.0000
  H   H1998     1.0  0.21446  0.72883  0.74532  1.0000
  H   H1999     1.0  0.30268  0.55035  0.60269  1.0000
  S   S333      1.0  0.44023  0.69814  0.64437  1.0000
  H   H2000     1.0  0.44813  0.65542  0.63564  1.0000
  H   H2001     1.0  0.08035  0.87108  0.57051  1.0000
  C   C2511     1.0  0.13822  0.66303  0.68612  1.0000
  C   C2512     1.0  0.12774  0.67729  0.67572  1.0000
  C   C2513     1.0  0.13587  0.67615  0.66156  1.0000
  C   C2514     1.0  0.15465  0.66090  0.65771  1.0000
  C   C2515     1.0  0.16556  0.64684  0.66810  1.0000
  C   C2516     1.0  0.15696  0.64776  0.68235  1.0000
  P   P87       1.0  0.19016  0.62733  0.66343  1.0000
  C   C2517     1.0  0.20339  0.63649  0.64565  1.0000
  C   C2518     1.0  0.21001  0.62824  0.67449  1.0000
  C   C2519     1.0  0.21008  0.64791  0.67933  1.0000
  C   C2520     1.0  0.22529  0.64886  0.68783  1.0000
  C   C2521     1.0  0.24105  0.63050  0.69123  1.0000
  C   C2522     1.0  0.24157  0.61103  0.68619  1.0000
  C   C2523     1.0  0.22606  0.60983  0.67792  1.0000
  C   C2524     1.0  0.21182  0.65649  0.64253  1.0000
  C   C2525     1.0  0.22338  0.66326  0.62914  1.0000
  C   C2526     1.0  0.22671  0.65011  0.61875  1.0000
  C   C2527     1.0  0.21789  0.63049  0.62162  1.0000
  C   C2528     1.0  0.20594  0.62386  0.63493  1.0000
  C   C2529     1.0  0.18300  0.59988  0.66589  1.0000
  C   C2530     1.0  0.16181  0.59556  0.67279  1.0000
  C   C2531     1.0  0.15638  0.57437  0.67465  1.0000
  C   C2532     1.0  0.17199  0.55731  0.66962  1.0000
  C   C2533     1.0  0.19306  0.56141  0.66278  1.0000
  C   C2534     1.0  0.19856  0.58251  0.66100  1.0000
  H   H2002     1.0  0.13195  0.66406  0.69711  1.0000
  H   H2003     1.0  0.11343  0.68940  0.67863  1.0000
  H   H2004     1.0  0.12768  0.68741  0.65362  1.0000
  H   H2005     1.0  0.16076  0.66034  0.64668  1.0000
  H   H2006     1.0  0.16495  0.63689  0.69055  1.0000
  H   H2007     1.0  0.19857  0.66270  0.67649  1.0000
  H   H2008     1.0  0.22522  0.66402  0.69154  1.0000
  H   H2009     1.0  0.25301  0.63161  0.69761  1.0000
  H   H2010     1.0  0.25413  0.59687  0.68857  1.0000
  H   H2011     1.0  0.22700  0.59457  0.67416  1.0000
  H   H2012     1.0  0.20960  0.66693  0.65043  1.0000
  H   H2013     1.0  0.22972  0.67876  0.62692  1.0000
  H   H2014     1.0  0.23595  0.65520  0.60845  1.0000
  H   H2015     1.0  0.22040  0.62028  0.61357  1.0000
  H   H2016     1.0  0.19903  0.60880  0.63670  1.0000
  H   H2017     1.0  0.14939  0.60843  0.67679  1.0000
  H   H2018     1.0  0.14009  0.57112  0.68007  1.0000
  H   H2019     1.0  0.16785  0.54087  0.67105  1.0000
  H   H2020     1.0  0.20527  0.54822  0.65883  1.0000
  H   H2021     1.0  0.21498  0.58525  0.65566  1.0000
  H   H2022     1.0  0.46466  0.64035  0.71230  1.0000
  H   H2023     1.0  0.46910  0.72892  0.65146  1.0000
  H   H2024     1.0  0.29584  0.64955  0.71953  1.0000
  C   C2535     1.0  0.09223  0.60698  0.58696  1.0000
  C   C2536     1.0  0.33208  0.72598  0.57307  1.0000
  C   C2537     1.0  0.42494  0.67181  0.73159  1.0000
  C   C2538     1.0  0.37460  0.97457  0.60907  1.0000
  H   H2025     1.0  0.08481  0.61811  0.59433  1.0000
  H   H2026     1.0  0.26768  0.67988  0.72767  1.0000
  H   H2027     1.0  0.34253  0.52727  0.67818  1.0000
  H   H2028     1.0  0.46418  0.66271  0.57732  1.0000
  H   H2029     1.0  0.30445  0.71660  0.64187  1.0000
  H   H2030     1.0  0.15980  0.71655  0.63237  1.0000
  H   H2031     1.0  0.09588  0.62683  0.66692  1.0000
  C   C2539     1.0  0.16591  0.55759  0.61085  1.0000
  C   C2540     1.0  0.42142  0.50802  0.61674  1.0000
  H   H2032     1.0  0.07147  0.64073  0.63218  1.0000
  H   H2033     1.0  0.45082  0.67579  0.74218  1.0000
  H   H2034     1.0  0.03926  0.75152  0.58809  1.0000
  H   H2035     1.0  0.39292  0.65134  0.69122  1.0000
  H   H2036     1.0  0.26359  0.68775  0.59058  1.0000
  H   H2037     1.0  0.41039  0.97376  0.60444  1.0000
  C   C2541     1.0  0.04450  0.87890  0.60083  1.0000
  C   C2542     1.0  0.99428  0.75975  0.64560  1.0000
  S   S334      1.0  0.99622  0.66769  0.62573  1.0000
  C   C2543     1.0  0.35843  0.49475  0.67438  1.0000
  Fe  Fe170     1.0  0.46952  0.69634  0.62649  1.0000
  C   C2544     1.0  0.26423  0.61947  0.74567  1.0000
  C   C2545     1.0  0.02681  0.75172  0.65688  1.0000
  C   C2546     1.0  0.47133  0.60025  0.57531  1.0000
  C   C2547     1.0  0.00565  0.74781  0.65631  1.0000
  H   H2038     1.0  0.35577  0.51113  0.75965  1.0000
  H   H2039     1.0  0.28798  0.65328  0.58517  1.0000
  C   C2548     1.0  0.31567  0.52185  0.57515  1.0000
  C   C2549     1.0  0.15866  0.85566  0.74284  1.0000
  H   H2040     1.0  0.35629  0.91714  0.59508  1.0000
  C   C2550     1.0  0.42647  0.48098  0.60137  1.0000
  H   H2041     1.0  0.06736  0.76925  0.57005  1.0000
  C   C2551     1.0  0.36201  0.51781  0.57393  1.0000
  H   H2042     1.0  0.15026  0.88959  0.73350  1.0000
  C   C2552     1.0  0.04529  0.62257  0.63289  1.0000
  C   C2553     1.0  0.18449  0.70556  0.61550  1.0000
  H   H2043     1.0  0.47693  0.75036  0.66814  1.0000
  H   H2044     1.0  0.02237  0.82451  0.59650  1.0000
  C   C2554     1.0  0.34451  0.64670  0.57686  1.0000
  C   C2555     1.0  0.40351  0.48132  0.60365  1.0000
  C   C2556     1.0  0.47550  0.93298  0.58876  1.0000
  H   H2045     1.0  0.23153  0.55443  0.74376  1.0000
  C   C2557     1.0  0.05817  0.86749  0.61049  1.0000
  C   C2558     1.0  0.01889  0.93474  0.58465  1.0000
  H   H2046     1.0  0.10295  0.49462  0.63093  1.0000
  H   H2047     1.0  0.30718  0.56485  0.74740  1.0000
  C   C2559     1.0  0.43544  0.49409  0.60807  1.0000
  H   H2048     1.0  0.06973  0.84168  0.64955  1.0000
  H   H2049     1.0  0.02787  0.88654  0.60472  1.0000
  H   H2050     1.0  0.46161  0.95550  0.60330  1.0000
  H   H2051     1.0  0.35694  0.91446  0.57039  1.0000
  C   C2560     1.0  0.17814  0.51453  0.57912  1.0000
  C   C2561     1.0  0.26356  0.56113  0.73246  1.0000
  H   H2052     1.0  0.17620  0.63161  0.61316  1.0000
  C   C2562     1.0  0.03751  0.60181  0.57484  1.0000
  H   H2053     1.0  0.31235  0.68274  0.65918  1.0000
  H   H2054     1.0  0.16787  0.82062  0.74908  1.0000
  H   H2055     1.0  0.25222  0.58888  0.60753  1.0000
  H   H2056     1.0  0.25897  0.56295  0.72217  1.0000
  C   C2563     1.0  0.10019  0.95432  0.63162  1.0000
  H   H2057     1.0  0.99824  0.73523  0.66403  1.0000
  C   C2564     1.0  0.05251  0.88070  0.58634  1.0000
  C   C2565     1.0  0.18449  0.90360  0.66519  1.0000
  C   C2566     1.0  0.33132  0.58604  0.63819  1.0000
  C   C2567     1.0  0.35017  0.59326  0.64024  1.0000
  C   C2568     1.0  0.36054  0.60824  0.62977  1.0000
  C   C2569     1.0  0.35201  0.61613  0.61732  1.0000
  C   C2570     1.0  0.33293  0.60912  0.61520  1.0000
  C   C2571     1.0  0.32260  0.59400  0.62576  1.0000
  P   P88       1.0  0.32051  0.62228  0.59994  1.0000
  C   C2572     1.0  0.30260  0.60588  0.59554  1.0000
  C   C2573     1.0  0.30354  0.64801  0.60365  1.0000
  C   C2574     1.0  0.28881  0.65950  0.59456  1.0000
  C   C2575     1.0  0.27494  0.67896  0.59761  1.0000
  C   C2576     1.0  0.27555  0.68700  0.60980  1.0000
  C   C2577     1.0  0.29006  0.67562  0.61893  1.0000
  C   C2578     1.0  0.30400  0.65623  0.61590  1.0000
  C   C2579     1.0  0.30843  0.59635  0.58323  1.0000
  C   C2580     1.0  0.27106  0.71556  0.75863  1.0000
  C   C2581     1.0  0.27387  0.58158  0.58855  1.0000
  C   C2582     1.0  0.26778  0.59126  0.60067  1.0000
  C   C2583     1.0  0.28198  0.60347  0.60413  1.0000
  C   C2584     1.0  0.34333  0.62619  0.58559  1.0000
  C   C2585     1.0  0.36049  0.60843  0.58331  1.0000
  H   H2058     1.0  0.32912  0.95061  0.60539  1.0000
  C   C2586     1.0  0.03641  0.62445  0.57482  1.0000
  C   C2587     1.0  0.99455  0.84822  0.60292  1.0000
  C   C2588     1.0  0.24817  0.55626  0.74463  1.0000
  H   H2059     1.0  0.32327  0.57447  0.64633  1.0000
  H   H2060     1.0  0.35663  0.58746  0.65001  1.0000
  H   H2061     1.0  0.37507  0.61400  0.63139  1.0000
  H   H2062     1.0  0.36002  0.62817  0.60953  1.0000
  H   H2063     1.0  0.30774  0.58844  0.62459  1.0000
  H   H2064     1.0  0.47761  0.91883  0.59694  1.0000
  H   H2065     1.0  0.32848  0.49165  0.62980  1.0000
  H   H2066     1.0  0.26465  0.70195  0.61228  1.0000
  H   H2067     1.0  0.29031  0.68170  0.62848  1.0000
  H   H2068     1.0  0.31481  0.64768  0.62331  1.0000
  C   C2589     1.0  0.37837  0.61109  0.57235  1.0000
  C   C2590     1.0  0.04885  0.78856  0.60645  1.0000
  H   H2069     1.0  0.07079  0.81274  0.59802  1.0000
  C   C2591     1.0  0.32390  0.68586  0.64944  1.0000
  C   C2592     1.0  0.12176  0.62121  0.64927  1.0000
  H   H2070     1.0  0.08566  0.63196  0.56917  1.0000
  C   C2593     1.0  0.34004  0.69987  0.59383  1.0000
  H   H2071     1.0  0.06385  0.71502  0.58518  1.0000
  C   C2594     1.0  0.06433  0.79892  0.59609  1.0000
  C   C2595     1.0  0.01620  0.82278  0.61915  1.0000
  C   C2596     1.0  0.31950  0.70495  0.63970  1.0000
  H   H2072     1.0  0.39768  0.73650  0.68476  1.0000
  H   H2073     1.0  0.02774  0.76324  0.61102  1.0000
  C   C2597     1.0  0.37609  0.94354  0.59012  1.0000
  H   H2074     1.0  0.09039  0.84878  0.61324  1.0000
  C   C2598     1.0  0.26657  0.66307  0.73282  1.0000
  C   C2599     1.0  0.04012  0.77124  0.60347  1.0000
  H   H2075     1.0  0.35283  0.48684  0.68499  1.0000
  C   C2600     1.0  0.07819  0.59225  0.61974  1.0000
  H   H2076     1.0  0.39479  0.61468  0.68524  1.0000
  H   H2077     1.0  0.38010  0.71339  0.70571  1.0000
  H   H2078     1.0  0.11748  0.95492  0.60203  1.0000
  H   H2079     1.0  0.14420  0.55823  0.59639  1.0000
  C   C2601     1.0  0.10416  0.66299  0.63638  1.0000
  H   H2080     1.0  0.42867  0.51834  0.62163  1.0000
  C   C2602     1.0  0.43503  0.90356  0.60900  1.0000
  C   C2603     1.0  0.24124  0.70295  0.75123  1.0000
  C   C2604     1.0  0.40428  0.66481  0.73309  1.0000
  H   H2081     1.0  0.43330  0.67866  0.72140  1.0000
  C   C2605     1.0  0.07125  0.79177  0.58309  1.0000
  H   H2082     1.0  0.03921  0.83190  0.64062  1.0000
  H   H2083     1.0  0.29412  0.61096  0.73120  1.0000
  H   H2084     1.0  0.33775  0.90403  0.65155  1.0000
  C   C2606     1.0  0.00246  0.94972  0.59119  1.0000
  C   C2607     1.0  0.44225  0.90770  0.62067  1.0000
  H   H2085     1.0  0.08323  0.79979  0.57517  1.0000
  H   H2086     1.0  0.03568  0.74229  0.66511  1.0000
  C   C2608     1.0  0.34958  0.59672  0.76198  1.0000
  C   C2609     1.0  0.29414  0.58420  0.57982  1.0000
  C   C2610     1.0  0.27580  0.55600  0.75907  1.0000
  S   S335      1.0  0.19011  0.96470  0.62242  1.0000
  S   S336      1.0  0.46496  0.69746  0.60429  1.0000
  H   H2087     1.0  0.15505  0.85898  0.75353  1.0000
  C   C2611     1.0  0.47874  0.64646  0.71427  1.0000
  H   H2088     1.0  0.47662  0.48322  0.57016  1.0000
  H   H2089     1.0  0.47337  0.58285  0.57486  1.0000
  C   C2612     1.0  0.26019  0.73730  0.75621  1.0000
  H   H2090     1.0  0.12341  0.92446  0.63580  1.0000
  C   C2613     1.0  0.09474  0.50831  0.62423  1.0000
  C   C2614     1.0  0.08754  0.85857  0.59136  1.0000
  S   S337      1.0  0.24949  0.48087  0.60139  1.0000
  C   C2615     1.0  0.17452  0.67943  0.60353  1.0000
  C   C2616     1.0  0.10107  0.52914  0.62214  1.0000
  C   C2617     1.0  0.04679  0.76438  0.59039  1.0000
  C   C2618     1.0  0.14521  0.56215  0.60645  1.0000
  Fe  Fe171     1.0  0.04648  0.54251  0.56887  1.0000
  C   C2619     1.0  0.46647  0.95374  0.59235  1.0000
  C   C2620     1.0  0.12804  0.57369  0.62870  1.0000
  S   S338      1.0  0.39060  0.51571  0.57430  1.0000
  P   P89       1.0  0.09905  0.57379  0.61014  1.0000
  H   H2091     1.0  0.31589  0.52465  0.75960  1.0000
  C   C2621     1.0  0.06240  0.77455  0.58021  1.0000
  C   C2622     1.0  0.07399  0.87013  0.58166  1.0000
  H   H2092     1.0  0.38761  0.48232  0.64316  1.0000
  C   C2623     1.0  0.00416  0.77543  0.63536  1.0000
  H   H2093     1.0  0.08776  0.94592  0.62954  1.0000
  C   C2624     1.0  0.38819  0.95669  0.57919  1.0000
  C   C2625     1.0  0.48376  0.60785  0.58347  1.0000
  C   C2626     1.0  0.37811  0.49242  0.65071  1.0000
  H   H2094     1.0  0.34353  0.72479  0.76328  1.0000
  H   H2095     1.0  0.99231  0.53903  0.57928  1.0000
  C   C2627     1.0  0.14370  0.51613  0.56999  1.0000
  Fe  Fe172     1.0  0.25819  0.47853  0.62294  1.0000
  C   C2628     1.0  0.45621  0.61514  0.56785  1.0000
  S   S339      1.0  0.48120  0.75455  0.58416  1.0000
  H   H2096     1.0  0.26980  0.68157  0.75865  1.0000
  H   H2097     1.0  0.47971  0.79926  0.56970  1.0000
  H   H2098     1.0  0.47666  0.62914  0.73560  1.0000
  C   C2629     1.0  0.21207  0.67087  0.76631  1.0000
  H   H2099     1.0  0.36141  0.68548  0.76498  1.0000
  C   C2630     1.0  0.47945  0.72101  0.65929  1.0000
  H   H2100     1.0  0.43239  0.66013  0.76586  1.0000
  C   C2631     1.0  0.36576  0.92618  0.57284  1.0000
  H   H2101     1.0  0.99121  0.85417  0.59231  1.0000
  C   C2632     1.0  0.45390  0.63773  0.56862  1.0000
  C   C2633     1.0  0.48127  0.63040  0.58437  1.0000
  H   H2102     1.0  0.48444  0.66523  0.69366  1.0000
  H   H2103     1.0  0.98800  0.64209  0.56989  1.0000
  H   H2104     1.0  0.24195  0.55056  0.76723  1.0000
  H   H2105     1.0  0.30571  0.59291  0.76736  1.0000
  C   C2634     1.0  0.19556  0.65804  0.76691  1.0000
  C   C2635     1.0  0.32414  0.52994  0.76678  1.0000
  C   C2636     1.0  0.34674  0.52202  0.76687  1.0000
  Fe  Fe173     1.0  0.41024  0.87506  0.93617  1.0000
  S   S340      1.0  0.43950  0.87692  0.91882  1.0000
  Fe  Fe174     1.0  0.37787  0.89040  0.91475  1.0000
  S   S341      1.0  0.40552  0.89349  0.89612  1.0000
  S   S342      1.0  0.34038  0.89730  0.91410  1.0000
  Fe  Fe175     1.0  0.42181  0.86098  0.90680  1.0000
  S   S343      1.0  0.44594  0.83388  0.89703  1.0000
  Fe  Fe176     1.0  0.42125  0.90904  0.90979  1.0000
  S   S344      1.0  0.44120  0.93687  0.90016  1.0000
  S   S345      1.0  0.39346  0.85685  0.92470  1.0000
  S   S346      1.0  0.39250  0.90851  0.92776  1.0000
  H   H2106     1.0  0.36597  0.49576  0.90089  1.0000
  Fe  Fe177     1.0  0.33455  0.57712  0.81938  1.0000
  S   S347      1.0  0.36410  0.59463  0.81015  1.0000
  S   S348      1.0  0.34054  0.53951  0.82344  1.0000
  Fe  Fe178     1.0  0.30250  0.62039  0.82042  1.0000
  S   S349      1.0  0.32939  0.64095  0.81183  1.0000
  S   S350      1.0  0.26647  0.63527  0.82579  1.0000
  Fe  Fe179     1.0  0.34122  0.61724  0.79646  1.0000
  H   H2107     1.0  0.41384  0.67854  0.88327  1.0000
  Fe  Fe180     1.0  0.34983  0.61697  0.82614  1.0000
  S   S351      1.0  0.36889  0.62701  0.84082  1.0000
  S   S352      1.0  0.31298  0.59807  0.80430  1.0000
  S   S353      1.0  0.32171  0.59803  0.83624  1.0000
  Fe  Fe181     1.0  0.20587  0.74547  0.79198  1.0000
  S   S354      1.0  0.19912  0.77949  0.77975  1.0000
  S   S355      1.0  0.24194  0.73119  0.79239  1.0000
  Fe  Fe182     1.0  0.15699  0.74091  0.79839  1.0000
  S   S356      1.0  0.14644  0.77455  0.78627  1.0000
  S   S357      1.0  0.13585  0.71599  0.81140  1.0000
  H   H2108     1.0  0.17108  0.48671  0.89682  1.0000
  Fe  Fe183     1.0  0.17044  0.78542  0.79704  1.0000
  S   S358      1.0  0.16073  0.81661  0.80685  1.0000
  S   S359      1.0  0.18488  0.73109  0.78120  1.0000
  S   S360      1.0  0.17903  0.75239  0.81018  1.0000
  H   H2109     1.0  0.38209  0.78464  0.85434  1.0000
  H   H2110     1.0  0.34742  0.80697  0.84809  1.0000
  S   S361      1.0  0.03056  0.73898  0.82508  1.0000
  S   S362      1.0  0.01672  0.71505  0.86596  1.0000
  Fe  Fe184     1.0  0.06169  0.85838  0.92798  1.0000
  S   S363      1.0  0.06867  0.82389  0.93993  1.0000
  S   S364      1.0  0.08183  0.87603  0.90877  1.0000
  Fe  Fe185     1.0  0.01506  0.86697  0.94396  1.0000
  S   S365      1.0  0.01806  0.83302  0.95677  1.0000
  C   C2637     1.0  0.47820  0.79403  0.82695  1.0000
  Fe  Fe186     1.0  0.03449  0.82083  0.93653  1.0000
  S   S366      1.0  0.02827  0.78853  0.93130  1.0000
  S   S367      1.0  0.04756  0.87357  0.94744  1.0000
  S   S368      1.0  0.02857  0.85449  0.92361  1.0000
  Fe  Fe187     1.0  0.20586  0.91865  0.85613  1.0000
  S   S369      1.0  0.21776  0.90850  0.87703  1.0000
  H   H2111     1.0  0.33447  0.94122  0.87887  1.0000
  Fe  Fe188     1.0  0.22462  0.87359  0.84727  1.0000
  S   S370      1.0  0.23776  0.86063  0.86745  1.0000
  S   S371      1.0  0.23325  0.84893  0.83215  1.0000
  Fe  Fe189     1.0  0.20499  0.87694  0.87777  1.0000
  S   S372      1.0  0.18732  0.85783  0.89742  1.0000
  Fe  Fe190     1.0  0.24966  0.89305  0.86497  1.0000
  S   S373      1.0  0.28621  0.89409  0.86563  1.0000
  S   S374      1.0  0.19099  0.88781  0.85775  1.0000
  S   S375      1.0  0.23853  0.90526  0.84384  1.0000
  C   C2638     1.0  0.21538  0.67656  0.77879  1.0000
  C   C2639     1.0  0.25213  0.50257  0.81057  1.0000
  S   S376      1.0  0.43988  0.69268  0.82143  1.0000
  S   S377      1.0  0.44463  0.70521  0.85927  1.0000
  C   C2640     1.0  0.11109  0.86976  0.90568  1.0000
  C   C2641     1.0  0.12279  0.88006  0.89323  1.0000
  C   C2642     1.0  0.14611  0.87645  0.89059  1.0000
  C   C2643     1.0  0.15798  0.86218  0.90033  1.0000
  C   C2644     1.0  0.14628  0.85137  0.91266  1.0000
  C   C2645     1.0  0.12287  0.85517  0.91536  1.0000
  H   H2112     1.0  0.11382  0.89132  0.88572  1.0000
  H   H2113     1.0  0.15484  0.88493  0.88110  1.0000
  H   H2114     1.0  0.15536  0.84027  0.92025  1.0000
  H   H2115     1.0  0.11400  0.84706  0.92499  1.0000
  Fe  Fe191     1.0  0.17622  0.76560  0.76990  1.0000
  C   C2646     1.0  0.01634  0.76064  0.91647  1.0000
  C   C2647     1.0  0.01736  0.78268  0.91712  1.0000
  H   H2116     1.0  0.04557  0.48133  0.95230  1.0000
  H   H2117     1.0  0.02251  0.74760  0.92439  1.0000
  C   C2648     1.0  0.10671  0.72335  0.81571  1.0000
  C   C2649     1.0  0.09485  0.71059  0.82706  1.0000
  C   C2650     1.0  0.07152  0.71548  0.83034  1.0000
  C   C2651     1.0  0.05989  0.73287  0.82204  1.0000
  C   C2652     1.0  0.07179  0.74569  0.81076  1.0000
  C   C2653     1.0  0.09512  0.74112  0.80769  1.0000
  H   H2118     1.0  0.10369  0.69674  0.83326  1.0000
  H   H2119     1.0  0.06251  0.70552  0.83904  1.0000
  H   H2120     1.0  0.06289  0.75913  0.80430  1.0000
  H   H2121     1.0  0.10405  0.75094  0.79888  1.0000
  C   C2654     1.0  0.18101  0.82567  0.81375  1.0000
  C   C2655     1.0  0.17545  0.84494  0.81984  1.0000
  C   C2656     1.0  0.19110  0.85204  0.82582  1.0000
  C   C2657     1.0  0.21263  0.84023  0.82539  1.0000
  C   C2658     1.0  0.21826  0.82119  0.81913  1.0000
  C   C2659     1.0  0.20250  0.81379  0.81345  1.0000
  H   H2122     1.0  0.15908  0.85454  0.81987  1.0000
  H   H2123     1.0  0.18664  0.86684  0.83050  1.0000
  H   H2124     1.0  0.23487  0.81210  0.81872  1.0000
  H   H2125     1.0  0.20700  0.79898  0.80876  1.0000
  C   C2660     1.0  0.34589  0.54184  0.78578  1.0000
  C   C2661     1.0  0.46993  0.58286  0.88323  1.0000
  H   H2126     1.0  0.43660  0.82278  0.93103  1.0000
  C   C2662     1.0  0.25899  0.66123  0.81575  1.0000
  C   C2663     1.0  0.27436  0.67047  0.80489  1.0000
  C   C2664     1.0  0.26888  0.69191  0.79775  1.0000
  C   C2665     1.0  0.24778  0.70406  0.80116  1.0000
  C   C2666     1.0  0.23208  0.69466  0.81171  1.0000
  C   C2667     1.0  0.23771  0.67325  0.81902  1.0000
  H   H2127     1.0  0.29053  0.66117  0.80200  1.0000
  H   H2128     1.0  0.28107  0.69908  0.78958  1.0000
  H   H2129     1.0  0.21575  0.70401  0.81438  1.0000
  H   H2130     1.0  0.22571  0.66612  0.82736  1.0000
  H   H2131     1.0  0.25428  0.52327  0.82508  1.0000
  H   H2132     1.0  0.26543  0.80051  0.80261  1.0000
  H   H2133     1.0  0.30845  0.95853  0.86257  1.0000
  H   H2134     1.0  0.39612  0.64729  0.76857  1.0000
  C   C2668     1.0  0.38758  0.64631  0.83525  1.0000
  C   C2669     1.0  0.39382  0.65468  0.82104  1.0000
  C   C2670     1.0  0.40951  0.66925  0.81699  1.0000
  C   C2671     1.0  0.41908  0.67557  0.82710  1.0000
  C   C2672     1.0  0.41246  0.66759  0.84133  1.0000
  C   C2673     1.0  0.39681  0.65298  0.84538  1.0000
  H   H2135     1.0  0.38689  0.64959  0.81315  1.0000
  H   H2136     1.0  0.41451  0.67539  0.80596  1.0000
  H   H2137     1.0  0.41979  0.67230  0.84917  1.0000
  H   H2138     1.0  0.39206  0.64653  0.85638  1.0000
  C   C2674     1.0  0.28515  0.49868  0.84491  1.0000
  C   C2675     1.0  0.28135  0.52172  0.84409  1.0000
  C   C2676     1.0  0.29812  0.53440  0.83752  1.0000
  C   C2677     1.0  0.31899  0.52412  0.83178  1.0000
  C   C2678     1.0  0.32292  0.50103  0.83275  1.0000
  C   C2679     1.0  0.30612  0.48834  0.83933  1.0000
  H   H2139     1.0  0.26522  0.52987  0.84844  1.0000
  H   H2140     1.0  0.29488  0.55213  0.83690  1.0000
  H   H2141     1.0  0.33894  0.49294  0.82826  1.0000
  H   H2142     1.0  0.34081  0.78187  0.93329  1.0000
  C   C2680     1.0  0.45700  0.94654  0.91019  1.0000
  C   C2681     1.0  0.45388  0.94143  0.92488  1.0000
  H   H2143     1.0  0.25027  0.75167  0.84137  1.0000
  C   C2682     1.0  0.44077  0.62547  0.88640  1.0000
  C   C2683     1.0  0.45286  0.61326  0.85871  1.0000
  C   C2684     1.0  0.37042  0.72818  0.81455  1.0000
  H   H2144     1.0  0.44161  0.93122  0.93040  1.0000
  C   C2685     1.0  0.27981  0.75189  0.84972  1.0000
  H   H2145     1.0  0.46429  0.94526  0.94383  1.0000
  C   C2686     1.0  0.32569  0.89576  0.90056  1.0000
  C   C2687     1.0  0.30229  0.89861  0.90334  1.0000
  C   C2688     1.0  0.28990  0.89801  0.89286  1.0000
  C   C2689     1.0  0.30080  0.89465  0.87940  1.0000
  C   C2690     1.0  0.32418  0.89181  0.87662  1.0000
  C   C2691     1.0  0.33658  0.89227  0.88712  1.0000
  H   H2146     1.0  0.29368  0.90143  0.91367  1.0000
  H   H2147     1.0  0.27195  0.90029  0.89517  1.0000
  H   H2148     1.0  0.33280  0.88926  0.86624  1.0000
  H   H2149     1.0  0.35453  0.89012  0.88479  1.0000
  C   C2692     1.0  0.43952  0.81581  0.88728  1.0000
  C   C2693     1.0  0.41826  0.81752  0.88407  1.0000
  C   C2694     1.0  0.41397  0.80257  0.87635  1.0000
  C   C2695     1.0  0.43072  0.78568  0.87200  1.0000
  C   C2696     1.0  0.45203  0.78421  0.87503  1.0000
  C   C2697     1.0  0.45638  0.79919  0.88267  1.0000
  H   H2150     1.0  0.40519  0.83036  0.88751  1.0000
  C   C2698     1.0  0.25966  0.76147  0.84523  1.0000
  H   H2151     1.0  0.28972  0.96810  0.91265  1.0000
  S   S378      1.0  0.48642  0.73126  0.85913  1.0000
  H   H2152     1.0  0.47285  0.79781  0.88512  1.0000
  S   S379      1.0  0.34913  0.63340  0.77365  1.0000
  C   C2699     1.0  0.04774  0.95501  0.90885  1.0000
  H   H2153     1.0  0.36647  0.59667  0.88730  1.0000
  H   H2154     1.0  0.39177  0.76358  0.95316  1.0000
  C   C2700     1.0  0.26639  0.53720  0.80370  1.0000
  C   C2701     1.0  0.99947  0.79399  0.89631  1.0000
  H   H2155     1.0  0.37269  0.55669  0.88621  1.0000
  H   H2156     1.0  0.39221  0.48935  0.91771  1.0000
  C   C2702     1.0  0.38325  0.58786  0.88527  1.0000
  S   S380      1.0  0.42441  0.76684  0.86274  1.0000
  H   H2157     1.0  0.45485  0.64353  0.91350  1.0000
  C   C2703     1.0  0.35546  0.69285  0.77437  1.0000
  C   C2704     1.0  0.48383  0.55316  0.90084  1.0000
  Fe  Fe192     1.0  0.05164  0.83897  0.95924  1.0000
  C   C2705     1.0  0.29020  0.59770  0.77400  1.0000
  C   C2706     1.0  0.46059  0.63274  0.83030  1.0000
  C   C2707     1.0  0.47145  0.63827  0.83996  1.0000
  C   C2708     1.0  0.99456  0.87416  0.89569  1.0000
  H   H2158     1.0  0.03222  0.90535  0.92405  1.0000
  H   H2159     1.0  0.04540  0.95660  0.84592  1.0000
  P   P90       1.0  0.44683  0.60217  0.87720  1.0000
  C   C2709     1.0  0.47658  0.87248  0.87257  1.0000
  C   C2710     1.0  0.42482  0.80214  0.95027  1.0000
  C   C2711     1.0  0.04437  0.93311  0.91023  1.0000
  H   H2160     1.0  0.48103  0.54196  0.91072  1.0000
  C   C2712     1.0  0.27693  0.78556  0.80516  1.0000
  C   C2713     1.0  0.36982  0.75637  0.93357  1.0000
  Fe  Fe193     1.0  0.99584  0.68800  0.86908  1.0000
  C   C2714     1.0  0.36494  0.81608  0.91855  1.0000
  H   H2161     1.0  0.16924  0.64194  0.78009  1.0000
  H   H2162     1.0  0.44989  0.56895  0.90238  1.0000
  C   C2715     1.0  0.29383  0.96650  0.90163  1.0000
  C   C2716     1.0  0.13321  0.94399  0.87937  1.0000
  C   C2717     1.0  0.12116  0.93389  0.89168  1.0000
  C   C2718     1.0  0.09839  0.94108  0.89530  1.0000
  C   C2719     1.0  0.28384  0.97383  0.87824  1.0000
  C   C2720     1.0  0.01572  0.50507  0.95500  1.0000
  C   C2721     1.0  0.03212  0.95467  0.93358  1.0000
  H   H2163     1.0  0.41748  0.80728  0.91641  1.0000
  H   H2164     1.0  0.46145  0.61067  0.90228  1.0000
  H   H2165     1.0  0.18138  0.95530  0.89284  1.0000
  H   H2166     1.0  0.26357  0.76688  0.79360  1.0000
  C   C2722     1.0  0.99136  0.90868  0.87301  1.0000
  H   H2167     1.0  0.37513  0.52198  0.77644  1.0000
  H   H2168     1.0  0.04906  0.92439  0.90134  1.0000
  C   C2723     1.0  0.47305  0.95978  0.90321  1.0000
  C   C2724     1.0  0.33252  0.75134  0.94546  1.0000
  H   H2169     1.0  0.44331  0.79247  0.82926  1.0000
  H   H2170     1.0  0.08165  0.50938  0.89784  1.0000
  C   C2725     1.0  0.31243  0.54445  0.77591  1.0000
  H   H2171     1.0  0.24355  0.57794  0.79231  1.0000
  P   P91       1.0  0.05825  0.96937  0.89175  1.0000
  C   C2726     1.0  0.02828  0.48405  0.95716  1.0000
  H   H2172     1.0  0.12948  0.92025  0.89839  1.0000
  H   H2173     1.0  0.08958  0.93259  0.90482  1.0000
  C   C2727     1.0  0.40162  0.77632  0.94813  1.0000
  H   H2174     1.0  0.35417  0.54622  0.79332  1.0000
  C   C2728     1.0  0.27585  0.58231  0.77993  1.0000
  H   H2175     1.0  0.38334  0.74202  0.90587  1.0000
  C   C2729     1.0  0.99795  0.77197  0.89584  1.0000
  S   S381      1.0  0.18337  0.95168  0.85162  1.0000
  H   H2176     1.0  0.36892  0.50279  0.84128  1.0000
  C   C2730     1.0  0.36691  0.52012  0.86558  1.0000
  H   H2177     1.0  0.22777  0.96078  0.83830  1.0000
  H   H2178     1.0  0.33713  0.84574  0.89266  1.0000
  H   H2179     1.0  0.32890  0.71892  0.95710  1.0000
  H   H2180     1.0  0.99618  0.86063  0.90434  1.0000
  H   H2181     1.0  0.29613  0.63101  0.77229  1.0000
  H   H2182     1.0  0.02926  0.87715  0.89236  1.0000
  C   C2731     1.0  0.38397  0.53036  0.85670  1.0000
  C   C2732     1.0  0.38074  0.55318  0.85227  1.0000
  C   C2733     1.0  0.36055  0.56594  0.85675  1.0000
  C   C2734     1.0  0.34351  0.55592  0.86565  1.0000
  C   C2735     1.0  0.34672  0.53310  0.87018  1.0000
  C   C2736     1.0  0.13799  0.49648  0.90771  1.0000
  H   H2183     1.0  0.32530  0.94574  0.90387  1.0000
  H   H2184     1.0  0.23425  0.61610  0.79726  1.0000
  C   C2737     1.0  0.44670  0.64372  0.90469  1.0000
  H   H2185     1.0  0.44304  0.55648  0.87661  1.0000
  C   C2738     1.0  0.37867  0.48650  0.84310  1.0000
  H   H2186     1.0  0.43116  0.67757  0.90413  1.0000
  C   C2739     1.0  0.37755  0.73429  0.93880  1.0000
  C   C2740     1.0  0.01882  0.96415  0.88414  1.0000
  C   C2741     1.0  0.46515  0.82446  0.84553  1.0000
  C   C2742     1.0  0.45043  0.62504  0.89824  1.0000
  H   H2187     1.0  0.36608  0.66317  0.78821  1.0000
  C   C2743     1.0  0.42699  0.80966  0.93581  1.0000
  H   H2188     1.0  0.10407  0.50197  0.91799  1.0000
  H   H2189     1.0  0.46510  0.77145  0.87158  1.0000
  C   C2744     1.0  0.21662  0.95068  0.89278  1.0000
  H   H2190     1.0  0.39971  0.52065  0.85312  1.0000
  H   H2191     1.0  0.39379  0.56107  0.84527  1.0000
  H   H2192     1.0  0.35811  0.58362  0.85330  1.0000
  H   H2193     1.0  0.32774  0.56586  0.86892  1.0000
  H   H2194     1.0  0.33340  0.52573  0.87720  1.0000
  C   C2745     1.0  0.02832  0.93305  0.93474  1.0000
  C   C2746     1.0  0.34030  0.72934  0.95055  1.0000
  C   C2747     1.0  0.03796  0.95881  0.85659  1.0000
  C   C2748     1.0  0.40861  0.75693  0.91119  1.0000
  C   C2749     1.0  0.25530  0.58924  0.78800  1.0000
  H   H2195     1.0  0.34570  0.84867  0.91569  1.0000
  C   C2750     1.0  0.06569  0.50802  0.90444  1.0000
  H   H2196     1.0  0.02028  0.92460  0.94459  1.0000
  C   C2751     1.0  0.18548  0.65739  0.79204  1.0000
  C   C2752     1.0  0.20207  0.66985  0.79157  1.0000
  H   H2197     1.0  0.40441  0.73119  0.81460  1.0000
  C   C2753     1.0  0.33687  0.72397  0.78571  1.0000
  C   C2754     1.0  0.15445  0.48263  0.90027  1.0000
  H   H2198     1.0  0.41098  0.53676  0.88078  1.0000
  H   H2199     1.0  0.17483  0.65277  0.80193  1.0000
  H   H2200     1.0  0.20420  0.67479  0.80110  1.0000
  Fe  Fe194     1.0  0.45685  0.70479  0.83632  1.0000
  S   S382      1.0  0.00705  0.65258  0.87907  1.0000
  H   H2201     1.0  0.25259  0.48498  0.79379  1.0000
  H   H2202     1.0  0.39763  0.80414  0.87368  1.0000
  H   H2203     1.0  0.47147  0.90793  0.86851  1.0000
  C   C2755     1.0  0.31392  0.95396  0.89669  1.0000
  H   H2204     1.0  0.14186  0.51138  0.91006  1.0000
  H   H2205     1.0  0.36820  0.81762  0.92870  1.0000
  H   H2206     1.0  0.43026  0.59627  0.85213  1.0000
  C   C2756     1.0  0.18231  0.65137  0.77973  1.0000
  C   C2757     1.0  0.02338  0.50453  0.92002  1.0000
  C   C2758     1.0  0.02718  0.52403  0.91090  1.0000
  C   C2759     1.0  0.04833  0.52577  0.90309  1.0000
  C   C2760     1.0  0.27599  0.76663  0.80000  1.0000
  H   H2207     1.0  0.42052  0.64586  0.87171  1.0000
  C   C2761     1.0  0.23680  0.95753  0.88616  1.0000
  C   C2762     1.0  0.24980  0.61094  0.79068  1.0000
  H   H2208     1.0  0.35161  0.81159  0.88244  1.0000
  C   C2763     1.0  0.42373  0.66351  0.88761  1.0000
  C   C2764     1.0  0.27883  0.97641  0.89246  1.0000
  C   C2765     1.0  0.47869  0.89298  0.86422  1.0000
  H   H2209     1.0  0.00680  0.50291  0.92569  1.0000
  H   H2210     1.0  0.01358  0.53758  0.90964  1.0000
  H   H2211     1.0  0.05111  0.54075  0.89578  1.0000
  C   C2766     1.0  0.44210  0.60765  0.84891  1.0000
  H   H2212     1.0  0.10743  0.74640  0.91557  1.0000
  C   C2767     1.0  0.16769  0.80392  0.84838  1.0000
  C   C2768     1.0  0.18024  0.81154  0.85622  1.0000
  C   C2769     1.0  0.17015  0.82743  0.86463  1.0000
  C   C2770     1.0  0.14763  0.83604  0.86498  1.0000
  C   C2771     1.0  0.13511  0.82920  0.85665  1.0000
  C   C2772     1.0  0.14516  0.81258  0.84868  1.0000
  P   P92       1.0  0.10603  0.84068  0.85727  1.0000
  C   C2773     1.0  0.09148  0.82558  0.87279  1.0000
  C   C2774     1.0  0.10287  0.86960  0.85831  1.0000
  C   C2775     1.0  0.08400  0.88000  0.86637  1.0000
  C   C2776     1.0  0.08230  0.90216  0.86760  1.0000
  C   C2777     1.0  0.09927  0.91411  0.86063  1.0000
  C   C2778     1.0  0.11777  0.90405  0.85227  1.0000
  C   C2779     1.0  0.11947  0.88195  0.85099  1.0000
  C   C2780     1.0  0.08136  0.80777  0.87187  1.0000
  C   C2781     1.0  0.07015  0.79621  0.88400  1.0000
  C   C2782     1.0  0.06951  0.80193  0.89712  1.0000
  C   C2783     1.0  0.08002  0.81922  0.89814  1.0000
  C   C2784     1.0  0.09113  0.83089  0.88606  1.0000
  C   C2785     1.0  0.09511  0.83988  0.84167  1.0000
  C   C2786     1.0  0.10899  0.84038  0.82854  1.0000
  C   C2787     1.0  0.10046  0.83985  0.81651  1.0000
  C   C2788     1.0  0.07784  0.83938  0.81742  1.0000
  C   C2789     1.0  0.06372  0.83958  0.83037  1.0000
  C   C2790     1.0  0.07226  0.84010  0.84242  1.0000
  H   H2213     1.0  0.17555  0.79176  0.84173  1.0000
  H   H2214     1.0  0.19783  0.80535  0.85565  1.0000
  H   H2215     1.0  0.17983  0.83330  0.87079  1.0000
  H   H2216     1.0  0.14010  0.84823  0.87165  1.0000
  H   H2217     1.0  0.13580  0.80645  0.84251  1.0000
  H   H2218     1.0  0.07087  0.87089  0.87199  1.0000
  H   H2219     1.0  0.06823  0.90979  0.87436  1.0000
  H   H2220     1.0  0.09840  0.93099  0.86192  1.0000
  H   H2221     1.0  0.13105  0.91324  0.84698  1.0000
  H   H2222     1.0  0.13401  0.87438  0.84450  1.0000
  H   H2223     1.0  0.08227  0.80261  0.86186  1.0000
  H   H2224     1.0  0.06203  0.78271  0.88327  1.0000
  H   H2225     1.0  0.06111  0.79277  0.90652  1.0000
  H   H2226     1.0  0.07963  0.82359  0.90833  1.0000
  H   H2227     1.0  0.09944  0.84403  0.88711  1.0000
  H   H2228     1.0  0.12646  0.84103  0.82753  1.0000
  H   H2229     1.0  0.11155  0.83957  0.80651  1.0000
  H   H2230     1.0  0.07129  0.83873  0.80810  1.0000
  H   H2231     1.0  0.04618  0.83918  0.83108  1.0000
  H   H2232     1.0  0.06101  0.84056  0.85232  1.0000
  H   H2233     1.0  0.39800  0.73485  0.83971  1.0000
  C   C2791     1.0  0.42752  0.64492  0.88109  1.0000
  C   C2792     1.0  0.35804  0.68021  0.78748  1.0000
  C   C2793     1.0  0.34970  0.68926  0.79972  1.0000
  C   C2794     1.0  0.33830  0.71093  0.79899  1.0000
  C   C2795     1.0  0.25612  0.49974  0.79649  1.0000
  P   P93       1.0  0.32680  0.72196  0.81504  1.0000
  C   C2796     1.0  0.31314  0.70104  0.82726  1.0000
  C   C2797     1.0  0.34919  0.72715  0.82260  1.0000
  C   C2798     1.0  0.34568  0.72923  0.83686  1.0000
  C   C2799     1.0  0.36315  0.73223  0.84298  1.0000
  C   C2800     1.0  0.29017  0.70117  0.82860  1.0000
  C   C2801     1.0  0.28018  0.68420  0.83751  1.0000
  C   C2802     1.0  0.29296  0.66683  0.84503  1.0000
  C   C2803     1.0  0.31570  0.66672  0.84397  1.0000
  C   C2804     1.0  0.32576  0.68376  0.83519  1.0000
  C   C2805     1.0  0.30703  0.74685  0.81147  1.0000
  C   C2806     1.0  0.29089  0.74734  0.80315  1.0000
  C   C2807     1.0  0.26507  0.51574  0.78598  1.0000
  C   C2808     1.0  0.38427  0.73304  0.83493  1.0000
  H   H2234     1.0  0.45033  0.71874  0.88780  1.0000
  H   H2235     1.0  0.35199  0.67915  0.80973  1.0000
  C   C2809     1.0  0.44593  0.61744  0.83477  1.0000
  H   H2236     1.0  0.32955  0.72806  0.84329  1.0000
  H   H2237     1.0  0.36047  0.73349  0.85403  1.0000
  H   H2238     1.0  0.27984  0.71388  0.82260  1.0000
  H   H2239     1.0  0.26260  0.68404  0.83818  1.0000
  H   H2240     1.0  0.28529  0.65320  0.85140  1.0000
  H   H2241     1.0  0.32569  0.65307  0.84965  1.0000
  H   H2242     1.0  0.34355  0.68296  0.83431  1.0000
  H   H2243     1.0  0.28978  0.73283  0.79903  1.0000
  C   C2810     1.0  0.25168  0.78380  0.84557  1.0000
  C   C2811     1.0  0.29209  0.76467  0.85447  1.0000
  C   C2812     1.0  0.28413  0.78715  0.85485  1.0000
  C   C2813     1.0  0.26389  0.79662  0.85028  1.0000
  P   P94       1.0  0.29996  0.80448  0.86023  1.0000
  C   C2814     1.0  0.28541  0.81542  0.87581  1.0000
  C   C2815     1.0  0.32594  0.78896  0.86475  1.0000
  C   C2816     1.0  0.32565  0.77220  0.87658  1.0000
  C   C2817     1.0  0.34553  0.75974  0.88017  1.0000
  C   C2818     1.0  0.36583  0.76407  0.87205  1.0000
  C   C2819     1.0  0.36628  0.78105  0.86048  1.0000
  C   C2820     1.0  0.34647  0.79359  0.85688  1.0000
  C   C2821     1.0  0.29506  0.82973  0.88127  1.0000
  C   C2822     1.0  0.28379  0.83891  0.89306  1.0000
  C   C2823     1.0  0.26287  0.83378  0.89954  1.0000
  C   C2824     1.0  0.25335  0.81919  0.89437  1.0000
  C   C2825     1.0  0.26461  0.80990  0.88260  1.0000
  C   C2826     1.0  0.30430  0.82620  0.84535  1.0000
  C   C2827     1.0  0.31541  0.82084  0.83229  1.0000
  C   C2828     1.0  0.31780  0.83734  0.82048  1.0000
  C   C2829     1.0  0.30893  0.85929  0.82161  1.0000
  C   C2830     1.0  0.29772  0.86472  0.83454  1.0000
  C   C2831     1.0  0.29530  0.84826  0.84634  1.0000
  H   H2244     1.0  0.23609  0.79130  0.84207  1.0000
  H   H2245     1.0  0.30780  0.75698  0.85765  1.0000
  H   H2246     1.0  0.25758  0.81401  0.85028  1.0000
  H   H2247     1.0  0.30999  0.76874  0.88297  1.0000
  H   H2248     1.0  0.34520  0.74677  0.88926  1.0000
  H   H2249     1.0  0.38130  0.75449  0.87479  1.0000
  H   H2250     1.0  0.31097  0.83440  0.87613  1.0000
  H   H2251     1.0  0.29102  0.85048  0.89695  1.0000
  H   H2252     1.0  0.25383  0.84144  0.90841  1.0000
  H   H2253     1.0  0.23689  0.81566  0.89924  1.0000
  H   H2254     1.0  0.25673  0.79889  0.87871  1.0000
  H   H2255     1.0  0.32208  0.80387  0.83124  1.0000
  H   H2256     1.0  0.32628  0.83312  0.81041  1.0000
  H   H2257     1.0  0.31048  0.87208  0.81245  1.0000
  H   H2258     1.0  0.29056  0.88167  0.83547  1.0000
  H   H2259     1.0  0.28605  0.85292  0.85610  1.0000
  C   C2832     1.0  0.44651  0.74327  0.90103  1.0000
  H   H2260     1.0  0.08072  0.66676  0.86986  1.0000
  H   H2261     1.0  0.37374  0.72634  0.80358  1.0000
  C   C2833     1.0  0.36282  0.72083  0.94723  1.0000
  C   C2834     1.0  0.00944  0.79928  0.90670  1.0000
  C   C2835     1.0  0.01517  0.95890  0.86102  1.0000
  H   H2262     1.0  0.02322  0.51867  0.94846  1.0000
  H   H2263     1.0  0.47438  0.48507  0.93325  1.0000
  C   C2836     1.0  0.28463  0.61940  0.77662  1.0000
  C   C2837     1.0  0.27071  0.95204  0.85034  1.0000
  C   C2838     1.0  0.27893  0.94292  0.83810  1.0000
  C   C2839     1.0  0.28868  0.95564  0.82598  1.0000
  H   H2264     1.0  0.43177  0.81951  0.84563  1.0000
  H   H2265     1.0  0.45973  0.83562  0.85309  1.0000
  H   H2266     1.0  0.31508  0.75799  0.94810  1.0000
  H   H2267     1.0  0.22774  0.68665  0.77874  1.0000
  S   S383      1.0  0.42137  0.85945  0.95723  1.0000
  C   C2840     1.0  0.30777  0.76599  0.81668  1.0000
  C   C2841     1.0  0.46754  0.62869  0.85413  1.0000
  H   H2268     1.0  0.00488  0.95694  0.85379  1.0000
  H   H2269     1.0  0.06756  0.91555  0.95387  1.0000
  C   C2842     1.0  0.41220  0.78542  0.95643  1.0000
  C   C2843     1.0  0.04070  0.48680  0.92147  1.0000
  C   C2844     1.0  0.00563  0.96150  0.87481  1.0000
  H   H2270     1.0  0.99790  0.89969  0.91880  1.0000
  C   C2845     1.0  0.37356  0.79679  0.91275  1.0000
  P   P95       1.0  0.28318  0.55452  0.77611  1.0000
  S   S384      1.0  0.26286  0.48383  0.85248  1.0000
  C   C2846     1.0  0.40350  0.78405  0.93359  1.0000
  C   C2847     1.0  0.39106  0.48604  0.88364  1.0000
  H   H2271     1.0  0.26328  0.94183  0.85965  1.0000
  H   H2272     1.0  0.27791  0.92587  0.83809  1.0000
  H   H2273     1.0  0.29474  0.94857  0.81647  1.0000
  H   H2274     1.0  0.46768  0.87159  0.88328  1.0000
  C   C2848     1.0  0.04173  0.96452  0.87972  1.0000
  C   C2849     1.0  0.48305  0.96241  0.92549  1.0000
  C   C2850     1.0  0.48155  0.88200  0.95513  1.0000
  C   C2851     1.0  0.38787  0.73106  0.82073  1.0000
  H   H2275     1.0  0.28596  0.73457  0.84939  1.0000
  C   C2852     1.0  0.34720  0.76485  0.93703  1.0000
  H   H2276     1.0  0.47557  0.96370  0.89186  1.0000
  H   H2277     1.0  0.02718  0.96299  0.94264  1.0000
  H   H2278     1.0  0.00564  0.73832  0.90579  1.0000
  H   H2279     1.0  0.15079  0.93801  0.87646  1.0000
  C   C2853     1.0  0.31911  0.95142  0.88257  1.0000
  C   C2854     1.0  0.11250  0.75260  0.90452  1.0000
  C   C2855     1.0  0.12205  0.77182  0.90057  1.0000
  C   C2856     1.0  0.12876  0.77971  0.88636  1.0000
  C   C2857     1.0  0.12541  0.76869  0.87607  1.0000
  C   C2858     1.0  0.11526  0.74971  0.87990  1.0000
  C   C2859     1.0  0.10949  0.74134  0.89425  1.0000
  P   P96       1.0  0.11211  0.73502  0.86648  1.0000
  C   C2860     1.0  0.13878  0.71933  0.86067  1.0000
  C   C2861     1.0  0.09165  0.71678  0.87305  1.0000
  C   C2862     1.0  0.09466  0.69623  0.86865  1.0000
  H   H2280     1.0  0.46416  0.74375  0.89948  1.0000
  H   H2281     1.0  0.37471  0.78063  0.89506  1.0000
  C   C2863     1.0  0.05613  0.70943  0.88706  1.0000
  C   C2864     1.0  0.07204  0.72343  0.88211  1.0000
  C   C2865     1.0  0.14368  0.71385  0.84712  1.0000
  C   C2866     1.0  0.16447  0.70231  0.84234  1.0000
  C   C2867     1.0  0.18050  0.69591  0.85112  1.0000
  C   C2868     1.0  0.17566  0.70099  0.86473  1.0000
  C   C2869     1.0  0.15486  0.71264  0.86952  1.0000
  C   C2870     1.0  0.10338  0.75449  0.85160  1.0000
  C   C2871     1.0  0.11912  0.76506  0.84155  1.0000
  C   C2872     1.0  0.11282  0.77891  0.82952  1.0000
  C   C2873     1.0  0.09079  0.78230  0.82741  1.0000
  C   C2874     1.0  0.07495  0.77218  0.83742  1.0000
  C   C2875     1.0  0.08117  0.75832  0.84945  1.0000
  H   H2282     1.0  0.12426  0.78063  0.90853  1.0000
  H   H2283     1.0  0.13637  0.79450  0.88331  1.0000
  H   H2284     1.0  0.13075  0.77502  0.86515  1.0000
  H   H2285     1.0  0.10272  0.72611  0.89760  1.0000
  H   H2286     1.0  0.10916  0.69095  0.86129  1.0000
  C   C2876     1.0  0.01341  0.88344  0.88885  1.0000
  H   H2287     1.0  0.02641  0.90789  0.87224  1.0000
  H   H2288     1.0  0.04090  0.71476  0.89388  1.0000
  H   H2289     1.0  0.06880  0.73956  0.88519  1.0000
  H   H2290     1.0  0.13142  0.71859  0.84020  1.0000
  H   H2291     1.0  0.16807  0.69842  0.83177  1.0000
  H   H2292     1.0  0.19661  0.68697  0.84736  1.0000
  H   H2293     1.0  0.18805  0.69589  0.87157  1.0000
  H   H2294     1.0  0.15142  0.71641  0.88009  1.0000
  H   H2295     1.0  0.13645  0.76203  0.84271  1.0000
  H   H2296     1.0  0.12517  0.78647  0.82160  1.0000
  H   H2297     1.0  0.08611  0.79218  0.81779  1.0000
  H   H2298     1.0  0.05799  0.77422  0.83554  1.0000
  H   H2299     1.0  0.06865  0.75010  0.85671  1.0000
  H   H2300     1.0  0.21642  0.93653  0.90114  1.0000
  H   H2301     1.0  0.29287  0.79989  0.81777  1.0000
  Fe  Fe195     1.0  0.00824  0.72357  0.84423  1.0000
  C   C2877     1.0  0.29265  0.78521  0.81360  1.0000
  S   S385      1.0  0.46074  0.74051  0.83173  1.0000
  C   C2878     1.0  0.32793  0.48549  0.87232  1.0000
  C   C2879     1.0  0.43339  0.66295  0.89938  1.0000
  H   H2302     1.0  0.46299  0.64089  0.81944  1.0000
  H   H2303     1.0  0.43694  0.61374  0.82736  1.0000
  C   C2880     1.0  0.30418  0.96128  0.87336  1.0000
  H   H2304     1.0  0.00990  0.60583  0.88899  1.0000
  C   C2881     1.0  0.08751  0.95895  0.88678  1.0000
  C   C2882     1.0  0.07858  0.68239  0.87350  1.0000
  C   C2883     1.0  0.25717  0.52132  0.81413  1.0000
  H   H2305     1.0  0.31990  0.76618  0.82314  1.0000
  H   H2306     1.0  0.99268  0.80706  0.88864  1.0000
  C   C2884     1.0  0.05114  0.96189  0.86582  1.0000
  C   C2885     1.0  0.01181  0.90073  0.87752  1.0000
  C   C2886     1.0  0.40832  0.55414  0.88151  1.0000
  C   C2887     1.0  0.26989  0.53481  0.78949  1.0000
  P   P97       1.0  0.38902  0.77356  0.92271  1.0000
  H   H2307     1.0  0.39821  0.61650  0.88367  1.0000
  C   C2888     1.0  0.42645  0.56537  0.87925  1.0000
  C   C2889     1.0  0.42315  0.58788  0.88030  1.0000
  C   C2890     1.0  0.38345  0.49022  0.89744  1.0000
  P   P98       1.0  0.37172  0.49072  0.87143  1.0000
  C   C2891     1.0  0.40136  0.59909  0.88318  1.0000
  Fe  Fe196     1.0  0.45132  0.74012  0.85495  1.0000
  H   H2308     1.0  0.26043  0.64262  0.78741  1.0000
  C   C2892     1.0  0.05942  0.68890  0.88278  1.0000
  C   C2893     1.0  0.99326  0.61346  0.89282  1.0000
  H   H2309     1.0  0.27113  0.55109  0.80680  1.0000
  C   C2894     1.0  0.32332  0.54978  0.78568  1.0000
  H   H2310     1.0  0.39163  0.89765  0.96695  1.0000
  C   C2895     1.0  0.35523  0.81277  0.89257  1.0000
  C   C2896     1.0  0.43870  0.72921  0.89440  1.0000
  C   C2897     1.0  0.46629  0.56841  0.89606  1.0000
  C   C2898     1.0  0.35765  0.52810  0.77631  1.0000
  C   C2899     1.0  0.06210  0.48854  0.91388  1.0000
  C   C2900     1.0  0.36834  0.79519  0.89978  1.0000
  C   C2901     1.0  0.34711  0.83203  0.89829  1.0000
  C   C2902     1.0  0.40093  0.74261  0.90455  1.0000
  C   C2903     1.0  0.03481  0.92221  0.92313  1.0000
  C   C2904     1.0  0.35195  0.83367  0.91127  1.0000
  C   C2905     1.0  0.38674  0.56536  0.88458  1.0000
  H   H2311     1.0  0.39500  0.72751  0.93641  1.0000
  C   C2906     1.0  0.34518  0.71484  0.77346  1.0000
  C   C2907     1.0  0.19686  0.96127  0.88813  1.0000
  C   C2908     1.0  0.26453  0.62596  0.78508  1.0000
  H   H2312     1.0  0.32925  0.74110  0.78475  1.0000
  H   H2313     1.0  0.09957  0.92196  0.96329  1.0000
  C   C2909     1.0  0.46674  0.94947  0.93248  1.0000
  H   H2314     1.0  0.99005  0.92189  0.86415  1.0000
  C   C2910     1.0  0.41617  0.80084  0.92754  1.0000
  H   H2315     1.0  0.01096  0.96601  0.89481  1.0000
  H   H2316     1.0  0.48249  0.65040  0.83649  1.0000
  C   C2911     1.0  0.09993  0.96939  0.87459  1.0000
  C   C2912     1.0  0.44918  0.81533  0.84133  1.0000
  H   H2317     1.0  0.40990  0.71839  0.89071  1.0000
  H   H2318     1.0  0.13218  0.96949  0.86128  1.0000
  C   C2913     1.0  0.99338  0.50850  0.96118  1.0000
  C   C2914     1.0  0.04195  0.96562  0.92069  1.0000
  C   C2915     1.0  0.43158  0.75718  0.90931  1.0000
  C   C2916     1.0  0.00687  0.75528  0.90586  1.0000
  C   C2917     1.0  0.41591  0.72897  0.89610  1.0000
  H   H2319     1.0  0.25196  0.94819  0.88946  1.0000
  H   H2320     1.0  0.43819  0.76804  0.91412  1.0000
  C   C2918     1.0  0.47674  0.87877  0.94246  1.0000
  H   H2321     1.0  0.31428  0.55973  0.79340  1.0000
  H   H2322     1.0  0.48250  0.88781  0.91987  1.0000
  H   H2323     1.0  0.04674  0.67832  0.88628  1.0000
  C   C2919     1.0  0.45569  0.80005  0.83211  1.0000
  H   H2324     1.0  0.01054  0.81625  0.90685  1.0000
  H   H2325     1.0  0.24552  0.49009  0.81881  1.0000
  H   H2326     1.0  0.06857  0.96214  0.86199  1.0000
  H   H2327     1.0  0.46514  0.86781  0.94259  1.0000
  S   S386      1.0  0.99051  0.69448  0.84652  1.0000
  H   H2328     1.0  0.32838  0.49709  0.86254  1.0000
  C   C2920     1.0  0.11656  0.49114  0.91212  1.0000
  C   C2921     1.0  0.27258  0.97391  0.85061  1.0000
  H   H2329     1.0  0.36889  0.70380  0.95123  1.0000
  H   H2330     1.0  0.26867  0.51298  0.77518  1.0000
  C   C2922     1.0  0.12262  0.96174  0.87082  1.0000
  H   H2331     1.0  0.35418  0.58706  0.77167  1.0000
  C   C2923     1.0  0.39828  0.48677  0.90696  1.0000
  H   H2332     1.0  0.41899  0.97006  0.87204  1.0000
  H   H2333     1.0  0.43263  0.80958  0.95670  1.0000
  Fe  Fe197     1.0  0.48073  0.69603  0.86153  1.0000
  C   C2924     1.0  0.06518  0.91935  0.96440  1.0000
  H   H2334     1.0  0.47567  0.63363  0.86155  1.0000
  H   H2335     1.0  0.98794  0.96145  0.87833  1.0000
  H   H2336     1.0  0.48369  0.83738  0.87376  1.0000
  C   C2925     1.0  0.48572  0.85311  0.86713  1.0000
  H   H2337     1.0  0.47359  0.87334  0.96491  1.0000
  C   C2926     1.0  0.19359  0.97596  0.84238  1.0000
  C   C2927     1.0  0.21615  0.97596  0.83700  1.0000
  C   C2928     1.0  0.23729  0.97575  0.87521  1.0000
  C   C2929     1.0  0.48616  0.96752  0.91079  1.0000
  H   H2338     1.0  0.29445  0.48055  0.87248  1.0000
  H   H2339     1.0  0.48337  0.78187  0.82000  1.0000
  C   C2930     1.0  0.48656  0.88992  0.92969  1.0000
  C   C2931     1.0  0.34649  0.47961  0.87921  1.0000
  H   H2340     1.0  0.38331  0.48293  0.82136  1.0000
  C   C2932     1.0  0.41396  0.47985  0.87926  1.0000
  C   C2933     1.0  0.42089  0.47963  0.90269  1.0000
  H   H2341     1.0  0.42047  0.47747  0.86854  1.0000
  C   C2934     1.0  0.98723  0.63645  0.88937  1.0000
  H   H2342     1.0  0.41043  0.77976  0.96767  1.0000
  P   P99       1.0  0.50224  0.36520  0.99078  1.0000
  H   H2343     1.0  0.49378  0.99332  0.98173  1.0000
  C   C2935     1.0  0.76674  0.00335  0.04452  1.0000
  C   C2936     1.0  0.62443  0.43101  0.11364  1.0000
  H   H2344     1.0  0.67419  0.04348  0.13667  1.0000
  H   H2345     1.0  0.59173  0.45891  0.06283  1.0000
  S   S387      1.0  0.69775  0.44006  0.14719  1.0000
  C   C2937     1.0  0.52332  0.97715  0.99013  1.0000
  H   H2346     1.0  0.95427  0.38814  0.96934  1.0000
  Fe  Fe198     1.0  0.54462  0.06199  0.05866  1.0000
  S   S388      1.0  0.57061  0.07033  0.03998  1.0000
  S   S389      1.0  0.51993  0.08765  0.06964  1.0000
  Fe  Fe199     1.0  0.55675  0.04859  0.02925  1.0000
  S   S390      1.0  0.54337  0.06039  0.00860  1.0000
  Fe  Fe200     1.0  0.59166  0.03906  0.04904  1.0000
  S   S391      1.0  0.52926  0.04238  0.04742  1.0000
  S   S392      1.0  0.56621  0.03205  0.06843  1.0000
  C   C2938     1.0  0.51678  0.01259  0.00463  1.0000
  C   C2939     1.0  0.51476  0.08430  0.12380  1.0000
  Fe  Fe201     1.0  0.67039  0.31649  0.15418  1.0000
  H   H2347     1.0  0.65856  0.44860  0.13089  1.0000
  S   S393      1.0  0.67727  0.34783  0.13873  1.0000
  S   S394      1.0  0.62863  0.04003  0.04835  1.0000
  C   C2940     1.0  0.82212  0.13704  0.01961  1.0000
  C   C2941     1.0  0.74011  0.32078  0.11981  1.0000
  S   S395      1.0  0.67822  0.28549  0.14474  1.0000
  S   S396      1.0  0.95959  0.16228  0.15086  1.0000
  Fe  Fe202     1.0  0.95702  0.06155  0.04571  1.0000
  S   S397      1.0  0.96221  0.02799  0.05894  1.0000
  C   C2942     1.0  0.62357  0.46071  0.13178  1.0000
  Fe  Fe203     1.0  0.94077  0.04293  0.02274  1.0000
  S   S398      1.0  0.94458  0.00830  0.03465  1.0000
  S   S399      1.0  0.93154  0.05481  0.00070  1.0000
  Fe  Fe204     1.0  0.92951  0.02388  0.05388  1.0000
  S   S400      1.0  0.90591  0.00833  0.07218  1.0000
  C   C2943     1.0  0.91630  0.12434  0.03357  1.0000
  S   S401      1.0  0.92326  0.05824  0.04175  1.0000
  Fe  Fe205     1.0  0.75392  0.01206  0.11793  1.0000
  S   S402      1.0  0.78618  0.99116  0.11041  1.0000
  S   S403      1.0  0.74691  0.03592  0.13361  1.0000
  Fe  Fe206     1.0  0.72842  0.99942  0.09753  1.0000
  S   S404      1.0  0.69273  0.00034  0.09405  1.0000
  Fe  Fe207     1.0  0.77798  0.00502  0.08890  1.0000
  S   S405      1.0  0.80285  0.01789  0.07026  1.0000
  C   C2944     1.0  0.93675  0.47327  0.02122  1.0000
  S   S406      1.0  0.74689  0.02757  0.09628  1.0000
  C   C2945     1.0  0.59963  0.17945  0.13525  1.0000
  P   P100      1.0  0.98351  0.44747  0.98327  1.0000
  C   C2946     1.0  0.95422  0.40573  0.96799  1.0000
  Fe  Fe208     1.0  0.52703  0.17499  0.11595  1.0000
  H   H2348     1.0  0.53075  0.37070  0.03356  1.0000
  S   S407      1.0  0.54949  0.14752  0.10566  1.0000
  Fe  Fe209     1.0  0.52828  0.20257  0.13819  1.0000
  S   S408      1.0  0.54869  0.20528  0.15466  1.0000
  S   S409      1.0  0.54281  0.20463  0.11537  1.0000
  C   C2947     1.0  0.78986  0.03203  0.13876  1.0000
  C   C2948     1.0  0.76815  0.04347  0.14048  1.0000
  H   H2349     1.0  0.98611  0.37915  0.02292  1.0000
  C   C2949     1.0  0.66801  0.03368  0.05866  1.0000
  H   H2350     1.0  0.49492  0.12091  0.08570  1.0000
  H   H2351     1.0  0.69848  0.04988  0.09234  1.0000
  C   C2950     1.0  0.87729  0.01136  0.07160  1.0000
  C   C2951     1.0  0.86300  0.00251  0.08341  1.0000
  C   C2952     1.0  0.84014  0.00442  0.08317  1.0000
  C   C2953     1.0  0.83146  0.01498  0.07107  1.0000
  C   C2954     1.0  0.84579  0.02383  0.05930  1.0000
  C   C2955     1.0  0.86858  0.02218  0.05956  1.0000
  C   C2956     1.0  0.84569  0.16401  0.99799  1.0000
  H   H2352     1.0  0.82924  0.99792  0.09238  1.0000
  H   H2353     1.0  0.83927  0.03175  0.04986  1.0000
  H   H2354     1.0  0.87949  0.02893  0.05040  1.0000
  C   C2957     1.0  0.91236  0.00920  0.98264  1.0000
  C   C2958     1.0  0.92001  0.01896  0.99221  1.0000
  C   C2959     1.0  0.92244  0.04126  0.98904  1.0000
  H   H2355     1.0  0.73159  0.20850  0.14100  1.0000
  H   H2356     1.0  0.91041  0.99199  0.98524  1.0000
  H   H2357     1.0  0.92393  0.00924  0.00205  1.0000
  C   C2960     1.0  0.93137  0.16133  0.15052  1.0000
  C   C2961     1.0  0.91990  0.17551  0.14052  1.0000
  C   C2962     1.0  0.89697  0.17582  0.14130  1.0000
  H   H2358     1.0  0.67395  0.04347  0.04876  1.0000
  H   H2359     1.0  0.92859  0.18659  0.13236  1.0000
  H   H2360     1.0  0.88819  0.18704  0.13362  1.0000
  C   C2963     1.0  0.56343  0.46500  0.97041  1.0000
  H   H2361     1.0  0.51686  0.01660  0.07802  1.0000
  C   C2964     1.0  0.96006  0.45908  0.05409  1.0000
  C   C2965     1.0  0.96414  0.45877  0.06761  1.0000
  S   S410      1.0  0.72689  0.24950  0.16121  1.0000
  H   H2362     1.0  0.69630  0.34813  0.10423  1.0000
  H   H2363     1.0  0.79292  0.15987  0.01479  1.0000
  H   H2364     1.0  0.49570  0.27535  0.12945  1.0000
  H   H2365     1.0  0.70877  0.40444  0.06589  1.0000
  C   C2966     1.0  0.98452  0.05370  0.97368  1.0000
  H   H2366     1.0  0.89554  0.08083  0.15127  1.0000
  C   C2967     1.0  0.56968  0.22233  0.15136  1.0000
  C   C2968     1.0  0.57424  0.23613  0.13847  1.0000
  C   C2969     1.0  0.59084  0.24954  0.13625  1.0000
  C   C2970     1.0  0.64596  0.02943  0.06141  1.0000
  C   C2971     1.0  0.50471  0.10609  0.12441  1.0000
  H   H2367     1.0  0.56484  0.23661  0.13022  1.0000
  H   H2368     1.0  0.59404  0.26027  0.12626  1.0000
  C   C2972     1.0  0.67683  0.12417  0.15310  1.0000
  C   C2973     1.0  0.67516  0.01226  0.08130  1.0000
  C   C2974     1.0  0.65302  0.00831  0.08413  1.0000
  C   C2975     1.0  0.63848  0.01687  0.07430  1.0000
  H   H2369     1.0  0.64714  0.99832  0.09396  1.0000
  H   H2370     1.0  0.62158  0.01351  0.07664  1.0000
  C   C2976     1.0  0.52832  0.10462  0.07938  1.0000
  C   C2977     1.0  0.51227  0.11979  0.08625  1.0000
  C   C2978     1.0  0.51853  0.13357  0.09400  1.0000
  C   C2979     1.0  0.54079  0.13173  0.09533  1.0000
  C   C2980     1.0  0.55677  0.11669  0.08842  1.0000
  C   C2981     1.0  0.55064  0.10333  0.08035  1.0000
  C   C2982     1.0  0.75751  0.00378  0.02164  1.0000
  H   H2371     1.0  0.50611  0.14532  0.09914  1.0000
  H   H2372     1.0  0.57399  0.11537  0.08932  1.0000
  H   H2373     1.0  0.56317  0.09189  0.07499  1.0000
  H   H2374     1.0  0.97372  0.13591  0.05331  1.0000
  C   C2983     1.0  0.57778  0.02866  0.97652  1.0000
  C   C2984     1.0  0.57155  0.03569  0.98970  1.0000
  C   C2985     1.0  0.55130  0.04945  0.99272  1.0000
  C   C2986     1.0  0.53705  0.05541  0.98264  1.0000
  H   H2375     1.0  0.79897  0.98639  0.15539  1.0000
  H   H2376     1.0  0.87491  0.14143  0.00252  1.0000
  H   H2377     1.0  0.58264  0.03099  0.99737  1.0000
  H   H2378     1.0  0.52129  0.06591  0.98493  1.0000
  C   C2987     1.0  0.49279  0.01652  0.11752  1.0000
  H   H2379     1.0  0.57883  0.40343  0.10590  1.0000
  Fe  Fe210     1.0  0.97672  0.01519  0.03876  1.0000
  C   C2988     1.0  0.58175  0.09612  0.12292  1.0000
  C   C2989     1.0  0.67118  0.04874  0.12595  1.0000
  H   H2380     1.0  0.49385  0.98482  0.02922  1.0000
  H   H2381     1.0  0.74500  0.30545  0.12659  1.0000
  C   C2990     1.0  0.49038  0.29255  0.07995  1.0000
  C   C2991     1.0  0.60633  0.43770  0.07976  1.0000
  C   C2992     1.0  0.69270  0.41424  0.14468  1.0000
  C   C2993     1.0  0.69385  0.40941  0.13124  1.0000
  C   C2994     1.0  0.68914  0.38900  0.12963  1.0000
  C   C2995     1.0  0.68377  0.37296  0.14140  1.0000
  C   C2996     1.0  0.68321  0.37756  0.15481  1.0000
  C   C2997     1.0  0.68744  0.39817  0.15645  1.0000
  H   H2382     1.0  0.69801  0.42155  0.12209  1.0000
  H   H2383     1.0  0.68944  0.38572  0.11921  1.0000
  H   H2384     1.0  0.96795  0.06308  0.97389  1.0000
  H   H2385     1.0  0.59375  0.01855  0.97411  1.0000
  H   H2386     1.0  0.71480  0.08927  0.13446  1.0000
  H   H2387     1.0  0.97545  0.40252  0.98320  1.0000
  S   S411      1.0  0.62353  0.26713  0.14337  1.0000
  H   H2388     1.0  0.50541  0.30718  0.11147  1.0000
  C   C2998     1.0  0.49091  0.47398  0.05397  1.0000
  C   C2999     1.0  0.85704  0.14529  0.00540  1.0000
  C   C3000     1.0  0.82114  0.33723  0.08880  1.0000
  C   C3001     1.0  0.83810  0.34553  0.09251  1.0000
  C   C3002     1.0  0.83294  0.36368  0.09951  1.0000
  C   C3003     1.0  0.81082  0.37348  0.10289  1.0000
  C   C3004     1.0  0.79364  0.36506  0.09935  1.0000
  C   C3005     1.0  0.79901  0.34702  0.09211  1.0000
  P   P101      1.0  0.76502  0.37805  0.10309  1.0000
  C   C3006     1.0  0.74740  0.35700  0.10744  1.0000
  C   C3007     1.0  0.76110  0.39260  0.11777  1.0000
  C   C3008     1.0  0.75029  0.38407  0.13113  1.0000
  C   C3009     1.0  0.74669  0.39595  0.14222  1.0000
  C   C3010     1.0  0.75367  0.41645  0.14008  1.0000
  C   C3011     1.0  0.76451  0.42500  0.12686  1.0000
  C   C3012     1.0  0.76813  0.41321  0.11573  1.0000
  C   C3013     1.0  0.75405  0.33680  0.11584  1.0000
  C   C3014     1.0  0.72664  0.36085  0.10305  1.0000
  C   C3015     1.0  0.75785  0.39807  0.08810  1.0000
  C   C3016     1.0  0.73946  0.41475  0.08994  1.0000
  C   C3017     1.0  0.73473  0.43142  0.07873  1.0000
  C   C3018     1.0  0.74797  0.43132  0.06550  1.0000
  C   C3019     1.0  0.76602  0.41449  0.06348  1.0000
  C   C3020     1.0  0.77102  0.39793  0.07475  1.0000
  H   H2389     1.0  0.82516  0.32322  0.08330  1.0000
  H   H2390     1.0  0.85527  0.33798  0.08991  1.0000
  H   H2391     1.0  0.84612  0.37026  0.10228  1.0000
  H   H2392     1.0  0.80732  0.38758  0.10822  1.0000
  H   H2393     1.0  0.78608  0.34055  0.08899  1.0000
  H   H2394     1.0  0.74398  0.36863  0.13301  1.0000
  H   H2395     1.0  0.73764  0.38966  0.15233  1.0000
  H   H2396     1.0  0.75001  0.42604  0.14853  1.0000
  H   H2397     1.0  0.76953  0.44111  0.12508  1.0000
  H   H2398     1.0  0.77606  0.42046  0.10547  1.0000
  H   H2399     1.0  0.76977  0.33365  0.11962  1.0000
  H   H2400     1.0  0.72079  0.37643  0.09692  1.0000
  H   H2401     1.0  0.72904  0.41517  0.10015  1.0000
  H   H2402     1.0  0.72099  0.44470  0.08036  1.0000
  H   H2403     1.0  0.97594  0.24159  0.16744  1.0000
  H   H2404     1.0  0.77641  0.41456  0.05325  1.0000
  H   H2405     1.0  0.78536  0.38537  0.07302  1.0000
  H   H2406     1.0  0.79394  0.01826  0.13310  1.0000
  C   C3021     1.0  0.87631  0.04636  0.01413  1.0000
  C   C3022     1.0  0.86618  0.04888  0.00231  1.0000
  C   C3023     1.0  0.85280  0.06874  0.99810  1.0000
  C   C3024     1.0  0.84996  0.08629  0.00549  1.0000
  C   C3025     1.0  0.86050  0.08401  0.01721  1.0000
  C   C3026     1.0  0.87353  0.06382  0.02152  1.0000
  P   P102      1.0  0.85975  0.10726  0.02576  1.0000
  C   C3027     1.0  0.76314  0.06147  0.14777  1.0000
  H   H2407     1.0  0.96359  0.02046  0.09054  1.0000
  C   C3028     1.0  0.50526  0.99403  0.98854  1.0000
  C   C3029     1.0  0.96682  0.24163  0.14743  1.0000
  C   C3030     1.0  0.80156  0.05689  0.15124  1.0000
  C   C3031     1.0  0.90721  0.02151  0.96975  1.0000
  C   C3032     1.0  0.68387  0.38658  0.07925  1.0000
  C   C3033     1.0  0.68095  0.19315  0.14351  1.0000
  C   C3034     1.0  0.56859  0.43908  0.07625  1.0000
  C   C3035     1.0  0.93254  0.11688  0.02282  1.0000
  H   H2408     1.0  0.55390  0.11397  0.13506  1.0000
  C   C3036     1.0  0.83915  0.12099  0.05122  1.0000
  H   H2409     1.0  0.69275  0.37058  0.07723  1.0000
  C   C3037     1.0  0.82757  0.11813  0.06501  1.0000
  C   C3038     1.0  0.50816  0.99863  0.11329  1.0000
  C   C3039     1.0  0.50313  0.18411  0.06773  1.0000
  H   H2410     1.0  0.53981  0.35334  0.96840  1.0000
  H   H2411     1.0  0.84590  0.01599  0.02207  1.0000
  C   C3040     1.0  0.82826  0.98236  0.98008  1.0000
  H   H2412     1.0  0.86920  0.03561  0.99623  1.0000
  H   H2413     1.0  0.84514  0.07069  0.98884  1.0000
  H   H2414     1.0  0.84005  0.10170  0.00176  1.0000
  H   H2415     1.0  0.88224  0.06186  0.03030  1.0000
  C   C3041     1.0  0.96987  0.47502  0.00358  1.0000
  H   H2416     1.0  0.51427  0.02632  0.01028  1.0000
  C   C3042     1.0  0.53086  0.45700  0.02564  1.0000
  C   C3043     1.0  0.51319  0.45199  0.02066  1.0000
  C   C3044     1.0  0.67980  0.23237  0.13479  1.0000
  H   H2417     1.0  0.66355  0.12367  0.16207  1.0000
  H   H2418     1.0  0.73974  0.00054  0.06202  1.0000
  C   C3045     1.0  0.50198  0.01174  0.99582  1.0000
  H   H2419     1.0  0.82315  0.13184  0.07078  1.0000
  H   H2420     1.0  0.84321  0.13713  0.04637  1.0000
  C   C3046     1.0  0.97915  0.24738  0.15622  1.0000
  C   C3047     1.0  0.83903  0.08274  0.05020  1.0000
  C   C3048     1.0  0.48872  0.27118  0.08735  1.0000
  S   S412      1.0  0.49620  0.22447  0.13408  1.0000
  S   S413      1.0  0.82325  0.06517  0.15731  1.0000
  H   H2421     1.0  0.82226  0.06416  0.06881  1.0000
  C   C3049     1.0  0.73562  0.00156  0.02793  1.0000
  C   C3050     1.0  0.49491  0.11931  0.97594  1.0000
  H   H2422     1.0  0.69939  0.02860  0.06624  1.0000
  H   H2423     1.0  0.68645  0.40173  0.16690  1.0000
  H   H2424     1.0  0.70826  0.31274  0.11896  1.0000
  H   H2425     1.0  0.90063  0.09629  0.00593  1.0000
  H   H2426     1.0  0.85481  0.17444  0.98958  1.0000
  C   C3051     1.0  0.77980  0.06828  0.15303  1.0000
  H   H2427     1.0  0.92107  0.13189  0.04132  1.0000
  H   H2428     1.0  0.56722  0.28825  0.98641  1.0000
  C   C3052     1.0  0.97787  0.33817  0.11363  1.0000
  C   C3053     1.0  0.84277  0.00160  0.02977  1.0000
  C   C3054     1.0  0.49484  0.03448  0.09322  1.0000
  H   H2429     1.0  0.57676  0.13590  0.14294  1.0000
  H   H2430     1.0  0.68833  0.44109  0.07059  1.0000
  S   S414      1.0  0.75903  0.97813  0.08824  1.0000
  H   H2431     1.0  0.51142  0.05279  0.11991  1.0000
  H   H2432     1.0  0.94234  0.43444  0.00055  1.0000
  C   C3055     1.0  0.68858  0.10436  0.14912  1.0000
  H   H2433     1.0  0.49091  0.13501  0.06218  1.0000
  C   C3056     1.0  0.51675  0.99863  0.09905  1.0000
  C   C3057     1.0  0.74483  0.00118  0.05076  1.0000
  H   H2434     1.0  0.52858  0.98478  0.09567  1.0000
  C   C3058     1.0  0.82714  0.08001  0.06391  1.0000
  C   C3059     1.0  0.77339  0.00417  0.02993  1.0000
  H   H2435     1.0  0.82302  0.02952  0.14287  1.0000
  C   C3060     1.0  0.83569  0.00064  0.98266  1.0000
  C   C3061     1.0  0.52421  0.47379  0.99785  1.0000
  H   H2436     1.0  0.91358  0.99384  0.10327  1.0000
  C   C3062     1.0  0.82201  0.99457  0.03230  1.0000
  C   C3063     1.0  0.58469  0.12377  0.13628  1.0000
  S   S415      1.0  0.85642  0.16304  0.15264  1.0000
  C   C3064     1.0  0.60311  0.24943  0.14686  1.0000
  P   P103      1.0  0.66674  0.16987  0.15073  1.0000
  H   H2437     1.0  0.49028  0.22203  0.04709  1.0000
  C   C3065     1.0  0.50317  0.06950  0.12044  1.0000
  H   H2438     1.0  0.56761  0.46619  0.98033  1.0000
  C   C3066     1.0  0.49636  0.11374  0.99025  1.0000
  C   C3067     1.0  0.96516  0.45765  0.99810  1.0000
  H   H2439     1.0  0.62207  0.16121  0.16503  1.0000
  S   S416      1.0  0.54150  0.98008  0.06459  1.0000
  H   H2440     1.0  0.53799  0.39112  0.98065  1.0000
  C   C3068     1.0  0.64970  0.05735  0.12321  1.0000
  H   H2441     1.0  0.50185  0.44201  0.02766  1.0000
  C   C3069     1.0  0.79877  0.07984  0.11553  1.0000
  C   C3070     1.0  0.79363  0.06511  0.10812  1.0000
  C   C3071     1.0  0.81058  0.05025  0.10189  1.0000
  C   C3072     1.0  0.83268  0.05022  0.10299  1.0000
  C   C3073     1.0  0.83808  0.06524  0.11019  1.0000
  C   C3074     1.0  0.82085  0.07980  0.11668  1.0000
  P   P104      1.0  0.86691  0.06495  0.11125  1.0000
  C   C3075     1.0  0.87015  0.08212  0.12328  1.0000
  C   C3076     1.0  0.87841  0.03646  0.11644  1.0000
  C   C3077     1.0  0.87143  0.02542  0.12999  1.0000
  C   C3078     1.0  0.88011  0.00329  0.13405  1.0000
  C   C3079     1.0  0.89530  0.99184  0.12446  1.0000
  C   C3080     1.0  0.90202  0.00262  0.11085  1.0000
  C   C3081     1.0  0.89365  0.02484  0.10684  1.0000
  C   C3082     1.0  0.86268  0.10495  0.12058  1.0000
  C   C3083     1.0  0.86660  0.11878  0.12908  1.0000
  C   C3084     1.0  0.87847  0.11002  0.14009  1.0000
  C   C3085     1.0  0.88634  0.08747  0.14270  1.0000
  C   C3086     1.0  0.88239  0.07357  0.13428  1.0000
  C   C3087     1.0  0.88226  0.07548  0.09447  1.0000
  C   C3088     1.0  0.87527  0.07503  0.08181  1.0000
  C   C3089     1.0  0.88790  0.08248  0.06895  1.0000
  C   C3090     1.0  0.90764  0.09024  0.06862  1.0000
  C   C3091     1.0  0.91483  0.09060  0.08112  1.0000
  C   C3092     1.0  0.90225  0.08319  0.09401  1.0000
  H   H2442     1.0  0.78552  0.09058  0.12096  1.0000
  H   H2443     1.0  0.77642  0.06456  0.10773  1.0000
  H   H2444     1.0  0.80650  0.03847  0.09645  1.0000
  H   H2445     1.0  0.84558  0.03837  0.09829  1.0000
  H   H2446     1.0  0.82412  0.09053  0.12314  1.0000
  H   H2447     1.0  0.85962  0.03416  0.13750  1.0000
  H   H2448     1.0  0.49038  0.04819  0.08518  1.0000
  H   H2449     1.0  0.54896  0.41818  0.09181  1.0000
  C   C3093     1.0  0.51856  0.37751  0.02671  1.0000
  H   H2450     1.0  0.89896  0.03270  0.09619  1.0000
  H   H2451     1.0  0.85399  0.11209  0.11184  1.0000
  H   H2452     1.0  0.86057  0.13636  0.12716  1.0000
  H   H2453     1.0  0.59738  0.97815  0.00273  1.0000
  H   H2454     1.0  0.51011  0.32340  0.00951  1.0000
  H   H2455     1.0  0.88931  0.05635  0.13632  1.0000
  H   H2456     1.0  0.86043  0.06858  0.08175  1.0000
  H   H2457     1.0  0.88266  0.08174  0.05922  1.0000
  H   H2458     1.0  0.91767  0.09557  0.05868  1.0000
  H   H2459     1.0  0.93033  0.09639  0.08078  1.0000
  H   H2460     1.0  0.90831  0.08329  0.10359  1.0000
  C   C3094     1.0  0.58215  0.41499  0.09629  1.0000
  C   C3095     1.0  0.79241  0.07490  0.00636  1.0000
  C   C3096     1.0  0.79485  0.08412  0.01770  1.0000
  C   C3097     1.0  0.79967  0.07044  0.03013  1.0000
  C   C3098     1.0  0.80225  0.04754  0.03118  1.0000
  C   C3099     1.0  0.80027  0.03814  0.01976  1.0000
  C   C3100     1.0  0.79480  0.05200  0.00744  1.0000
  H   H2461     1.0  0.58368  0.18246  0.13173  1.0000
  C   C3101     1.0  0.97459  0.97939  0.98243  1.0000
  C   C3102     1.0  0.60106  0.17098  0.14934  1.0000
  C   C3103     1.0  0.97773  0.02428  0.09399  1.0000
  H   H2462     1.0  0.98163  0.31716  0.13339  1.0000
  H   H2463     1.0  0.57124  0.08722  0.11941  1.0000
  H   H2464     1.0  0.81385  0.18383  0.99563  1.0000
  C   C3104     1.0  0.85960  0.99009  0.03721  1.0000
  C   C3105     1.0  0.63904  0.18125  0.13048  1.0000
  H   H2465     1.0  0.65361  0.18531  0.12305  1.0000
  C   C3106     1.0  0.88823  0.11106  0.02478  1.0000
  H   H2466     1.0  0.60805  0.99620  0.11493  1.0000
  H   H2467     1.0  0.51727  0.46476  0.06623  1.0000
  H   H2468     1.0  0.49159  0.21404  0.07687  1.0000
  H   H2469     1.0  0.76187  0.00557  0.01031  1.0000
  C   C3107     1.0  0.71425  0.20986  0.14012  1.0000
  H   H2470     1.0  0.54625  0.99703  0.01296  1.0000
  H   H2471     1.0  0.78820  0.08550  0.99683  1.0000
  H   H2472     1.0  0.79258  0.10186  0.01694  1.0000
  H   H2473     1.0  0.80084  0.07750  0.03911  1.0000
  H   H2474     1.0  0.80516  0.03717  0.04104  1.0000
  H   H2475     1.0  0.79202  0.04515  0.99877  1.0000
  C   C3108     1.0  0.50688  0.38658  0.97575  1.0000
  C   C3109     1.0  0.58225  0.22187  0.16191  1.0000
  C   C3110     1.0  0.68149  0.42622  0.07554  1.0000
  S   S417      1.0  0.96397  0.09445  0.04976  1.0000
  H   H2476     1.0  0.61589  0.98045  0.02225  1.0000
  Fe  Fe211     1.0  0.98297  0.17239  0.13059  1.0000
  C   C3111     1.0  0.68229  0.14446  0.14557  1.0000
  C   C3112     1.0  0.50207  0.39505  0.03010  1.0000
  C   C3113     1.0  0.52620  0.39622  0.97341  1.0000
  C   C3114     1.0  0.97635  0.26385  0.04543  1.0000
  S   S418      1.0  0.51442  0.17125  0.13925  1.0000
  S   S419      1.0  0.63650  0.30906  0.16472  1.0000
  C   C3115     1.0  0.71945  0.32479  0.11544  1.0000
  C   C3116     1.0  0.68496  0.05257  0.10095  1.0000
  C   C3117     1.0  0.64579  0.06397  0.10929  1.0000
  C   C3118     1.0  0.66351  0.06113  0.09816  1.0000
  P   P105      1.0  0.61791  0.07474  0.10593  1.0000
  C   C3119     1.0  0.60270  0.05230  0.10715  1.0000
  C   C3120     1.0  0.60481  0.09326  0.11827  1.0000
  C   C3121     1.0  0.61767  0.10589  0.12277  1.0000
  C   C3122     1.0  0.58206  0.05654  0.10256  1.0000
  C   C3123     1.0  0.57062  0.03929  0.10275  1.0000
  C   C3124     1.0  0.57992  0.01755  0.10727  1.0000
  C   C3125     1.0  0.60057  0.01310  0.11172  1.0000
  C   C3126     1.0  0.61195  0.03037  0.11167  1.0000
  C   C3127     1.0  0.61893  0.09040  0.08835  1.0000
  C   C3128     1.0  0.61902  0.07987  0.07698  1.0000
  C   C3129     1.0  0.61889  0.09205  0.06345  1.0000
  C   C3130     1.0  0.61883  0.11477  0.06113  1.0000
  C   C3131     1.0  0.61910  0.12535  0.07233  1.0000
  C   C3132     1.0  0.61928  0.11322  0.08589  1.0000
  H   H2477     1.0  0.66083  0.06507  0.08734  1.0000
  H   H2478     1.0  0.63541  0.10444  0.11908  1.0000
  H   H2479     1.0  0.57501  0.07316  0.09854  1.0000
  H   H2480     1.0  0.55481  0.04279  0.09902  1.0000
  H   H2481     1.0  0.57133  0.00413  0.10706  1.0000
  C   C3133     1.0  0.61864  0.18444  0.12580  1.0000
  H   H2482     1.0  0.62819  0.02638  0.11479  1.0000
  H   H2483     1.0  0.61907  0.06226  0.07850  1.0000
  H   H2484     1.0  0.61873  0.08381  0.05477  1.0000
  H   H2485     1.0  0.61854  0.12414  0.05065  1.0000
  H   H2486     1.0  0.61888  0.14300  0.07057  1.0000
  H   H2487     1.0  0.61911  0.12186  0.09441  1.0000
  C   C3134     1.0  0.52332  0.34119  0.98933  1.0000
  H   H2488     1.0  0.75384  0.47165  0.16106  1.0000
  C   C3135     1.0  0.50440  0.45911  0.06255  1.0000
  S   S420      1.0  0.80678  0.13033  0.15963  1.0000
  C   C3136     1.0  0.82260  0.16928  0.00138  1.0000
  C   C3137     1.0  0.66900  0.21394  0.13906  1.0000
  H   H2489     1.0  0.72397  0.12500  0.12070  1.0000
  C   C3138     1.0  0.53499  0.99587  0.00612  1.0000
  H   H2490     1.0  0.55239  0.10768  0.98800  1.0000
  C   C3139     1.0  0.53869  0.30398  0.99920  1.0000
  C   C3140     1.0  0.94625  0.44798  0.00446  1.0000
  H   H2491     1.0  0.88158  0.12071  0.14662  1.0000
  H   H2492     1.0  0.74435  0.44448  0.05690  1.0000
  C   C3141     1.0  0.90464  0.10409  0.01380  1.0000
  H   H2493     1.0  0.98281  0.05181  0.99587  1.0000
  H   H2494     1.0  0.77807  0.17986  0.16744  1.0000
  C   C3142     1.0  0.81083  0.15578  0.01217  1.0000
  H   H2495     1.0  0.60705  0.33569  0.11014  1.0000
  H   H2496     1.0  0.49596  0.45617  0.00333  1.0000
  C   C3143     1.0  0.51485  0.98297  0.04459  1.0000
  H   H2497     1.0  0.48745  0.13333  0.01939  1.0000
  H   H2498     1.0  0.96293  0.34831  0.11797  1.0000
  C   C3144     1.0  0.51705  0.10991  0.99456  1.0000
  C   C3145     1.0  0.68881  0.04642  0.11482  1.0000
  C   C3146     1.0  0.70354  0.19136  0.14435  1.0000
  C   C3147     1.0  0.53949  0.33991  0.97720  1.0000
  H   H2499     1.0  0.88717  0.03117  0.01720  1.0000
  S   S421      1.0  0.51156  0.25575  0.09498  1.0000
  C   C3148     1.0  0.97092  0.24911  0.13295  1.0000
  H   H2500     1.0  0.65276  0.44388  0.08673  1.0000
  H   H2501     1.0  0.91743  0.44844  0.02078  1.0000
  C   C3149     1.0  0.82707  0.00893  0.99517  1.0000
  H   H2502     1.0  0.58616  0.16746  0.15666  1.0000
  C   C3150     1.0  0.55531  0.32089  0.97620  1.0000
  C   C3151     1.0  0.52281  0.32294  0.00022  1.0000
  C   C3152     1.0  0.84535  0.13176  0.01634  1.0000
  H   H2503     1.0  0.88221  0.12693  0.04321  1.0000
  Fe  Fe212     1.0  0.64539  0.27677  0.15664  1.0000
  C   C3153     1.0  0.70564  0.10467  0.13749  1.0000
  C   C3154     1.0  0.60406  0.45907  0.12730  1.0000
  H   H2504     1.0  0.53828  0.29003  0.00769  1.0000
  H   H2505     1.0  0.55529  0.44594  0.07025  1.0000
  C   C3155     1.0  0.54301  0.04787  0.96963  1.0000
  H   H2506     1.0  0.94904  0.47274  0.04933  1.0000
  C   C3156     1.0  0.49100  0.45907  0.97589  1.0000
  C   C3157     1.0  0.60443  0.44422  0.11829  1.0000
  P   P106      1.0  0.62500  0.41133  0.10234  1.0000
  C   C3158     1.0  0.62107  0.38471  0.11276  1.0000
  C   C3159     1.0  0.60311  0.42175  0.09189  1.0000
  C   C3160     1.0  0.62557  0.37928  0.12658  1.0000
  C   C3161     1.0  0.62307  0.35844  0.13442  1.0000
  C   C3162     1.0  0.61640  0.34276  0.12850  1.0000
  C   C3163     1.0  0.61203  0.34797  0.11473  1.0000
  C   C3164     1.0  0.61440  0.36883  0.10686  1.0000
  C   C3165     1.0  0.65168  0.40886  0.09088  1.0000
  C   C3166     1.0  0.66334  0.38815  0.08822  1.0000
  C   C3167     1.0  0.50989  0.46020  0.00681  1.0000
  C   C3168     1.0  0.91978  0.14708  0.16107  1.0000
  C   C3169     1.0  0.50288  0.37697  0.00602  1.0000
  H   H2507     1.0  0.51833  0.10496  0.00562  1.0000
  C   C3170     1.0  0.68251  0.02524  0.06854  1.0000
  H   H2508     1.0  0.58918  0.44334  0.11484  1.0000
  H   H2509     1.0  0.62180  0.44410  0.07636  1.0000
  H   H2510     1.0  0.63146  0.39084  0.13128  1.0000
  H   H2511     1.0  0.62701  0.35424  0.14496  1.0000
  H   H2512     1.0  0.61497  0.32643  0.13452  1.0000
  H   H2513     1.0  0.55877  0.47455  0.02063  1.0000
  H   H2514     1.0  0.61133  0.37248  0.09612  1.0000
  H   H2515     1.0  0.65676  0.37317  0.09306  1.0000
  C   C3171     1.0  0.97838  0.12388  0.06218  1.0000
  H   H2516     1.0  0.84302  0.06888  0.04468  1.0000
  H   H2517     1.0  0.81254  0.09542  0.08203  1.0000
  Fe  Fe213     1.0  0.69211  0.26896  0.16422  1.0000
  H   H2518     1.0  0.53165  0.07896  0.12575  1.0000
  C   C3172     1.0  0.97634  0.99442  0.99077  1.0000
  Fe  Fe214     1.0  0.50995  0.22452  0.11118  1.0000
  Fe  Fe215     1.0  0.70628  0.46704  0.12863  1.0000
  H   H2519     1.0  0.96667  0.44155  0.03649  1.0000
  C   C3173     1.0  0.72931  0.00016  0.04249  1.0000
  C   C3174     1.0  0.54514  0.47044  0.01680  1.0000
  H   H2520     1.0  0.50551  0.29923  0.07907  1.0000
  C   C3175     1.0  0.97002  0.44147  0.04687  1.0000
  H   H2521     1.0  0.81273  0.12668  0.02788  1.0000
  H   H2522     1.0  0.93933  0.10068  0.00470  1.0000
  C   C3176     1.0  0.82156  0.09765  0.07135  1.0000
  C   C3177     1.0  0.55498  0.30298  0.98721  1.0000
  C   C3178     1.0  0.70240  0.23035  0.13534  1.0000
  H   H2523     1.0  0.76739  0.21925  0.15757  1.0000
  H   H2524     1.0  0.74637  0.07033  0.14924  1.0000
  C   C3179     1.0  0.64386  0.43256  0.11836  1.0000
  H   H2525     1.0  0.52096  0.15473  0.05947  1.0000
  H   H2526     1.0  0.96378  0.98427  0.97461  1.0000
  H   H2527     1.0  0.77835  0.00469  0.05109  1.0000
  C   C3180     1.0  0.53496  0.11712  0.97026  1.0000
  H   H2528     1.0  0.70536  0.03932  0.11699  1.0000
  C   C3181     1.0  0.53632  0.11151  0.98458  1.0000
  H   H2529     1.0  0.77998  0.46897  0.13859  1.0000
  C   C3182     1.0  0.64344  0.44738  0.12737  1.0000
  C   C3183     1.0  0.48987  0.13179  0.04109  1.0000
  C   C3184     1.0  0.69910  0.14466  0.13371  1.0000
  S   S422      1.0  0.97591  0.17742  0.10855  1.0000
  C   C3185     1.0  0.80390  0.98034  0.00268  1.0000
  P   P107      1.0  0.80121  0.00875  0.02180  1.0000
  S   S423      1.0  0.73348  0.98513  0.11983  1.0000
  C   C3186     1.0  0.66115  0.42780  0.08463  1.0000
  H   H2530     1.0  0.95422  0.23119  0.15177  1.0000
  C   C3187     1.0  0.56506  0.42348  0.08841  1.0000
  H   H2531     1.0  0.50454  0.44547  0.97691  1.0000
  H   H2532     1.0  0.83061  0.47452  0.09765  1.0000
  H   H2533     1.0  0.98118  0.44040  0.08429  1.0000
  H   H2534     1.0  0.52059  0.99842  0.03986  1.0000
  H   H2535     1.0  0.94973  0.11857  0.02233  1.0000
  H   H2536     1.0  0.67041  0.24835  0.13142  1.0000
  H   H2537     1.0  0.96166  0.24440  0.12604  1.0000
  H   H2538     1.0  0.53328  0.45077  0.03640  1.0000
  C   C3188     1.0  0.91709  0.05355  0.97621  1.0000
  S   S424      1.0  0.97390  0.04901  0.02571  1.0000
  H   H2539     1.0  0.97866  0.06978  0.07601  1.0000
  C   C3189     1.0  0.69291  0.40561  0.07287  1.0000
  H   H2540     1.0  0.71278  0.17583  0.14863  1.0000
  H   H2541     1.0  0.70315  0.16007  0.12745  1.0000
  H   H2542     1.0  0.58868  0.46951  0.13064  1.0000
  H   H2543     1.0  0.53208  0.35503  0.01228  1.0000
  H   H2544     1.0  0.51090  0.42577  0.07364  1.0000
  H   H2545     1.0  0.56423  0.98281  0.97274  1.0000
  H   H2546     1.0  0.77582  0.08234  0.15845  1.0000
  C   C3190     1.0  0.52639  0.20353  0.07668  1.0000
  C   C3191     1.0  0.54482  0.18773  0.07339  1.0000
  C   C3192     1.0  0.54265  0.17040  0.06702  1.0000
  C   C3193     1.0  0.52198  0.16861  0.06415  1.0000
  C   C3194     1.0  0.96695  0.43673  0.97379  1.0000
  C   C3195     1.0  0.51011  0.01657  0.08906  1.0000
  C   C3196     1.0  0.92670  0.10680  0.01293  1.0000
  C   C3197     1.0  0.51909  0.36854  0.01467  1.0000
  H   H2547     1.0  0.48799  0.02482  0.99465  1.0000
  C   C3198     1.0  0.71082  0.12481  0.12976  1.0000
  C   C3199     1.0  0.97521  0.10189  0.06328  1.0000
  C   C3200     1.0  0.96643  0.41398  0.97574  1.0000
  H   H2548     1.0  0.87506  0.99508  0.14464  1.0000
  H   H2549     1.0  0.52808  0.21697  0.08166  1.0000
  H   H2550     1.0  0.56067  0.18868  0.07606  1.0000
  H   H2551     1.0  0.55687  0.15787  0.06475  1.0000
  C   C3201     1.0  0.81080  0.99910  0.00517  1.0000
  H   H2552     1.0  0.98469  0.28305  0.07668  1.0000
  H   H2553     1.0  0.83338  0.02280  0.99709  1.0000
  H   H2554     1.0  0.65938  0.42236  0.11503  1.0000
  C   C3202     1.0  0.80639  0.03858  0.14424  1.0000
  S   S425      1.0  0.57980  0.01806  0.03659  1.0000
  C   C3203     1.0  0.60765  0.12101  0.13176  1.0000
  H   H2555     1.0  0.50137  0.40160  0.03962  1.0000
  Fe  Fe216     1.0  0.55288  0.01318  0.05539  1.0000
  C   C3204     1.0  0.64045  0.17339  0.14472  1.0000
  H   H2556     1.0  0.61741  0.19113  0.11490  1.0000
  H   H2557     1.0  0.97867  0.23702  0.06287  1.0000
  C   C3205     1.0  0.89689  0.14726  0.16178  1.0000
  C   C3206     1.0  0.62140  0.16779  0.15407  1.0000
  C   C3207     1.0  0.89425  0.12136  0.03462  1.0000
  H   H2558     1.0  0.61763  0.13090  0.13501  1.0000
  C   C3208     1.0  0.71274  0.34478  0.10705  1.0000
  H   H2559     1.0  0.49647  0.11429  0.04271  1.0000
  H   H2560     1.0  0.63612  0.05866  0.13195  1.0000
  C   C3209     1.0  0.57179  0.11127  0.13191  1.0000
  H   H2561     1.0  0.86958  0.99435  0.09283  1.0000
  C   C3210     1.0  0.88534  0.16178  0.15195  1.0000
  H   H2562     1.0  0.71061  0.24478  0.13249  1.0000
  C   C3211     1.0  0.59890  0.23530  0.15967  1.0000
  C   C3212     1.0  0.58917  0.44624  0.07198  1.0000
  C   C3213     1.0  0.75516  0.21038  0.16465  1.0000
  C   C3214     1.0  0.84526  0.10321  0.04374  1.0000
  C   C3215     1.0  0.50563  0.20172  0.07394  1.0000
  H   H2563     1.0  0.72340  0.00121  0.02153  1.0000
  H   H2564     1.0  0.65123  0.21626  0.13923  1.0000
  H   H2565     1.0  0.51385  0.11771  0.12671  1.0000
  H   H2566     1.0  0.68453  0.08872  0.15504  1.0000
  C   C3216     1.0  0.50070  0.43708  0.06677  1.0000
  H   H2567     1.0  0.91861  0.07086  0.97371  1.0000
  S   S426      1.0  0.72600  0.45990  0.10793  1.0000
  H   H2568     1.0  0.67923  0.36537  0.16388  1.0000
  H   H2569     1.0  0.96705  0.01096  0.98935  1.0000
  H   H2570     1.0  0.62340  0.47234  0.13864  1.0000
  H   H2571     1.0  0.84841  0.00815  0.97501  1.0000
  C   C3217     1.0  0.98120  0.08666  0.07490  1.0000
  H   H2572     1.0  0.71230  0.99858  0.04737  1.0000
  H   H2573     1.0  0.97811  0.35610  0.09249  1.0000
  H   H2574     1.0  0.95986  0.02893  0.11456  1.0000
  H   H2575     1.0  0.98325  0.45169  0.11551  1.0000
  C   C3218     1.0  0.97842  0.44096  0.07374  1.0000
  C   C3219     1.0  0.97565  0.02899  0.10753  1.0000
  H   H2576     1.0  0.87549  0.99578  0.03538  1.0000
  H   H2577     1.0  0.51345  0.98476  0.12104  1.0000
  C   C3220     1.0  0.48844  0.30394  0.11395  1.0000
  C   C3221     1.0  0.98468  0.42393  0.05293  1.0000
  S   S427      1.0  0.49537  0.19503  0.10988  1.0000
  C   C3222     1.0  0.93209  0.45582  0.01596  1.0000
  H   H2578     1.0  0.97910  0.29022  0.02784  1.0000
  C   C3223     1.0  0.53828  0.97793  0.99895  1.0000
  H   H2579     1.0  0.95837  0.26715  0.04753  1.0000
  H   H2580     1.0  0.83989  0.98191  0.15264  1.0000
  Fe  Fe217     1.0  0.83625  0.13807  0.16693  1.0000
  C   C3224     1.0  0.48677  0.14365  0.05214  1.0000
  C   C3225     1.0  0.48691  0.39512  0.00923  1.0000
  C   C3226     1.0  0.98636  0.34255  0.09929  1.0000
  S   S428      1.0  0.76364  0.99026  0.35479  1.0000
  C   C3227     1.0  0.64075  0.44242  0.34420  1.0000
  Fe  Fe218     1.0  0.65345  0.29092  0.18293  1.0000
  S   S429      1.0  0.63623  0.29933  0.20419  1.0000
  Fe  Fe219     1.0  0.64305  0.24323  0.31640  1.0000
  S   S430      1.0  0.63912  0.27298  0.29954  1.0000
  S   S431      1.0  0.61776  0.23861  0.33633  1.0000
  Fe  Fe220     1.0  0.68993  0.22624  0.30241  1.0000
  S   S432      1.0  0.68998  0.25529  0.28483  1.0000
  S   S433      1.0  0.71616  0.19641  0.29933  1.0000
  Fe  Fe221     1.0  0.67390  0.27575  0.30172  1.0000
  S   S434      1.0  0.68050  0.31041  0.30144  1.0000
  Fe  Fe222     1.0  0.65558  0.25017  0.28414  1.0000
  S   S435      1.0  0.64639  0.24422  0.26411  1.0000
  S   S436      1.0  0.67705  0.24708  0.31939  1.0000
  S   S437      1.0  0.65617  0.22011  0.30096  1.0000
  S   S438      1.0  0.53048  0.19815  0.33914  1.0000
  Fe  Fe223     1.0  0.71268  0.42262  0.34832  1.0000
  S   S439      1.0  0.74110  0.39568  0.34291  1.0000
  H   H2581     1.0  0.91790  0.22628  0.35975  1.0000
  H   H2582     1.0  0.69649  0.36641  0.23624  1.0000
  C   C3228     1.0  0.63726  0.35330  0.21509  1.0000
  C   C3229     1.0  0.70633  0.41191  0.19246  1.0000
  Fe  Fe224     1.0  0.71802  0.37201  0.35448  1.0000
  S   S440      1.0  0.71677  0.33749  0.35088  1.0000
  H   H2583     1.0  0.60201  0.35948  0.21485  1.0000
  C   C3230     1.0  0.81067  0.30224  0.35533  1.0000
  Fe  Fe225     1.0  0.78915  0.13308  0.18166  1.0000
  S   S441      1.0  0.79871  0.09701  0.19004  1.0000
  S   S442      1.0  0.75340  0.14915  0.18768  1.0000
  H   H2584     1.0  0.51555  0.26135  0.32816  1.0000
  H   H2585     1.0  0.65800  0.17200  0.20910  1.0000
  Fe  Fe226     1.0  0.81841  0.09494  0.16843  1.0000
  C   C3231     1.0  0.61843  0.35660  0.20867  1.0000
  H   H2586     1.0  0.55522  0.19804  0.19663  1.0000
  Fe  Fe227     1.0  0.82857  0.10740  0.19500  1.0000
  S   S443      1.0  0.84363  0.09106  0.21443  1.0000
  H   H2587     1.0  0.72071  0.14781  0.27838  1.0000
  S   S444      1.0  0.81757  0.14357  0.18835  1.0000
  Fe  Fe228     1.0  0.84011  0.08189  0.31417  1.0000
  S   S445      1.0  0.86683  0.09383  0.29665  1.0000
  S   S446      1.0  0.83919  0.04462  0.31860  1.0000
  Fe  Fe229     1.0  0.82163  0.12906  0.31934  1.0000
  S   S447      1.0  0.84683  0.14405  0.30247  1.0000
  S   S448      1.0  0.79607  0.15175  0.33184  1.0000
  Fe  Fe230     1.0  0.83999  0.12086  0.28961  1.0000
  S   S449      1.0  0.83119  0.13682  0.26818  1.0000
  Fe  Fe231     1.0  0.87144  0.11607  0.31107  1.0000
  S   S450      1.0  0.90652  0.11881  0.31371  1.0000
  S   S451      1.0  0.81309  0.10756  0.30603  1.0000
  S   S452      1.0  0.84663  0.10233  0.32900  1.0000
  S   S453      1.0  0.96796  0.23258  0.34830  1.0000
  Fe  Fe232     1.0  0.96355  0.19755  0.34826  1.0000
  S   S454      1.0  0.93124  0.19201  0.34264  1.0000
  C   C3232     1.0  0.91310  0.13873  0.32226  1.0000
  C   C3233     1.0  0.93529  0.13810  0.32382  1.0000
  H   H2588     1.0  0.64373  0.35126  0.17527  1.0000
  C   C3234     1.0  0.92495  0.17091  0.33497  1.0000
  C   C3235     1.0  0.90276  0.17130  0.33360  1.0000
  C   C3236     1.0  0.89685  0.15534  0.32732  1.0000
  H   H2589     1.0  0.72928  0.98596  0.26325  1.0000
  H   H2590     1.0  0.66482  0.45756  0.36055  1.0000
  H   H2591     1.0  0.89003  0.18420  0.33731  1.0000
  H   H2592     1.0  0.87973  0.15607  0.32623  1.0000
  C   C3237     1.0  0.84041  0.10415  0.22919  1.0000
  C   C3238     1.0  0.82773  0.12503  0.22969  1.0000
  C   C3239     1.0  0.82502  0.13476  0.24176  1.0000
  C   C3240     1.0  0.83500  0.12373  0.25337  1.0000
  C   C3241     1.0  0.84763  0.10282  0.25289  1.0000
  C   C3242     1.0  0.85028  0.09305  0.24083  1.0000
  H   H2593     1.0  0.81998  0.13363  0.22080  1.0000
  H   H2594     1.0  0.81514  0.15089  0.24210  1.0000
  H   H2595     1.0  0.85535  0.09419  0.26180  1.0000
  H   H2596     1.0  0.85998  0.07682  0.24053  1.0000
  H   H2597     1.0  0.92976  0.34045  0.33884  1.0000
  H   H2598     1.0  0.57722  0.28226  0.32779  1.0000
  H   H2599     1.0  0.65911  0.31560  0.23523  1.0000
  C   C3243     1.0  0.73343  0.22131  0.16820  1.0000
  H   H2600     1.0  0.55910  0.22940  0.27878  1.0000
  C   C3244     1.0  0.72404  0.05914  0.32943  1.0000
  C   C3245     1.0  0.65857  0.34886  0.20720  1.0000
  C   C3246     1.0  0.68979  0.41154  0.20437  1.0000
  C   C3247     1.0  0.73815  0.18530  0.30876  1.0000
  C   C3248     1.0  0.75574  0.17092  0.30258  1.0000
  C   C3249     1.0  0.77384  0.16141  0.30943  1.0000
  C   C3250     1.0  0.77402  0.16526  0.32289  1.0000
  C   C3251     1.0  0.75634  0.17960  0.32922  1.0000
  C   C3252     1.0  0.73848  0.18983  0.32209  1.0000
  H   H2601     1.0  0.75563  0.16758  0.29223  1.0000
  H   H2602     1.0  0.78773  0.15113  0.30426  1.0000
  H   H2603     1.0  0.75647  0.18277  0.33962  1.0000
  H   H2604     1.0  0.72490  0.20088  0.32696  1.0000
  C   C3253     1.0  0.68979  0.31782  0.31555  1.0000
  C   C3254     1.0  0.69732  0.30192  0.32641  1.0000
  C   C3255     1.0  0.70519  0.30830  0.33725  1.0000
  C   C3256     1.0  0.70569  0.33061  0.33733  1.0000
  C   C3257     1.0  0.69779  0.34659  0.32660  1.0000
  C   C3258     1.0  0.68997  0.34019  0.31573  1.0000
  H   H2605     1.0  0.69751  0.28466  0.32633  1.0000
  H   H2606     1.0  0.71121  0.29582  0.34551  1.0000
  H   H2607     1.0  0.69813  0.36381  0.32654  1.0000
  H   H2608     1.0  0.68425  0.35260  0.30734  1.0000
  C   C3259     1.0  0.59322  0.22814  0.33658  1.0000
  C   C3260     1.0  0.59043  0.21851  0.32551  1.0000
  C   C3261     1.0  0.57100  0.20955  0.32635  1.0000
  C   C3262     1.0  0.55401  0.21070  0.33809  1.0000
  C   C3263     1.0  0.55656  0.22088  0.34897  1.0000
  C   C3264     1.0  0.57628  0.22919  0.34832  1.0000
  H   H2609     1.0  0.60342  0.21756  0.31644  1.0000
  H   H2610     1.0  0.56911  0.20166  0.31792  1.0000
  H   H2611     1.0  0.54350  0.22202  0.35799  1.0000
  H   H2612     1.0  0.57838  0.23653  0.35690  1.0000
  H   H2613     1.0  0.75954  0.44060  0.31926  1.0000
  C   C3265     1.0  0.74570  0.17662  0.17962  1.0000
  C   C3266     1.0  0.72388  0.18746  0.18308  1.0000
  S   S455      1.0  0.70249  0.45198  0.33191  1.0000
  C   C3267     1.0  0.66309  0.16927  0.16942  1.0000
  H   H2614     1.0  0.71180  0.17871  0.19035  1.0000
  Fe  Fe233     1.0  0.74993  0.39662  0.36396  1.0000
  C   C3268     1.0  0.64156  0.28531  0.22085  1.0000
  C   C3269     1.0  0.65853  0.26732  0.22243  1.0000
  C   C3270     1.0  0.66113  0.25569  0.23594  1.0000
  C   C3271     1.0  0.64735  0.26248  0.24797  1.0000
  C   C3272     1.0  0.63090  0.28099  0.24637  1.0000
  C   C3273     1.0  0.62796  0.29226  0.23286  1.0000
  H   H2615     1.0  0.66907  0.26192  0.21321  1.0000
  H   H2616     1.0  0.67321  0.24085  0.23705  1.0000
  H   H2617     1.0  0.61957  0.28581  0.25550  1.0000
  H   H2618     1.0  0.61473  0.30614  0.23169  1.0000
  C   C3274     1.0  0.78494  0.00486  0.34457  1.0000
  C   C3275     1.0  0.78270  0.02767  0.34452  1.0000
  C   C3276     1.0  0.79902  0.04005  0.33657  1.0000
  C   C3277     1.0  0.81776  0.02986  0.32847  1.0000
  C   C3278     1.0  0.81986  0.00711  0.32835  1.0000
  C   C3279     1.0  0.80365  0.99462  0.33642  1.0000
  H   H2619     1.0  0.76828  0.03580  0.35074  1.0000
  H   H2620     1.0  0.79726  0.05740  0.33688  1.0000
  H   H2621     1.0  0.78245  0.44480  0.35681  1.0000
  C   C3280     1.0  0.91528  0.34323  0.34682  1.0000
  C   C3281     1.0  0.55129  0.29017  0.34520  1.0000
  H   H2622     1.0  0.77742  0.42277  0.33995  1.0000
  C   C3282     1.0  0.66075  0.34843  0.19278  1.0000
  C   C3283     1.0  0.68604  0.19415  0.26774  1.0000
  H   H2623     1.0  0.96839  0.20919  0.18869  1.0000
  C   C3284     1.0  0.70331  0.32276  0.21069  1.0000
  H   H2624     1.0  0.50920  0.36423  0.36087  1.0000
  C   C3285     1.0  0.63451  0.46544  0.34196  1.0000
  H   H2625     1.0  0.71421  0.06924  0.33692  1.0000
  C   C3286     1.0  0.83016  0.29768  0.36119  1.0000
  C   C3287     1.0  0.89531  0.25439  0.35175  1.0000
  H   H2626     1.0  0.80188  0.28899  0.35508  1.0000
  C   C3288     1.0  0.77552  0.45316  0.34752  1.0000
  H   H2627     1.0  0.95624  0.18952  0.17265  1.0000
  H   H2628     1.0  0.71775  0.35728  0.19063  1.0000
  C   C3289     1.0  0.74086  0.30247  0.21004  1.0000
  C   C3290     1.0  0.76837  0.22211  0.20760  1.0000
  C   C3291     1.0  0.74139  0.02298  0.32423  1.0000
  H   H2629     1.0  0.67363  0.16468  0.30703  1.0000
  C   C3292     1.0  0.73971  0.99872  0.26006  1.0000
  H   H2630     1.0  0.77615  0.23398  0.19949  1.0000
  H   H2631     1.0  0.63725  0.43285  0.35461  1.0000
  H   H2632     1.0  0.92854  0.13593  0.16877  1.0000
  C   C3293     1.0  0.75570  0.99852  0.24788  1.0000
  S   S456      1.0  0.65991  0.25791  0.17564  1.0000
  C   C3294     1.0  0.76216  0.12018  0.29237  1.0000
  C   C3295     1.0  0.77224  0.12824  0.27881  1.0000
  C   C3296     1.0  0.76571  0.12336  0.26712  1.0000
  C   C3297     1.0  0.74892  0.11053  0.26903  1.0000
  H   H2633     1.0  0.78505  0.13842  0.27740  1.0000
  H   H2634     1.0  0.77370  0.12955  0.25663  1.0000
  H   H2635     1.0  0.74365  0.10704  0.25998  1.0000
  C   C3298     1.0  0.94780  0.08149  0.34413  1.0000
  H   H2636     1.0  0.57290  0.15892  0.20068  1.0000
  C   C3299     1.0  0.65010  0.46652  0.31719  1.0000
  H   H2637     1.0  0.60320  0.14747  0.21497  1.0000
  C   C3300     1.0  0.67776  0.15492  0.17755  1.0000
  P   P108      1.0  0.73083  0.09866  0.31182  1.0000
  H   H2638     1.0  0.81811  0.19896  0.18671  1.0000
  H   H2639     1.0  0.76504  0.24133  0.22394  1.0000
  C   C3301     1.0  0.62076  0.35592  0.19433  1.0000
  C   C3302     1.0  0.66012  0.27738  0.35180  1.0000
  C   C3303     1.0  0.73464  0.28562  0.20495  1.0000
  H   H2640     1.0  0.70080  0.21784  0.17979  1.0000
  H   H2641     1.0  0.60619  0.35812  0.18940  1.0000
  C   C3304     1.0  0.59563  0.16462  0.21310  1.0000
  H   H2642     1.0  0.55449  0.26454  0.31712  1.0000
  H   H2643     1.0  0.94851  0.31267  0.36395  1.0000
  H   H2644     1.0  0.72486  0.01543  0.27759  1.0000
  H   H2645     1.0  0.74119  0.17879  0.23634  1.0000
  C   C3305     1.0  0.65207  0.43166  0.33307  1.0000
  H   H2646     1.0  0.68016  0.30620  0.20448  1.0000
  H   H2647     1.0  0.92385  0.07725  0.18860  1.0000
  C   C3306     1.0  0.64508  0.18585  0.18992  1.0000
  C   C3307     1.0  0.65932  0.17114  0.19807  1.0000
  H   H2648     1.0  0.75591  0.06258  0.29682  1.0000
  H   H2649     1.0  0.81718  0.47056  0.34732  1.0000
  H   H2650     1.0  0.53247  0.33600  0.34759  1.0000
  C   C3308     1.0  0.64192  0.35196  0.18637  1.0000
  H   H2651     1.0  0.69683  0.28500  0.23500  1.0000
  H   H2652     1.0  0.58552  0.30537  0.18681  1.0000
  H   H2653     1.0  0.65774  0.41408  0.33493  1.0000
  H   H2654     1.0  0.64894  0.10282  0.31856  1.0000
  C   C3309     1.0  0.69286  0.17252  0.27391  1.0000
  C   C3310     1.0  0.57849  0.27664  0.36692  1.0000
  H   H2655     1.0  0.61612  0.17499  0.22491  1.0000
  C   C3311     1.0  0.68217  0.34982  0.25624  1.0000
  H   H2656     1.0  0.73020  0.33382  0.21700  1.0000
  H   H2657     1.0  0.63506  0.35429  0.22613  1.0000
  H   H2658     1.0  0.72532  0.09311  0.28397  1.0000
  H   H2659     1.0  0.74873  0.17069  0.26550  1.0000
  C   C3312     1.0  0.73722  0.01534  0.26813  1.0000
  C   C3313     1.0  0.81363  0.34105  0.35024  1.0000
  C   C3314     1.0  0.51626  0.27822  0.34511  1.0000
  H   H2660     1.0  0.60109  0.27146  0.17662  1.0000
  H   H2661     1.0  0.90624  0.31157  0.34783  1.0000
  C   C3315     1.0  0.59211  0.47101  0.35973  1.0000
  H   H2662     1.0  0.68899  0.35894  0.26222  1.0000
  Fe  Fe234     1.0  0.49923  0.20669  0.35465  1.0000
  H   H2663     1.0  0.79213  0.19830  0.23903  1.0000
  H   H2664     1.0  0.82488  0.18479  0.25067  1.0000
  H   H2665     1.0  0.68060  0.16244  0.27963  1.0000
  H   H2666     1.0  0.94800  0.12533  0.31996  1.0000
  C   C3316     1.0  0.77012  0.20712  0.25787  1.0000
  C   C3317     1.0  0.90810  0.24201  0.36162  1.0000
  H   H2667     1.0  0.95834  0.15351  0.33111  1.0000
  H   H2668     1.0  0.89535  0.24814  0.34221  1.0000
  H   H2669     1.0  0.85423  0.99136  0.34404  1.0000
  H   H2670     1.0  0.70910  0.30628  0.25007  1.0000
  H   H2671     1.0  0.75246  0.17190  0.21186  1.0000
  S   S457      1.0  0.84926  0.10256  0.17405  1.0000
  C   C3318     1.0  0.67569  0.15572  0.19187  1.0000
  H   H2672     1.0  0.63275  0.19818  0.19456  1.0000
  C   C3319     1.0  0.72793  0.03624  0.33348  1.0000
  H   H2673     1.0  0.64531  0.31041  0.35424  1.0000
  H   H2674     1.0  0.77341  0.08473  0.32140  1.0000
  H   H2675     1.0  0.75329  0.24935  0.26505  1.0000
  C   C3320     1.0  0.67661  0.14677  0.30917  1.0000
  C   C3321     1.0  0.68460  0.10063  0.31530  1.0000
  C   C3322     1.0  0.73864  0.10264  0.28262  1.0000
  C   C3323     1.0  0.57578  0.20879  0.20842  1.0000
  C   C3324     1.0  0.54724  0.27170  0.32648  1.0000
  P   P109      1.0  0.74534  0.21563  0.24987  1.0000
  C   C3325     1.0  0.69839  0.13556  0.30851  1.0000
  C   C3326     1.0  0.75108  0.03260  0.31095  1.0000
  H   H2676     1.0  0.85469  0.19829  0.17115  1.0000
  C   C3327     1.0  0.52533  0.26981  0.33272  1.0000
  H   H2677     1.0  0.76728  0.12428  0.30126  1.0000
  C   C3328     1.0  0.76191  0.22625  0.22140  1.0000
  H   H2678     1.0  0.82227  0.18567  0.27599  1.0000
  H   H2679     1.0  0.76206  0.02227  0.30401  1.0000
  H   H2680     1.0  0.66667  0.32999  0.27474  1.0000
  C   C3329     1.0  0.71546  0.16421  0.27308  1.0000
  H   H2681     1.0  0.96164  0.27238  0.36515  1.0000
  P   P110      1.0  0.56855  0.30024  0.35461  1.0000
  C   C3330     1.0  0.66988  0.25687  0.35817  1.0000
  C   C3331     1.0  0.83322  0.33653  0.35596  1.0000
  H   H2682     1.0  0.69623  0.19612  0.22395  1.0000
  C   C3332     1.0  0.59096  0.31316  0.34318  1.0000
  C   C3333     1.0  0.59190  0.33558  0.34274  1.0000
  C   C3334     1.0  0.60945  0.34535  0.33422  1.0000
  C   C3335     1.0  0.62638  0.33286  0.32617  1.0000
  C   C3336     1.0  0.62568  0.31064  0.32658  1.0000
  C   C3337     1.0  0.60812  0.30085  0.33500  1.0000
  C   C3338     1.0  0.65880  0.13497  0.31278  1.0000
  H   H2683     1.0  0.72897  0.39265  0.17828  1.0000
  C   C3339     1.0  0.56018  0.28181  0.33266  1.0000
  H   H2684     1.0  0.57927  0.34567  0.34900  1.0000
  H   H2685     1.0  0.61000  0.36260  0.33387  1.0000
  H   H2686     1.0  0.64013  0.34029  0.31965  1.0000
  H   H2687     1.0  0.63896  0.30093  0.32044  1.0000
  H   H2688     1.0  0.74673  0.27141  0.20252  1.0000
  C   C3340     1.0  0.64032  0.36885  0.35425  1.0000
  H   H2689     1.0  0.70896  0.47412  0.35403  1.0000
  C   C3341     1.0  0.69398  0.37161  0.20701  1.0000
  H   H2690     1.0  0.61197  0.39417  0.35156  1.0000
  H   H2691     1.0  0.71079  0.42749  0.18666  1.0000
  H   H2692     1.0  0.65811  0.27979  0.34089  1.0000
  H   H2693     1.0  0.69119  0.14354  0.17282  1.0000
  H   H2694     1.0  0.65135  0.37666  0.34556  1.0000
  C   C3342     1.0  0.88269  0.27473  0.35415  1.0000
  C   C3343     1.0  0.90190  0.32684  0.35200  1.0000
  H   H2695     1.0  0.96461  0.08145  0.33853  1.0000
  H   H2696     1.0  0.68146  0.42686  0.20782  1.0000
  C   C3344     1.0  0.82399  0.04196  0.20953  1.0000
  C   C3345     1.0  0.84488  0.03395  0.21336  1.0000
  C   C3346     1.0  0.84748  0.03122  0.22743  1.0000
  C   C3347     1.0  0.82923  0.03665  0.23769  1.0000
  C   C3348     1.0  0.80823  0.04499  0.23389  1.0000
  C   C3349     1.0  0.80571  0.04742  0.21974  1.0000
  P   P111      1.0  0.78454  0.05266  0.24689  1.0000
  C   C3350     1.0  0.76694  0.03157  0.25185  1.0000
  C   C3351     1.0  0.79409  0.05614  0.26246  1.0000
  C   C3352     1.0  0.79656  0.03828  0.27354  1.0000
  C   C3353     1.0  0.80382  0.04085  0.28563  1.0000
  C   C3354     1.0  0.80886  0.06115  0.28671  1.0000
  C   C3355     1.0  0.80702  0.07878  0.27564  1.0000
  C   C3356     1.0  0.79987  0.07628  0.26350  1.0000
  C   C3357     1.0  0.75073  0.03174  0.26403  1.0000
  C   C3358     1.0  0.75501  0.18707  0.21459  1.0000
  C   C3359     1.0  0.83248  0.05514  0.35692  1.0000
  H   H2697     1.0  0.93580  0.07636  0.32607  1.0000
  C   C3360     1.0  0.76930  0.01486  0.24377  1.0000
  C   C3361     1.0  0.76945  0.07822  0.23892  1.0000
  C   C3362     1.0  0.74633  0.08100  0.23947  1.0000
  C   C3363     1.0  0.73521  0.10021  0.23231  1.0000
  C   C3364     1.0  0.74708  0.11668  0.22449  1.0000
  C   C3365     1.0  0.77003  0.11403  0.22388  1.0000
  C   C3366     1.0  0.78116  0.09488  0.23101  1.0000
  H   H2698     1.0  0.82208  0.04452  0.19857  1.0000
  H   H2699     1.0  0.85913  0.03036  0.20537  1.0000
  H   H2700     1.0  0.86377  0.02544  0.23033  1.0000
  H   H2701     1.0  0.83173  0.03479  0.24846  1.0000
  H   H2702     1.0  0.78973  0.05398  0.21653  1.0000
  H   H2703     1.0  0.79318  0.02226  0.27281  1.0000
  H   H2704     1.0  0.80581  0.02710  0.29416  1.0000
  H   H2705     1.0  0.81460  0.06311  0.29604  1.0000
  H   H2706     1.0  0.81143  0.09437  0.27641  1.0000
  H   H2707     1.0  0.79918  0.09004  0.25495  1.0000
  H   H2708     1.0  0.74861  0.04453  0.27039  1.0000
  C   C3367     1.0  0.91028  0.36302  0.35216  1.0000
  H   H2709     1.0  0.83418  0.99908  0.32201  1.0000
  H   H2710     1.0  0.73708  0.28816  0.26514  1.0000
  H   H2711     1.0  0.78162  0.01427  0.23435  1.0000
  H   H2712     1.0  0.73683  0.06829  0.24512  1.0000
  H   H2713     1.0  0.71747  0.10211  0.23253  1.0000
  H   H2714     1.0  0.73863  0.13123  0.21855  1.0000
  H   H2715     1.0  0.77935  0.12648  0.21745  1.0000
  H   H2716     1.0  0.79903  0.09271  0.22997  1.0000
  C   C3368     1.0  0.67146  0.21569  0.21220  1.0000
  C   C3369     1.0  0.67861  0.20117  0.22373  1.0000
  C   C3370     1.0  0.66301  0.19350  0.23505  1.0000
  C   C3371     1.0  0.64027  0.20026  0.23481  1.0000
  C   C3372     1.0  0.63292  0.21503  0.22330  1.0000
  C   C3373     1.0  0.64874  0.22264  0.21199  1.0000
  P   P112      1.0  0.60344  0.22312  0.22283  1.0000
  C   C3374     1.0  0.58903  0.22530  0.24047  1.0000
  C   C3375     1.0  0.59827  0.24943  0.21150  1.0000
  C   C3376     1.0  0.58941  0.26878  0.21715  1.0000
  C   C3377     1.0  0.58457  0.28881  0.20827  1.0000
  C   C3378     1.0  0.58875  0.28975  0.19369  1.0000
  C   C3379     1.0  0.59769  0.27064  0.18796  1.0000
  C   C3380     1.0  0.60244  0.25057  0.19681  1.0000
  C   C3381     1.0  0.58796  0.23540  0.26325  1.0000
  C   C3382     1.0  0.59868  0.23398  0.24950  1.0000
  H   H2717     1.0  0.68353  0.22193  0.20351  1.0000
  H   H2718     1.0  0.67705  0.34519  0.18653  1.0000
  C   C3383     1.0  0.71273  0.28708  0.20299  1.0000
  H   H2719     1.0  0.62845  0.19414  0.24370  1.0000
  H   H2720     1.0  0.64366  0.23424  0.20310  1.0000
  H   H2721     1.0  0.58643  0.26864  0.22838  1.0000
  C   C3384     1.0  0.80238  0.32393  0.34988  1.0000
  C   C3385     1.0  0.86274  0.02445  0.35605  1.0000
  C   C3386     1.0  0.89184  0.36649  0.36263  1.0000
  H   H2722     1.0  0.60934  0.23594  0.19218  1.0000
  H   H2723     1.0  0.59575  0.24192  0.27017  1.0000
  H   H2724     1.0  0.61456  0.23961  0.24590  1.0000
  C   C3387     1.0  0.78770  0.20012  0.27866  1.0000
  C   C3388     1.0  0.59335  0.20260  0.21618  1.0000
  C   C3389     1.0  0.66124  0.32122  0.25572  1.0000
  C   C3390     1.0  0.74226  0.10662  0.32528  1.0000
  H   H2725     1.0  0.57828  0.30376  0.21267  1.0000
  C   C3391     1.0  0.90355  0.08323  0.35755  1.0000
  C   C3392     1.0  0.77249  0.44049  0.33804  1.0000
  H   H2726     1.0  0.72985  0.13980  0.35034  1.0000
  C   C3393     1.0  0.72523  0.32095  0.21296  1.0000
  C   C3394     1.0  0.76880  0.20723  0.27227  1.0000
  C   C3395     1.0  0.85379  0.19179  0.18229  1.0000
  S   S458      1.0  0.78707  0.39242  0.36493  1.0000
  H   H2727     1.0  0.78656  0.20031  0.28979  1.0000
  H   H2728     1.0  0.66850  0.20078  0.26877  1.0000
  C   C3396     1.0  0.75176  0.21088  0.23189  1.0000
  C   C3397     1.0  0.88344  0.33014  0.36263  1.0000
  C   C3398     1.0  0.73128  0.17738  0.26589  1.0000
  C   C3399     1.0  0.72459  0.19914  0.25956  1.0000
  C   C3400     1.0  0.77280  0.10232  0.33817  1.0000
  H   H2729     1.0  0.72117  0.02868  0.34397  1.0000
  H   H2730     1.0  0.67535  0.24347  0.35217  1.0000
  H   H2731     1.0  0.68728  0.14479  0.19803  1.0000
  H   H2732     1.0  0.69588  0.22429  0.25629  1.0000
  H   H2733     1.0  0.74486  0.00528  0.32759  1.0000
  H   H2734     1.0  0.64190  0.14374  0.31337  1.0000
  C   C3401     1.0  0.74852  0.19114  0.22842  1.0000
  C   C3402     1.0  0.71034  0.37218  0.19488  1.0000
  H   H2735     1.0  0.78712  0.32753  0.34549  1.0000
  H   H2736     1.0  0.78965  0.09533  0.33966  1.0000
  C   C3403     1.0  0.52917  0.28815  0.35138  1.0000
  C   C3404     1.0  0.66960  0.33346  0.26333  1.0000
  H   H2737     1.0  0.98343  0.29212  0.34111  1.0000
  C   C3405     1.0  0.94121  0.15407  0.33014  1.0000
  C   C3406     1.0  0.73911  0.12747  0.34418  1.0000
  C   C3407     1.0  0.76050  0.11764  0.34642  1.0000
  C   C3408     1.0  0.71767  0.20967  0.17725  1.0000
  H   H2738     1.0  0.71328  0.12976  0.33239  1.0000
  C   C3409     1.0  0.71879  0.25516  0.24110  1.0000
  H   H2739     1.0  0.68731  0.08282  0.31771  1.0000
  C   C3410     1.0  0.74124  0.25679  0.25828  1.0000
  C   C3411     1.0  0.76269  0.45054  0.32630  1.0000
  C   C3412     1.0  0.56737  0.22835  0.26808  1.0000
  C   C3413     1.0  0.81541  0.46909  0.35863  1.0000
  H   H2740     1.0  0.60832  0.28349  0.33537  1.0000
  C   C3414     1.0  0.68345  0.39150  0.21153  1.0000
  C   C3415     1.0  0.67738  0.34223  0.23381  1.0000
  C   C3416     1.0  0.73445  0.24459  0.24978  1.0000
  C   C3417     1.0  0.79057  0.19917  0.25005  1.0000
  C   C3418     1.0  0.70178  0.20748  0.26063  1.0000
  C   C3419     1.0  0.66523  0.32551  0.24102  1.0000
  C   C3420     1.0  0.56856  0.19308  0.20280  1.0000
  H   H2741     1.0  0.65197  0.30815  0.26123  1.0000
  C   C3421     1.0  0.60293  0.18031  0.21871  1.0000
  H   H2742     1.0  0.77011  0.19928  0.19356  1.0000
  H   H2743     1.0  0.56763  0.22576  0.20662  1.0000
  C   C3422     1.0  0.68622  0.35412  0.24151  1.0000
  C   C3423     1.0  0.80787  0.19206  0.27087  1.0000
  H   H2744     1.0  0.75307  0.21260  0.27863  1.0000
  C   C3424     1.0  0.73217  0.27899  0.25829  1.0000
  C   C3425     1.0  0.53494  0.33626  0.35815  1.0000
  C   C3426     1.0  0.74529  0.10740  0.29439  1.0000
  H   H2745     1.0  0.66634  0.43545  0.31109  1.0000
  C   C3427     1.0  0.72993  0.12193  0.33372  1.0000
  H   H2746     1.0  0.87321  0.28425  0.34624  1.0000
  C   C3428     1.0  0.76367  0.09668  0.32771  1.0000
  C   C3429     1.0  0.70951  0.27726  0.24132  1.0000
  C   C3430     1.0  0.55746  0.21996  0.25910  1.0000
  C   C3431     1.0  0.76495  0.20253  0.20422  1.0000
  H   H2747     1.0  0.71332  0.24619  0.23440  1.0000
  P   P113      1.0  0.68320  0.34641  0.21484  1.0000
  H   H2748     1.0  0.75779  0.30121  0.21172  1.0000
  C   C3432     1.0  0.66280  0.11192  0.31574  1.0000
  C   C3433     1.0  0.70253  0.11243  0.31187  1.0000
  H   H2749     1.0  0.92093  0.37550  0.34839  1.0000
  C   C3434     1.0  0.80931  0.19161  0.25657  1.0000
  C   C3435     1.0  0.57855  0.17103  0.20508  1.0000
  H   H2750     1.0  0.54143  0.21461  0.26285  1.0000
  C   C3436     1.0  0.71663  0.39224  0.18775  1.0000
  C   C3437     1.0  0.71629  0.28920  0.24985  1.0000
  C   C3438     1.0  0.73352  0.06897  0.31605  1.0000
  C   C3439     1.0  0.64848  0.34905  0.36227  1.0000
  H   H2751     1.0  0.76790  0.12254  0.35419  1.0000
  C   C3440     1.0  0.83192  0.18250  0.20522  1.0000
  C   C3441     1.0  0.85134  0.17274  0.21062  1.0000
  C   C3442     1.0  0.87226  0.17299  0.20199  1.0000
  C   C3443     1.0  0.87324  0.18231  0.18771  1.0000
  P   P114      1.0  0.89733  0.15914  0.20870  1.0000
  C   C3444     1.0  0.91935  0.17577  0.20238  1.0000
  C   C3445     1.0  0.89190  0.15406  0.22775  1.0000
  C   C3446     1.0  0.88153  0.17131  0.23518  1.0000
  C   C3447     1.0  0.87744  0.16751  0.24989  1.0000
  C   C3448     1.0  0.88361  0.14650  0.25729  1.0000
  C   C3449     1.0  0.89364  0.12920  0.25000  1.0000
  C   C3450     1.0  0.89777  0.13290  0.23530  1.0000
  C   C3451     1.0  0.92642  0.18689  0.21140  1.0000
  C   C3452     1.0  0.94396  0.19899  0.20644  1.0000
  C   C3453     1.0  0.95468  0.20002  0.19249  1.0000
  C   C3454     1.0  0.94786  0.18897  0.18347  1.0000
  C   C3455     1.0  0.93035  0.17690  0.18839  1.0000
  C   C3456     1.0  0.90577  0.13319  0.20232  1.0000
  C   C3457     1.0  0.88979  0.12174  0.20008  1.0000
  C   C3458     1.0  0.89638  0.10162  0.19517  1.0000
  C   C3459     1.0  0.91887  0.09275  0.19252  1.0000
  C   C3460     1.0  0.93485  0.10385  0.19495  1.0000
  C   C3461     1.0  0.92834  0.12392  0.19995  1.0000
  H   H2752     1.0  0.83607  0.28084  0.36564  1.0000
  H   H2753     1.0  0.65411  0.47589  0.30678  1.0000
  H   H2754     1.0  0.81587  0.18198  0.21189  1.0000
  H   H2755     1.0  0.84987  0.16458  0.22145  1.0000
  H   H2756     1.0  0.80700  0.35794  0.34624  1.0000
  H   H2757     1.0  0.87656  0.18766  0.22958  1.0000
  H   H2758     1.0  0.86920  0.18073  0.25561  1.0000
  H   H2759     1.0  0.88000  0.14346  0.26869  1.0000
  H   H2760     1.0  0.89780  0.11279  0.25580  1.0000
  H   H2761     1.0  0.90530  0.11913  0.22993  1.0000
  H   H2762     1.0  0.91878  0.18612  0.22229  1.0000
  H   H2763     1.0  0.94934  0.20743  0.21348  1.0000
  C   C3462     1.0  0.93153  0.07842  0.33702  1.0000
  H   H2764     1.0  0.97928  0.13269  0.35432  1.0000
  H   H2765     1.0  0.92573  0.16811  0.18128  1.0000
  H   H2766     1.0  0.87223  0.12824  0.20214  1.0000
  H   H2767     1.0  0.88394  0.09288  0.19347  1.0000
  H   H2768     1.0  0.70786  0.27396  0.19910  1.0000
  H   H2769     1.0  0.95229  0.09697  0.19289  1.0000
  H   H2770     1.0  0.94094  0.13220  0.20189  1.0000
  H   H2771     1.0  0.56025  0.21196  0.23853  1.0000
  C   C3463     1.0  0.74733  0.05551  0.30688  1.0000
  C   C3464     1.0  0.56822  0.21845  0.24532  1.0000
  H   H2772     1.0  0.71199  0.14506  0.30585  1.0000
  H   H2773     1.0  0.89677  0.07803  0.33787  1.0000
  H   H2774     1.0  0.66991  0.39157  0.22036  1.0000
  C   C3465     1.0  0.64702  0.18504  0.17564  1.0000
  H   H2775     1.0  0.86294  0.05552  0.34205  1.0000
  C   C3466     1.0  0.85374  0.04606  0.35096  1.0000
  C   C3467     1.0  0.69708  0.30552  0.20591  1.0000
  C   C3468     1.0  0.75633  0.47338  0.32384  1.0000
  H   H2776     1.0  0.84780  0.44944  0.35944  1.0000
  H   H2777     1.0  0.84146  0.35012  0.35621  1.0000
  S   S459      1.0  0.68879  0.39866  0.35812  1.0000
  H   H2778     1.0  0.66853  0.18252  0.24411  1.0000
  H   H2779     1.0  0.52186  0.29372  0.36128  1.0000
  C   C3469     1.0  0.90943  0.07940  0.34369  1.0000
  C   C3470     1.0  0.65688  0.44371  0.31959  1.0000
  H   H2780     1.0  0.82529  0.07169  0.35274  1.0000
  H   H2781     1.0  0.87910  0.01758  0.35115  1.0000
  H   H2782     1.0  0.88886  0.18181  0.18056  1.0000
  C   C3471     1.0  0.84181  0.31477  0.36135  1.0000
  C   C3472     1.0  0.83316  0.19206  0.19105  1.0000
  H   H2783     1.0  0.57906  0.21107  0.17185  1.0000
  H   H2784     1.0  0.75761  0.98562  0.24163  1.0000
  S   S460      1.0  0.68670  0.30064  0.17286  1.0000
  H   H2785     1.0  0.66579  0.34190  0.35969  1.0000
  C   C3473     1.0  0.61818  0.37858  0.35758  1.0000
  H   H2786     1.0  0.93276  0.13155  0.35910  1.0000
  H   H2787     1.0  0.88811  0.13633  0.16998  1.0000
  C   C3474     1.0  0.65297  0.29478  0.35944  1.0000
  C   C3475     1.0  0.94204  0.08545  0.35805  1.0000
  H   H2788     1.0  0.97829  0.30170  0.29967  1.0000
  C   C3476     1.0  0.55611  0.47372  0.35281  1.0000
  C   C3477     1.0  0.55104  0.32055  0.36436  1.0000
  H   H2789     1.0  0.80556  0.97714  0.33627  1.0000
  C   C3478     1.0  0.76123  0.18806  0.17020  1.0000
  H   H2790     1.0  0.88629  0.08454  0.36256  1.0000
  H   H2791     1.0  0.61364  0.27704  0.35946  1.0000
  H   H2792     1.0  0.49936  0.27654  0.35011  1.0000
  C   C3479     1.0  0.52185  0.35236  0.36560  1.0000
  H   H2793     1.0  0.63627  0.19698  0.16937  1.0000
  H   H2794     1.0  0.55566  0.17372  0.36348  1.0000
  C   C3480     1.0  0.91977  0.08625  0.36472  1.0000
  C   C3481     1.0  0.76929  0.47621  0.34510  1.0000
  C   C3482     1.0  0.55051  0.45718  0.36408  1.0000
  C   C3483     1.0  0.83279  0.45712  0.36544  1.0000
  C   C3484     1.0  0.86725  0.97731  0.34536  1.0000
  C   C3485     1.0  0.60126  0.26893  0.36679  1.0000
  H   H2795     1.0  0.88823  0.38165  0.36696  1.0000
  H   H2796     1.0  0.53442  0.45189  0.36583  1.0000
  C   C3486     1.0  0.88254  0.28267  0.36659  1.0000
  C   C3487     1.0  0.85044  0.01166  0.36711  1.0000
  H   H2797     1.0  0.60849  0.23470  0.16780  1.0000
  P   P115      1.0  0.96254  0.09078  0.36714  1.0000
  Fe  Fe235     1.0  0.92386  0.39728  0.55488  1.0000
  S   S461      1.0  0.91498  0.37249  0.54432  1.0000
  Fe  Fe236     1.0  0.96968  0.39724  0.53626  1.0000
  Fe  Fe237     1.0  0.93020  0.39092  0.52387  1.0000
  S   S462      1.0  0.91217  0.40325  0.50512  1.0000
  Fe  Fe238     1.0  0.94974  0.35465  0.54587  1.0000
  S   S463      1.0  0.93631  0.41741  0.53438  1.0000
  Fe  Fe239     1.0  0.87566  0.39331  0.41253  1.0000
  S   S464      1.0  0.90226  0.39670  0.39355  1.0000
  S   S465      1.0  0.83894  0.40650  0.41167  1.0000
  Fe  Fe240     1.0  0.90938  0.37127  0.43194  1.0000
  S   S466      1.0  0.93812  0.37275  0.41403  1.0000
  S   S467      1.0  0.91850  0.35408  0.45319  1.0000
  Fe  Fe241     1.0  0.92157  0.40724  0.40753  1.0000
  S   S468      1.0  0.94343  0.43372  0.39899  1.0000
  Fe  Fe242     1.0  0.91662  0.36175  0.40175  1.0000
  S   S469      1.0  0.92982  0.33982  0.38493  1.0000
  S   S470      1.0  0.89392  0.40656  0.42607  1.0000
  S   S471      1.0  0.88879  0.35766  0.42006  1.0000
  C   C3488     1.0  0.98260  0.21062  0.55255  1.0000
  Fe  Fe243     1.0  0.50947  0.37625  0.43713  1.0000
  S   S472      1.0  0.51662  0.34156  0.44864  1.0000
  Fe  Fe244     1.0  0.55592  0.37359  0.42007  1.0000
  S   S473      1.0  0.56627  0.33890  0.43052  1.0000
  S   S474      1.0  0.57695  0.39131  0.40125  1.0000
  Fe  Fe245     1.0  0.53300  0.33264  0.42748  1.0000
  S   S475      1.0  0.53171  0.30016  0.42014  1.0000
  Fe  Fe246     1.0  0.54895  0.35091  0.45078  1.0000
  S   S476      1.0  0.56136  0.33837  0.47197  1.0000
  S   S477      1.0  0.52359  0.36683  0.41593  1.0000
  S   S478      1.0  0.54083  0.38620  0.44037  1.0000
  H   H2798     1.0  0.92674  0.98200  0.40747  1.0000
  Fe  Fe247     1.0  0.58199  0.37486  0.54290  1.0000
  S   S479      1.0  0.55155  0.36411  0.55712  1.0000
  S   S480      1.0  0.58258  0.38568  0.51908  1.0000
  C   C3489     1.0  0.97282  0.17430  0.51584  1.0000
  C   C3490     1.0  0.89588  0.27029  0.37630  1.0000
  S   S481      1.0  0.58361  0.40182  0.55484  1.0000
  H   H2799     1.0  0.80959  0.46186  0.39921  1.0000
  C   C3491     1.0  0.82026  0.04265  0.36805  1.0000
  S   S482      1.0  0.67849  0.39776  0.39934  1.0000
  H   H2800     1.0  0.93241  0.43443  0.42924  1.0000
  H   H2801     1.0  0.71729  0.33737  0.40296  1.0000
  C   C3492     1.0  0.67247  0.25365  0.37226  1.0000
  C   C3493     1.0  0.59284  0.23918  0.38585  1.0000
  P   P116      1.0  0.86624  0.30900  0.36970  1.0000
  H   H2802     1.0  0.55229  0.99142  0.40785  1.0000
  C   C3494     1.0  0.56673  0.35208  0.48499  1.0000
  C   C3495     1.0  0.57123  0.33957  0.49798  1.0000
  C   C3496     1.0  0.57557  0.34958  0.50863  1.0000
  C   C3497     1.0  0.57619  0.37223  0.50628  1.0000
  C   C3498     1.0  0.57215  0.38469  0.49318  1.0000
  C   C3499     1.0  0.56706  0.37480  0.48270  1.0000
  H   H2803     1.0  0.57157  0.32192  0.49980  1.0000
  H   H2804     1.0  0.57904  0.33967  0.51850  1.0000
  H   H2805     1.0  0.57277  0.40218  0.49117  1.0000
  H   H2806     1.0  0.56384  0.38466  0.47276  1.0000
  C   C3500     1.0  0.63261  0.47028  0.37171  1.0000
  C   C3501     1.0  0.51988  0.27161  0.40580  1.0000
  H   H2807     1.0  0.53229  0.25959  0.41060  1.0000
  C   C3502     1.0  0.65482  0.45988  0.37066  1.0000
  C   C3503     1.0  0.60521  0.39245  0.40107  1.0000
  C   C3504     1.0  0.61503  0.38566  0.41318  1.0000
  C   C3505     1.0  0.63746  0.38752  0.41260  1.0000
  C   C3506     1.0  0.65033  0.39563  0.39986  1.0000
  C   C3507     1.0  0.64047  0.40229  0.38780  1.0000
  C   C3508     1.0  0.61801  0.40088  0.38844  1.0000
  H   H2808     1.0  0.60527  0.37928  0.42300  1.0000
  H   H2809     1.0  0.64487  0.38251  0.42203  1.0000
  H   H2810     1.0  0.64997  0.40899  0.37802  1.0000
  H   H2811     1.0  0.61052  0.40633  0.37909  1.0000
  H   H2812     1.0  0.95603  0.99760  0.37396  1.0000
  C   C3509     1.0  0.63794  0.46496  0.55581  1.0000
  H   H2813     1.0  0.72516  0.31311  0.38482  1.0000
  C   C3510     1.0  0.63005  0.46581  0.39707  1.0000
  C   C3511     1.0  0.52119  0.39158  0.51332  1.0000
  H   H2814     1.0  0.72683  0.44828  0.40910  1.0000
  C   C3512     1.0  0.82477  0.40272  0.39852  1.0000
  C   C3513     1.0  0.83581  0.39228  0.38721  1.0000
  H   H2815     1.0  0.68092  0.44293  0.38208  1.0000
  C   C3514     1.0  0.80105  0.39709  0.37794  1.0000
  C   C3515     1.0  0.79003  0.40779  0.38917  1.0000
  C   C3516     1.0  0.80188  0.41060  0.39938  1.0000
  H   H2816     1.0  0.85347  0.38649  0.38635  1.0000
  H   H2817     1.0  0.52788  0.40058  0.50329  1.0000
  H   H2818     1.0  0.77244  0.41395  0.38996  1.0000
  H   H2819     1.0  0.79337  0.41909  0.40794  1.0000
  C   C3517     1.0  0.93769  0.31084  0.38629  1.0000
  C   C3518     1.0  0.93517  0.29666  0.39917  1.0000
  C   C3519     1.0  0.94298  0.27388  0.39987  1.0000
  C   C3520     1.0  0.95287  0.26500  0.38763  1.0000
  C   C3521     1.0  0.95439  0.27905  0.37466  1.0000
  C   C3522     1.0  0.94689  0.30187  0.37401  1.0000
  H   H2820     1.0  0.92717  0.30330  0.40854  1.0000
  H   H2821     1.0  0.94136  0.26308  0.40993  1.0000
  H   H2822     1.0  0.57682  0.26898  0.54715  1.0000
  C   C3523     1.0  0.88966  0.00266  0.38497  1.0000
  C   C3524     1.0  0.91405  0.38908  0.49090  1.0000
  C   C3525     1.0  0.92705  0.36836  0.49024  1.0000
  C   C3526     1.0  0.92830  0.35786  0.47860  1.0000
  C   C3527     1.0  0.91678  0.36807  0.46747  1.0000
  C   C3528     1.0  0.90379  0.38879  0.46814  1.0000
  C   C3529     1.0  0.90231  0.39915  0.47985  1.0000
  H   H2823     1.0  0.93607  0.36040  0.49870  1.0000
  H   H2824     1.0  0.93827  0.34177  0.47821  1.0000
  H   H2825     1.0  0.89474  0.39678  0.45970  1.0000
  H   H2826     1.0  0.89222  0.41518  0.48027  1.0000
  C   C3530     1.0  0.50547  0.97793  0.51979  1.0000
  H   H2827     1.0  0.60504  0.29767  0.38395  1.0000
  C   C3531     1.0  0.56579  0.44723  0.37301  1.0000
  C   C3532     1.0  0.49115  0.28037  0.39094  1.0000
  H   H2828     1.0  0.49948  0.42335  0.45770  1.0000
  C   C3533     1.0  0.57017  0.24681  0.38614  1.0000
  C   C3534     1.0  0.61230  0.34860  0.37699  1.0000
  C   C3535     1.0  0.95026  0.11390  0.37604  1.0000
  C   C3536     1.0  0.95231  0.44809  0.41018  1.0000
  C   C3537     1.0  0.94464  0.44513  0.42468  1.0000
  C   C3538     1.0  0.49960  0.30859  0.40249  1.0000
  C   C3539     1.0  0.93024  0.16284  0.52148  1.0000
  S   S483      1.0  0.95788  0.37866  0.55774  1.0000
  P   P117      1.0  0.53622  0.99264  0.55536  1.0000
  C   C3540     1.0  0.62302  0.00629  0.42604  1.0000
  C   C3541     1.0  0.81121  0.46419  0.38786  1.0000
  C   C3542     1.0  0.66423  0.45190  0.38282  1.0000
  C   C3543     1.0  0.96941  0.07471  0.49480  1.0000
  C   C3544     1.0  0.76945  0.43964  0.56711  1.0000
  H   H2829     1.0  0.91735  0.16398  0.37051  1.0000
  C   C3545     1.0  0.49155  0.31936  0.48574  1.0000
  C   C3546     1.0  0.97127  0.97975  0.56616  1.0000
  C   C3547     1.0  0.52764  0.17152  0.40271  1.0000
  H   H2830     1.0  0.80486  0.43386  0.56586  1.0000
  H   H2831     1.0  0.97482  0.36738  0.48077  1.0000
  C   C3548     1.0  0.50881  0.35818  0.52715  1.0000
  H   H2832     1.0  0.51916  0.20810  0.43448  1.0000
  C   C3549     1.0  0.50984  0.11258  0.56439  1.0000
  H   H2833     1.0  0.56650  0.19628  0.37830  1.0000
  H   H2834     1.0  0.70598  0.46576  0.38692  1.0000
  C   C3550     1.0  0.96465  0.03120  0.39380  1.0000
  H   H2835     1.0  0.94638  0.45419  0.44446  1.0000
  C   C3551     1.0  0.53159  0.15977  0.38008  1.0000
  C   C3552     1.0  0.93223  0.46349  0.50686  1.0000
  C   C3553     1.0  0.96428  0.32132  0.41921  1.0000
  C   C3554     1.0  0.55420  0.18559  0.38285  1.0000
  C   C3555     1.0  0.50531  0.47408  0.43169  1.0000
  C   C3556     1.0  0.95087  0.31106  0.43083  1.0000
  H   H2836     1.0  0.89930  0.46022  0.51795  1.0000
  H   H2837     1.0  0.55803  0.23816  0.39350  1.0000
  C   C3557     1.0  0.51758  0.36993  0.51422  1.0000
  C   C3558     1.0  0.49418  0.99407  0.52770  1.0000
  C   C3559     1.0  0.52664  0.44231  0.55495  1.0000
  S   S484      1.0  0.96441  0.37157  0.52445  1.0000
  C   C3560     1.0  0.49408  0.46942  0.45708  1.0000
  C   C3561     1.0  0.66430  0.33512  0.39985  1.0000
  H   H2838     1.0  0.98209  0.43066  0.48627  1.0000
  C   C3562     1.0  0.58808  0.44175  0.52438  1.0000
  C   C3563     1.0  0.68182  0.34062  0.40475  1.0000
  S   S485      1.0  0.49731  0.20909  0.37742  1.0000
  C   C3564     1.0  0.61073  0.99042  0.53696  1.0000
  C   C3565     1.0  0.60738  0.44238  0.51436  1.0000
  C   C3566     1.0  0.95535  0.30972  0.44435  1.0000
  C   C3567     1.0  0.96468  0.98332  0.45431  1.0000
  C   C3568     1.0  0.52726  0.12282  0.55622  1.0000
  H   H2839     1.0  0.91882  0.24057  0.38132  1.0000
  H   H2840     1.0  0.97662  0.36205  0.45638  1.0000
  C   C3569     1.0  0.96874  0.47002  0.42760  1.0000
  C   C3570     1.0  0.50393  0.98377  0.42988  1.0000
  H   H2841     1.0  0.97857  0.37481  0.42407  1.0000
  C   C3571     1.0  0.49133  0.46616  0.44385  1.0000
  H   H2842     1.0  0.54541  0.27106  0.37707  1.0000
  H   H2843     1.0  0.96066  0.32262  0.40870  1.0000
  H   H2844     1.0  0.88967  0.31442  0.39156  1.0000
  H   H2845     1.0  0.78490  0.97683  0.53108  1.0000
  H   H2846     1.0  0.55980  0.01312  0.52865  1.0000
  Fe  Fe248     1.0  0.97689  0.21978  0.36976  1.0000
  C   C3572     1.0  0.54122  0.98439  0.41686  1.0000
  H   H2847     1.0  0.96621  0.46762  0.49864  1.0000
  C   C3573     1.0  0.96615  0.29906  0.56366  1.0000
  H   H2848     1.0  0.93670  0.30449  0.42948  1.0000
  H   H2849     1.0  0.50311  0.47129  0.42155  1.0000
  H   H2850     1.0  0.51479  0.36537  0.38504  1.0000
  C   C3574     1.0  0.98003  0.42479  0.47703  1.0000
  H   H2851     1.0  0.52622  0.15071  0.37338  1.0000
  C   C3575     1.0  0.51689  0.31918  0.50159  1.0000
  P   P118      1.0  0.50403  0.33020  0.52849  1.0000
  C   C3576     1.0  0.51143  0.97971  0.47298  1.0000
  C   C3577     1.0  0.85780  0.30885  0.38840  1.0000
  C   C3578     1.0  0.55666  0.15640  0.42795  1.0000
  C   C3579     1.0  0.83068  0.45465  0.38005  1.0000
  C   C3580     1.0  0.80510  0.35542  0.44959  1.0000
  C   C3581     1.0  0.82465  0.35597  0.43976  1.0000
  C   C3582     1.0  0.82416  0.35600  0.42563  1.0000
  C   C3583     1.0  0.80424  0.35541  0.42129  1.0000
  C   C3584     1.0  0.78455  0.35454  0.43111  1.0000
  C   C3585     1.0  0.78506  0.35497  0.44528  1.0000
  P   P119      1.0  0.75842  0.35689  0.42507  1.0000
  C   C3586     1.0  0.76316  0.34141  0.41076  1.0000
  C   C3587     1.0  0.73751  0.34564  0.43872  1.0000
  C   C3588     1.0  0.74350  0.32712  0.44867  1.0000
  C   C3589     1.0  0.72723  0.31818  0.45903  1.0000
  C   C3590     1.0  0.70487  0.32751  0.45945  1.0000
  C   C3591     1.0  0.69874  0.34572  0.44947  1.0000
  C   C3592     1.0  0.71494  0.35474  0.43912  1.0000
  C   C3593     1.0  0.76024  0.31917  0.41332  1.0000
  C   C3594     1.0  0.76455  0.30714  0.40225  1.0000
  C   C3595     1.0  0.77204  0.31712  0.38856  1.0000
  C   C3596     1.0  0.77529  0.33908  0.38597  1.0000
  C   C3597     1.0  0.77075  0.35121  0.39699  1.0000
  C   C3598     1.0  0.74894  0.38589  0.41957  1.0000
  C   C3599     1.0  0.75570  0.40183  0.42537  1.0000
  C   C3600     1.0  0.74782  0.42423  0.42155  1.0000
  C   C3601     1.0  0.73297  0.43093  0.41201  1.0000
  C   C3602     1.0  0.72600  0.41522  0.40630  1.0000
  C   C3603     1.0  0.73400  0.39278  0.40998  1.0000
  H   H2852     1.0  0.80541  0.35606  0.46048  1.0000
  H   H2853     1.0  0.84006  0.35711  0.44297  1.0000
  H   H2854     1.0  0.83913  0.35735  0.41790  1.0000
  H   H2855     1.0  0.80425  0.35647  0.41017  1.0000
  H   H2856     1.0  0.76993  0.35573  0.45293  1.0000
  H   H2857     1.0  0.76070  0.31945  0.44836  1.0000
  H   H2858     1.0  0.73194  0.30396  0.46672  1.0000
  H   H2859     1.0  0.69225  0.32060  0.46747  1.0000
  H   H2860     1.0  0.68136  0.35287  0.44972  1.0000
  H   H2861     1.0  0.70965  0.36871  0.43146  1.0000
  H   H2862     1.0  0.75454  0.31104  0.42381  1.0000
  H   H2863     1.0  0.76196  0.29010  0.40424  1.0000
  H   H2864     1.0  0.52185  0.12428  0.41988  1.0000
  H   H2865     1.0  0.59970  0.01151  0.51873  1.0000
  H   H2866     1.0  0.77319  0.36826  0.39472  1.0000
  H   H2867     1.0  0.76721  0.39714  0.43277  1.0000
  H   H2868     1.0  0.75336  0.43639  0.42593  1.0000
  C   C3604     1.0  0.84188  0.32735  0.55282  1.0000
  H   H2869     1.0  0.71417  0.42041  0.39912  1.0000
  H   H2870     1.0  0.72817  0.38087  0.40553  1.0000
  H   H2871     1.0  0.83277  0.38173  0.36817  1.0000
  C   C3605     1.0  0.95583  0.41415  0.46392  1.0000
  C   C3606     1.0  0.49508  0.05958  0.56334  1.0000
  H   H2872     1.0  0.93940  0.41233  0.46270  1.0000
  H   H2873     1.0  0.78097  0.34692  0.37536  1.0000
  H   H2874     1.0  0.54355  0.33779  0.39591  1.0000
  P   P120      1.0  0.86177  0.98339  0.37333  1.0000
  C   C3607     1.0  0.58680  0.99816  0.42508  1.0000
  H   H2875     1.0  0.94488  0.42484  0.48398  1.0000
  H   H2876     1.0  0.56169  0.43407  0.38162  1.0000
  C   C3608     1.0  0.95825  0.18241  0.50617  1.0000
  C   C3609     1.0  0.50771  0.26519  0.39695  1.0000
  C   C3610     1.0  0.54118  0.33759  0.38532  1.0000
  C   C3611     1.0  0.57171  0.15036  0.43743  1.0000
  C   C3612     1.0  0.55409  0.32142  0.37796  1.0000
  C   C3613     1.0  0.52376  0.98656  0.54170  1.0000
  C   C3614     1.0  0.94656  0.13356  0.39556  1.0000
  C   C3615     1.0  0.95539  0.11504  0.38913  1.0000
  C   C3616     1.0  0.63202  0.98407  0.42616  1.0000
  C   C3617     1.0  0.59467  0.00296  0.52925  1.0000
  H   H2877     1.0  0.57616  0.43152  0.52378  1.0000
  H   H2878     1.0  0.77512  0.30795  0.37993  1.0000
  C   C3618     1.0  0.97083  0.06668  0.37963  1.0000
  H   H2879     1.0  0.88792  0.42671  0.54453  1.0000
  H   H2880     1.0  0.82548  0.32697  0.55076  1.0000
  C   C3619     1.0  0.87851  0.35010  0.36788  1.0000
  C   C3620     1.0  0.96625  0.16026  0.52839  1.0000
  C   C3621     1.0  0.93266  0.15109  0.38894  1.0000
  C   C3622     1.0  0.51693  0.40132  0.52539  1.0000
  C   C3623     1.0  0.98190  0.33069  0.42117  1.0000
  H   H2881     1.0  0.59838  0.22459  0.39301  1.0000
  S   S486      1.0  0.72293  0.42497  0.36855  1.0000
  H   H2882     1.0  0.50637  0.39684  0.54779  1.0000
  C   C3624     1.0  0.87965  0.33401  0.54438  1.0000
  C   C3625     1.0  0.97312  0.31880  0.44632  1.0000
  H   H2883     1.0  0.90067  0.32887  0.55989  1.0000
  H   H2884     1.0  0.93910  0.14420  0.54085  1.0000
  C   C3626     1.0  0.87186  0.43518  0.54219  1.0000
  C   C3627     1.0  0.60837  0.25027  0.37619  1.0000
  H   H2885     1.0  0.97448  0.46419  0.39327  1.0000
  H   H2886     1.0  0.89687  0.27622  0.38571  1.0000
  H   H2887     1.0  0.95083  0.13449  0.40556  1.0000
  H   H2888     1.0  0.96637  0.10184  0.39433  1.0000
  H   H2889     1.0  0.97934  0.97784  0.47296  1.0000
  C   C3628     1.0  0.88202  0.98313  0.38443  1.0000
  C   C3629     1.0  0.53417  0.16400  0.43266  1.0000
  C   C3630     1.0  0.63448  0.33865  0.37360  1.0000
  H   H2890     1.0  0.54834  0.19542  0.40316  1.0000
  C   C3631     1.0  0.51857  0.99307  0.41859  1.0000
  C   C3632     1.0  0.52120  0.15926  0.39410  1.0000
  C   C3633     1.0  0.90850  0.25002  0.37383  1.0000
  H   H2891     1.0  0.86453  0.35287  0.37618  1.0000
  H   H2892     1.0  0.94455  0.30231  0.45336  1.0000
  H   H2893     1.0  0.80364  0.04958  0.37252  1.0000
  H   H2894     1.0  0.95272  0.14395  0.56727  1.0000
  H   H2895     1.0  0.56264  0.15483  0.41704  1.0000
  H   H2896     1.0  0.52043  0.41783  0.52473  1.0000
  C   C3634     1.0  0.57730  0.46906  0.56552  1.0000
  C   C3635     1.0  0.95774  0.04982  0.38426  1.0000
  P   P121      1.0  0.51423  0.17144  0.42078  1.0000
  H   H2897     1.0  0.59890  0.43750  0.56606  1.0000
  C   C3636     1.0  0.49431  0.46590  0.49462  1.0000
  H   H2898     1.0  0.59339  0.03051  0.42561  1.0000
  C   C3637     1.0  0.49065  0.98644  0.46875  1.0000
  C   C3638     1.0  0.52685  0.16466  0.44704  1.0000
  H   H2899     1.0  0.68004  0.23771  0.37718  1.0000
  C   C3639     1.0  0.87300  0.31167  0.39648  1.0000
  H   H2900     1.0  0.94222  0.05096  0.38059  1.0000
  H   H2901     1.0  0.92616  0.16564  0.39378  1.0000
  C   C3640     1.0  0.51315  0.31590  0.48865  1.0000
  C   C3641     1.0  0.56542  0.99268  0.54850  1.0000
  C   C3642     1.0  0.97081  0.98544  0.37497  1.0000
  H   H2902     1.0  0.97999  0.22789  0.54786  1.0000
  C   C3643     1.0  0.52794  0.31106  0.53354  1.0000
  C   C3644     1.0  0.98467  0.02925  0.39871  1.0000
  C   C3645     1.0  0.50497  0.21308  0.42912  1.0000
  H   H2903     1.0  0.51224  0.00685  0.41109  1.0000
  C   C3646     1.0  0.84344  0.44225  0.52760  1.0000
  C   C3647     1.0  0.60423  0.97892  0.55038  1.0000
  H   H2904     1.0  0.49387  0.01087  0.54458  1.0000
  C   C3648     1.0  0.54403  0.31815  0.53906  1.0000
  C   C3649     1.0  0.56169  0.30303  0.54381  1.0000
  C   C3650     1.0  0.56345  0.28072  0.54309  1.0000
  C   C3651     1.0  0.54785  0.27358  0.53727  1.0000
  C   C3652     1.0  0.53026  0.28872  0.53239  1.0000
  H   H2905     1.0  0.56629  0.30957  0.38297  1.0000
  C   C3653     1.0  0.92765  0.15016  0.37586  1.0000
  H   H2906     1.0  0.96568  0.13345  0.50315  1.0000
  C   C3654     1.0  0.82403  0.38961  0.37695  1.0000
  C   C3655     1.0  0.61896  0.46787  0.52607  1.0000
  C   C3656     1.0  0.75028  0.45537  0.56652  1.0000
  P   P122      1.0  0.64577  0.31345  0.38398  1.0000
  C   C3657     1.0  0.84638  0.32162  0.56658  1.0000
  H   H2907     1.0  0.50727  0.45254  0.49175  1.0000
  H   H2908     1.0  0.52710  0.31095  0.48076  1.0000
  C   C3658     1.0  0.48976  0.38455  0.48654  1.0000
  C   C3659     1.0  0.96834  0.46192  0.40446  1.0000
  H   H2909     1.0  0.98658  0.06987  0.55586  1.0000
  C   C3660     1.0  0.59998  0.46661  0.53646  1.0000
  C   C3661     1.0  0.90565  0.00230  0.39328  1.0000
  H   H2910     1.0  0.60135  0.34161  0.38605  1.0000
  H   H2911     1.0  0.54300  0.33528  0.53981  1.0000
  H   H2912     1.0  0.57375  0.30858  0.54837  1.0000
  H   H2913     1.0  0.54456  0.03867  0.54543  1.0000
  H   H2914     1.0  0.88332  0.01827  0.37908  1.0000
  H   H2915     1.0  0.51817  0.28290  0.52805  1.0000
  H   H2916     1.0  0.49150  0.29184  0.54961  1.0000
  C   C3662     1.0  0.58169  0.98003  0.55613  1.0000
  C   C3663     1.0  0.91702  0.47540  0.52929  1.0000
  H   H2917     1.0  0.52405  0.13578  0.54744  1.0000
  H   H2918     1.0  0.56205  0.12497  0.55343  1.0000
  C   C3664     1.0  0.59041  0.28821  0.40548  1.0000
  C   C3665     1.0  0.59222  0.28680  0.41956  1.0000
  C   C3666     1.0  0.61065  0.29299  0.42300  1.0000
  C   C3667     1.0  0.62718  0.30085  0.41235  1.0000
  C   C3668     1.0  0.62507  0.30308  0.39815  1.0000
  C   C3669     1.0  0.60674  0.29635  0.39482  1.0000
  C   C3670     1.0  0.70375  0.33233  0.39958  1.0000
  C   C3671     1.0  0.49359  0.41669  0.46852  1.0000
  H   H2919     1.0  0.57914  0.28118  0.42779  1.0000
  C   C3672     1.0  0.95269  0.45622  0.43330  1.0000
  H   H2920     1.0  0.87882  0.31284  0.41715  1.0000
  H   H2921     1.0  0.84071  0.30697  0.42882  1.0000
  H   H2922     1.0  0.57607  0.28331  0.40292  1.0000
  H   H2923     1.0  0.56938  0.45311  0.54304  1.0000
  H   H2924     1.0  0.52091  0.07423  0.54869  1.0000
  H   H2925     1.0  0.50768  0.14990  0.39797  1.0000
  C   C3673     1.0  0.83615  0.30582  0.39504  1.0000
  C   C3674     1.0  0.56436  0.15155  0.45168  1.0000
  H   H2926     1.0  0.96339  0.19333  0.49654  1.0000
  H   H2927     1.0  0.61195  0.29196  0.43394  1.0000
  H   H2928     1.0  0.64140  0.30510  0.41536  1.0000
  H   H2929     1.0  0.63761  0.45620  0.50727  1.0000
  C   C3675     1.0  0.83001  0.30520  0.40956  1.0000
  C   C3676     1.0  0.98117  0.19430  0.54500  1.0000
  H   H2930     1.0  0.97123  0.40392  0.44426  1.0000
  H   H2931     1.0  0.58905  0.14460  0.43373  1.0000
  S   S487      1.0  0.94917  0.31782  0.55271  1.0000
  C   C3677     1.0  0.86689  0.31082  0.41101  1.0000
  C   C3678     1.0  0.86438  0.43180  0.53043  1.0000
  H   H2932     1.0  0.89264  0.33868  0.53577  1.0000
  H   H2933     1.0  0.82393  0.30397  0.38909  1.0000
  H   H2934     1.0  0.54918  0.25626  0.53675  1.0000
  H   H2935     1.0  0.81326  0.30302  0.41461  1.0000
  H   H2936     1.0  0.48824  0.00026  0.46032  1.0000
  C   C3679     1.0  0.95893  0.42150  0.47580  1.0000
  C   C3680     1.0  0.96672  0.11706  0.50084  1.0000
  C   C3681     1.0  0.54387  0.18508  0.39688  1.0000
  H   H2937     1.0  0.93145  0.11681  0.50648  1.0000
  S   S488      1.0  0.72876  0.37116  0.37513  1.0000
  C   C3682     1.0  0.50317  0.99833  0.53864  1.0000
  H   H2938     1.0  0.64742  0.34254  0.40348  1.0000
  C   C3683     1.0  0.96018  0.12792  0.56458  1.0000
  C   C3684     1.0  0.52092  0.46338  0.54725  1.0000
  H   H2939     1.0  0.49966  0.35858  0.54948  1.0000
  C   C3685     1.0  0.82921  0.02103  0.37320  1.0000
  H   H2940     1.0  0.50915  0.47035  0.51177  1.0000
  C   C3686     1.0  0.52498  0.35303  0.37919  1.0000
  H   H2941     1.0  0.85502  0.33820  0.53107  1.0000
  H   H2942     1.0  0.48877  0.31704  0.47562  1.0000
  C   C3687     1.0  0.66856  0.32035  0.39025  1.0000
  C   C3688     1.0  0.97662  0.47276  0.41313  1.0000
  C   C3689     1.0  0.94431  0.45345  0.56009  1.0000
  C   C3690     1.0  0.54192  0.15860  0.45649  1.0000
  C   C3691     1.0  0.51569  0.05898  0.55449  1.0000
  C   C3692     1.0  0.84544  0.30746  0.41756  1.0000
  C   C3693     1.0  0.66523  0.27095  0.37998  1.0000
  H   H2943     1.0  0.93046  0.45575  0.49829  1.0000
  C   C3694     1.0  0.70818  0.31852  0.38947  1.0000
  H   H2944     1.0  0.59823  0.44567  0.37770  1.0000
  C   C3695     1.0  0.52182  0.01895  0.55971  1.0000
  H   H2945     1.0  0.98113  0.39254  0.38901  1.0000
  C   C3696     1.0  0.56303  0.26548  0.37676  1.0000
  H   H2946     1.0  0.54036  0.43090  0.55060  1.0000
  C   C3697     1.0  0.83737  0.45948  0.54847  1.0000
  H   H2947     1.0  0.87472  0.42088  0.52361  1.0000
  C   C3698     1.0  0.65558  0.29168  0.37360  1.0000
  H   H2948     1.0  0.51088  0.24839  0.39498  1.0000
  Fe  Fe249     1.0  0.70085  0.39918  0.37804  1.0000
  H   H2949     1.0  0.49630  0.32533  0.40455  1.0000
  H   H2950     1.0  0.86450  0.45044  0.56046  1.0000
  C   C3699     1.0  0.54814  0.17285  0.37448  1.0000
  C   C3700     1.0  0.93645  0.13170  0.36940  1.0000
  H   H2951     1.0  0.56935  0.00404  0.42495  1.0000
  S   S489      1.0  0.96322  0.23638  0.38902  1.0000
  H   H2952     1.0  0.53379  0.31668  0.50353  1.0000
  C   C3701     1.0  0.94879  0.08656  0.49964  1.0000
  C   C3702     1.0  0.51592  0.29331  0.40867  1.0000
  C   C3703     1.0  0.94744  0.10770  0.50269  1.0000
  H   H2953     1.0  0.57603  0.14684  0.45902  1.0000
  C   C3704     1.0  0.60040  0.01330  0.42559  1.0000
  C   C3705     1.0  0.50892  0.38947  0.53839  1.0000
  C   C3706     1.0  0.79022  0.44631  0.56508  1.0000
  H   H2954     1.0  0.94853  0.98423  0.43666  1.0000
  H   H2955     1.0  0.81363  0.46369  0.53433  1.0000
  C   C3707     1.0  0.52907  0.03874  0.55269  1.0000
  C   C3708     1.0  0.85844  0.44887  0.55122  1.0000
  C   C3709     1.0  0.85848  0.33365  0.54173  1.0000
  C   C3710     1.0  0.57209  0.00396  0.53494  1.0000
  H   H2956     1.0  0.83761  0.43945  0.51851  1.0000
  H   H2957     1.0  0.65898  0.44751  0.40542  1.0000
  S   S490      1.0  0.60592  0.35043  0.55510  1.0000
  C   C3711     1.0  0.93697  0.17668  0.50898  1.0000
  C   C3712     1.0  0.79204  0.46880  0.56239  1.0000
  C   C3713     1.0  0.82995  0.45597  0.53658  1.0000
  H   H2958     1.0  0.61037  0.43253  0.50606  1.0000
  H   H2959     1.0  0.97751  0.19933  0.53445  1.0000
  C   C3714     1.0  0.49296  0.23433  0.42946  1.0000
  H   H2960     1.0  0.52199  0.36239  0.50485  1.0000
  H   H2961     1.0  0.93260  0.44976  0.55441  1.0000
  H   H2962     1.0  0.52516  0.98832  0.46782  1.0000
  C   C3715     1.0  0.58654  0.45400  0.37081  1.0000
  H   H2963     1.0  0.91131  0.01743  0.39370  1.0000
  C   C3716     1.0  0.58435  0.45387  0.53535  1.0000
  H   H2964     1.0  0.92563  0.18312  0.50154  1.0000
  C   C3717     1.0  0.62274  0.45559  0.51513  1.0000
  H   H2965     1.0  0.62596  0.24421  0.37578  1.0000
  H   H2966     1.0  0.63357  0.01805  0.42634  1.0000
  H   H2967     1.0  0.62039  0.46781  0.40731  1.0000
  C   C3718     1.0  0.91424  0.98246  0.40107  1.0000
  H   H2968     1.0  0.53614  0.15930  0.46756  1.0000
  H   H2969     1.0  0.66718  0.26822  0.39092  1.0000
  H   H2970     1.0  0.67840  0.35195  0.41221  1.0000
  C   C3719     1.0  0.97646  0.12602  0.55255  1.0000
  C   C3720     1.0  0.69068  0.31251  0.38482  1.0000
  H   H2971     1.0  0.97622  0.31745  0.45692  1.0000
  H   H2972     1.0  0.91488  0.08972  0.37536  1.0000
  C   C3721     1.0  0.60417  0.36840  0.36892  1.0000
  C   C3722     1.0  0.91458  0.46612  0.51796  1.0000
  H   H2973     1.0  0.69458  0.30250  0.37659  1.0000
  C   C3723     1.0  0.49900  0.32583  0.51181  1.0000
  C   C3724     1.0  0.97389  0.40941  0.45347  1.0000
  H   H2974     1.0  0.49169  0.09491  0.38706  1.0000
  H   H2975     1.0  0.58979  0.02304  0.56212  1.0000
  H   H2976     1.0  0.87456  0.38854  0.56240  1.0000
  H   H2977     1.0  0.50943  0.16986  0.45092  1.0000
  C   C3725     1.0  0.49774  0.39387  0.47283  1.0000
  C   C3726     1.0  0.65182  0.45456  0.39601  1.0000
  C   C3727     1.0  0.49633  0.15065  0.42649  1.0000
  H   H2978     1.0  0.97007  0.05835  0.49252  1.0000
  H   H2979     1.0  0.81935  0.01165  0.38179  1.0000
  H   H2980     1.0  0.95450  0.01827  0.39747  1.0000
  C   C3728     1.0  0.54864  0.11668  0.55959  1.0000
  C   C3729     1.0  0.49885  0.19883  0.42167  1.0000
  C   C3730     1.0  0.88413  0.32852  0.55813  1.0000
  C   C3731     1.0  0.94477  0.15471  0.53118  1.0000
  H   H2981     1.0  0.91366  0.15857  0.52374  1.0000
  H   H2982     1.0  0.93385  0.07928  0.50106  1.0000
  C   C3732     1.0  0.49548  0.47590  0.50592  1.0000
  C   C3733     1.0  0.49142  0.11228  0.42959  1.0000
  S   S491      1.0  0.97036  0.18535  0.37035  1.0000
  H   H2983     1.0  0.49294  0.36685  0.48965  1.0000
  H   H2984     1.0  0.98201  0.41212  0.41143  1.0000
  H   H2985     1.0  0.74125  0.46224  0.37027  1.0000
  H   H2986     1.0  0.50670  0.38327  0.46542  1.0000
  H   H2987     1.0  0.49318  0.11758  0.56192  1.0000
  C   C3734     1.0  0.62054  0.47389  0.38494  1.0000
  C   C3735     1.0  0.50503  0.36791  0.53929  1.0000
  C   C3736     1.0  0.50488  0.12867  0.42493  1.0000
  H   H2988     1.0  0.90347  0.47632  0.53806  1.0000
  H   H2989     1.0  0.58719  0.37624  0.37183  1.0000
  H   H2990     1.0  0.97155  0.99831  0.44984  1.0000
  C   C3737     1.0  0.95133  0.47413  0.55702  1.0000
  H   H2991     1.0  0.63694  0.45134  0.55079  1.0000
  C   C3738     1.0  0.48735  0.30215  0.39370  1.0000
  H   H2992     1.0  0.96262  0.36961  0.37858  1.0000
  H   H2993     1.0  0.84398  0.44503  0.38538  1.0000
  H   H2994     1.0  0.64956  0.97857  0.42652  1.0000
  C   C3739     1.0  0.98009  0.36479  0.37940  1.0000
  H   H2995     1.0  0.49549  0.41926  0.41733  1.0000
  C   C3740     1.0  0.79375  0.47614  0.38110  1.0000
  C   C3741     1.0  0.49049  0.47182  0.56588  1.0000
  H   H2996     1.0  0.67045  0.45064  0.56072  1.0000
  H   H2997     1.0  0.49777  0.09551  0.42786  1.0000
  H   H2998     1.0  0.49790  0.24545  0.43500  1.0000
  H   H2999     1.0  0.73113  0.97865  0.56446  1.0000
  H   H3000     1.0  0.53047  0.46819  0.53701  1.0000
  C   C3742     1.0  0.97902  0.08612  0.55816  1.0000
  C   C3743     1.0  0.95234  0.47016  0.50707  1.0000
  H   H3001     1.0  0.62821  0.98925  0.53246  1.0000
  C   C3744     1.0  0.65698  0.46442  0.56151  1.0000
  H   H3002     1.0  0.98344  0.33590  0.37015  1.0000
  C   C3745     1.0  0.98629  0.32972  0.43475  1.0000
  P   P123      1.0  0.98486  0.15044  0.54108  1.0000
  C   C3746     1.0  0.98577  0.10494  0.54938  1.0000
  C   C3747     1.0  0.98479  0.17189  0.55104  1.0000
  H   H3003     1.0  0.62302  0.99351  0.60269  1.0000
  Fe  Fe250     1.0  0.81355  0.23845  0.70831  1.0000
  S   S492      1.0  0.78284  0.25599  0.69962  1.0000
  S   S493      1.0  0.81717  0.23367  0.73133  1.0000
  Fe  Fe251     1.0  0.83307  0.21761  0.68171  1.0000
  S   S494      1.0  0.80335  0.23298  0.67144  1.0000
  S   S495      1.0  0.85876  0.19409  0.66984  1.0000
  Fe  Fe252     1.0  0.80626  0.26348  0.67931  1.0000
  S   S496      1.0  0.80880  0.29419  0.66290  1.0000
  Fe  Fe253     1.0  0.78271  0.22404  0.69244  1.0000
  S   S497      1.0  0.75133  0.20850  0.69811  1.0000
  S   S498      1.0  0.83729  0.24843  0.68856  1.0000
  S   S499      1.0  0.81212  0.20607  0.70216  1.0000
  C   C3748     1.0  0.80835  0.10056  0.75183  1.0000
  H   H3004     1.0  0.81758  0.28151  0.72567  1.0000
  Fe  Fe254     1.0  0.75477  0.45409  0.62350  1.0000
  S   S500      1.0  0.75404  0.44872  0.60141  1.0000
  C   C3749     1.0  0.74078  0.98289  0.57131  1.0000
  Fe  Fe255     1.0  0.74599  0.40683  0.63542  1.0000
  S   S501      1.0  0.74516  0.39827  0.61447  1.0000
  S   S502      1.0  0.73806  0.38137  0.65488  1.0000
  Fe  Fe256     1.0  0.77488  0.41574  0.60700  1.0000
  S   S503      1.0  0.80091  0.39843  0.59133  1.0000
  Fe  Fe257     1.0  0.72431  0.43131  0.61000  1.0000
  S   S504      1.0  0.69377  0.43748  0.59857  1.0000
  S   S505      1.0  0.77752  0.42171  0.62842  1.0000
  S   S506      1.0  0.72311  0.43930  0.63169  1.0000
  H   H3005     1.0  0.49856  0.29923  0.57275  1.0000
  Fe  Fe258     1.0  0.68984  0.13979  0.66766  1.0000
  S   S507      1.0  0.69935  0.10686  0.68067  1.0000
  S   S508      1.0  0.71484  0.16256  0.65724  1.0000
  Fe  Fe259     1.0  0.64142  0.13465  0.67177  1.0000
  S   S509      1.0  0.64718  0.10129  0.68521  1.0000
  S   S510      1.0  0.60612  0.15194  0.67030  1.0000
  Fe  Fe260     1.0  0.66832  0.11632  0.69566  1.0000
  S   S511      1.0  0.66694  0.10664  0.71930  1.0000
  Fe  Fe261     1.0  0.67774  0.09410  0.66913  1.0000
  S   S512      1.0  0.68907  0.05874  0.66451  1.0000
  S   S513      1.0  0.66032  0.15024  0.68347  1.0000
  S   S514      1.0  0.67047  0.12662  0.65483  1.0000
  P   P124      1.0  0.88905  0.21680  0.76046  1.0000
  S   S515      1.0  0.57572  0.36603  0.58385  1.0000
  H   H3006     1.0  0.95536  0.31076  0.60184  1.0000
  C   C3750     1.0  0.81733  0.29043  0.74591  1.0000
  S   S516      1.0  0.57314  0.30580  0.58027  1.0000
  Fe  Fe262     1.0  0.52256  0.18539  0.61496  1.0000
  Fe  Fe263     1.0  0.98296  0.19627  0.63170  1.0000
  S   S517      1.0  0.55924  0.17323  0.61621  1.0000
  H   H3007     1.0  0.83396  0.34923  0.58934  1.0000
  H   H3008     1.0  0.82203  0.28932  0.62993  1.0000
  H   H3009     1.0  0.58186  0.06002  0.60682  1.0000
  S   S518      1.0  0.68782  0.00632  0.61505  1.0000
  C   C3751     1.0  0.81208  0.46911  0.58953  1.0000
  H   H3010     1.0  0.79273  0.32173  0.62641  1.0000
  C   C3752     1.0  0.51341  0.29093  0.57679  1.0000
  S   S519      1.0  0.50377  0.21903  0.61773  1.0000
  H   H3011     1.0  0.53800  0.99321  0.58471  1.0000
  H   H3012     1.0  0.64933  0.22630  0.65778  1.0000
  C   C3753     1.0  0.68391  0.22640  0.65785  1.0000
  C   C3754     1.0  0.55005  0.29226  0.58154  1.0000
  C   C3755     1.0  0.55138  0.27001  0.58789  1.0000
  C   C3756     1.0  0.53416  0.25810  0.58837  1.0000
  C   C3757     1.0  0.57014  0.43595  0.58216  1.0000
  C   C3758     1.0  0.51372  0.09622  0.57594  1.0000
  H   H3013     1.0  0.69006  0.33073  0.61197  1.0000
  H   H3014     1.0  0.56595  0.26177  0.59229  1.0000
  H   H3015     1.0  0.53579  0.24080  0.59292  1.0000
  C   C3759     1.0  0.50705  0.04344  0.60007  1.0000
  C   C3760     1.0  0.66856  0.12500  0.73046  1.0000
  C   C3761     1.0  0.67161  0.14684  0.72526  1.0000
  C   C3762     1.0  0.67362  0.16060  0.73450  1.0000
  C   C3763     1.0  0.67226  0.15276  0.74901  1.0000
  C   C3764     1.0  0.66865  0.13113  0.75425  1.0000
  C   C3765     1.0  0.66689  0.11729  0.74498  1.0000
  H   H3016     1.0  0.67268  0.15303  0.71411  1.0000
  H   H3017     1.0  0.67632  0.17738  0.73037  1.0000
  S   S520      1.0  0.63763  0.37877  0.57602  1.0000
  H   H3018     1.0  0.66410  0.10053  0.74905  1.0000
  C   C3766     1.0  0.68861  0.04468  0.65053  1.0000
  C   C3767     1.0  0.69320  0.02148  0.65278  1.0000
  C   C3768     1.0  0.69298  0.00947  0.64209  1.0000
  C   C3769     1.0  0.68823  0.02053  0.62897  1.0000
  C   C3770     1.0  0.68406  0.04376  0.62663  1.0000
  C   C3771     1.0  0.68410  0.05579  0.63735  1.0000
  H   H3019     1.0  0.69681  0.01270  0.66291  1.0000
  H   H3020     1.0  0.68068  0.05251  0.61646  1.0000
  H   H3021     1.0  0.68065  0.07361  0.63542  1.0000
  C   C3772     1.0  0.59324  0.15698  0.65523  1.0000
  C   C3773     1.0  0.60521  0.15316  0.64210  1.0000
  C   C3774     1.0  0.59443  0.15797  0.63030  1.0000
  C   C3775     1.0  0.57164  0.16649  0.63152  1.0000
  C   C3776     1.0  0.55958  0.16984  0.64471  1.0000
  C   C3777     1.0  0.57042  0.16528  0.65649  1.0000
  H   H3022     1.0  0.62279  0.14678  0.64100  1.0000
  H   H3023     1.0  0.60384  0.15525  0.62012  1.0000
  H   H3024     1.0  0.54199  0.17617  0.64579  1.0000
  H   H3025     1.0  0.56104  0.16821  0.66663  1.0000
  C   C3778     1.0  0.50022  0.27241  0.62407  1.0000
  H   H3026     1.0  0.81782  0.30767  0.74169  1.0000
  C   C3779     1.0  0.86746  0.32260  0.56939  1.0000
  C   C3780     1.0  0.67799  0.42024  0.59320  1.0000
  C   C3781     1.0  0.65623  0.42893  0.59061  1.0000
  C   C3782     1.0  0.64354  0.41656  0.58556  1.0000
  C   C3783     1.0  0.65240  0.39513  0.58298  1.0000
  C   C3784     1.0  0.67395  0.38625  0.58593  1.0000
  C   C3785     1.0  0.68661  0.39862  0.59102  1.0000
  H   H3027     1.0  0.58728  0.47067  0.59557  1.0000
  C   C3786     1.0  0.80937  0.07198  0.73308  1.0000
  H   H3028     1.0  0.68109  0.36975  0.58401  1.0000
  H   H3029     1.0  0.70329  0.39162  0.59286  1.0000
  C   C3787     1.0  0.87367  0.40898  0.57776  1.0000
  C   C3788     1.0  0.86035  0.41854  0.58899  1.0000
  C   C3789     1.0  0.83807  0.41528  0.59339  1.0000
  C   C3790     1.0  0.82889  0.40267  0.58647  1.0000
  H   H3030     1.0  0.76766  0.05944  0.76700  1.0000
  H   H3031     1.0  0.80220  0.24069  0.62784  1.0000
  H   H3032     1.0  0.86730  0.42847  0.59432  1.0000
  H   H3033     1.0  0.82801  0.42248  0.60214  1.0000
  C   C3791     1.0  0.49372  0.35727  0.59403  1.0000
  C   C3792     1.0  0.76546  0.99195  0.58998  1.0000
  H   H3034     1.0  0.57476  0.41850  0.58588  1.0000
  C   C3793     1.0  0.74222  0.19534  0.68650  1.0000
  C   C3794     1.0  0.75129  0.19739  0.67219  1.0000
  C   C3795     1.0  0.74299  0.18707  0.66327  1.0000
  C   C3796     1.0  0.72569  0.17466  0.66862  1.0000
  C   C3797     1.0  0.71681  0.17252  0.68291  1.0000
  C   C3798     1.0  0.72498  0.18289  0.69180  1.0000
  H   H3035     1.0  0.76456  0.20700  0.66800  1.0000
  H   H3036     1.0  0.74995  0.18878  0.65219  1.0000
  H   H3037     1.0  0.70355  0.16292  0.68716  1.0000
  H   H3038     1.0  0.71777  0.18129  0.70282  1.0000
  C   C3799     1.0  0.78893  0.31838  0.66148  1.0000
  C   C3800     1.0  0.76798  0.32000  0.66998  1.0000
  C   C3801     1.0  0.75254  0.33954  0.66803  1.0000
  C   C3802     1.0  0.75785  0.35730  0.65744  1.0000
  C   C3803     1.0  0.77877  0.35557  0.64897  1.0000
  C   C3804     1.0  0.79432  0.33631  0.65114  1.0000
  H   H3039     1.0  0.76369  0.30628  0.67801  1.0000
  H   H3040     1.0  0.73640  0.34084  0.67463  1.0000
  H   H3041     1.0  0.78307  0.36918  0.64086  1.0000
  H   H3042     1.0  0.81062  0.33529  0.64471  1.0000
  C   C3805     1.0  0.88661  0.19873  0.66439  1.0000
  C   C3806     1.0  0.90091  0.18610  0.65495  1.0000
  C   C3807     1.0  0.92307  0.18959  0.65020  1.0000
  C   C3808     1.0  0.93121  0.20546  0.65510  1.0000
  C   C3809     1.0  0.91699  0.21792  0.66468  1.0000
  C   C3810     1.0  0.89472  0.21473  0.66922  1.0000
  H   H3043     1.0  0.89478  0.17365  0.65121  1.0000
  H   H3044     1.0  0.93392  0.17983  0.64289  1.0000
  H   H3045     1.0  0.92321  0.23018  0.66854  1.0000
  H   H3046     1.0  0.88388  0.22453  0.67648  1.0000
  C   C3811     1.0  0.59828  0.46944  0.60307  1.0000
  H   H3047     1.0  0.57090  0.03906  0.63178  1.0000
  H   H3048     1.0  0.94167  0.11058  0.58293  1.0000
  C   C3812     1.0  0.81657  0.25333  0.74218  1.0000
  C   C3813     1.0  0.81711  0.27566  0.73681  1.0000
  C   C3814     1.0  0.69936  0.32837  0.62054  1.0000
  H   H3049     1.0  0.64393  0.02251  0.58854  1.0000
  H   H3050     1.0  0.59795  0.08141  0.61970  1.0000
  C   C3815     1.0  0.80925  0.99947  0.59483  1.0000
  H   H3051     1.0  0.80569  0.46541  0.61216  1.0000
  S   S521      1.0  0.90141  0.41397  0.57227  1.0000
  C   C3816     1.0  0.82921  0.07693  0.73539  1.0000
  H   H3052     1.0  0.69316  0.29526  0.62831  1.0000
  C   C3817     1.0  0.91531  0.21131  0.73426  1.0000
  C   C3818     1.0  0.91861  0.21103  0.71978  1.0000
  C   C3819     1.0  0.90052  0.21632  0.71259  1.0000
  C   C3820     1.0  0.87915  0.22214  0.71984  1.0000
  C   C3821     1.0  0.87586  0.22256  0.73427  1.0000
  H   H3053     1.0  0.92955  0.20700  0.73960  1.0000
  C   C3822     1.0  0.97396  0.46225  0.57550  1.0000
  C   C3823     1.0  0.61444  0.13528  0.73401  1.0000
  C   C3824     1.0  0.70557  0.24990  0.75715  1.0000
  H   H3054     1.0  0.73359  0.25312  0.70068  1.0000
  H   H3055     1.0  0.61791  0.16022  0.74507  1.0000
  H   H3056     1.0  0.93518  0.20653  0.71413  1.0000
  H   H3057     1.0  0.90306  0.21585  0.70140  1.0000
  H   H3058     1.0  0.86501  0.22618  0.71435  1.0000
  C   C3825     1.0  0.64902  0.20176  0.70544  1.0000
  C   C3826     1.0  0.82455  0.30203  0.62084  1.0000
  H   H3059     1.0  0.61817  0.12197  0.74249  1.0000
  C   C3827     1.0  0.72600  0.31322  0.72775  1.0000
  C   C3828     1.0  0.74700  0.31346  0.71943  1.0000
  C   C3829     1.0  0.76396  0.29568  0.72168  1.0000
  C   C3830     1.0  0.75993  0.27756  0.73213  1.0000
  C   C3831     1.0  0.73878  0.27694  0.74034  1.0000
  C   C3832     1.0  0.72190  0.29507  0.73820  1.0000
  H   H3060     1.0  0.84455  0.03747  0.58481  1.0000
  H   H3061     1.0  0.71219  0.22392  0.74447  1.0000
  C   C3833     1.0  0.75216  0.22934  0.75061  1.0000
  C   C3834     1.0  0.75625  0.22427  0.73695  1.0000
  C   C3835     1.0  0.76970  0.20461  0.73403  1.0000
  C   C3836     1.0  0.77934  0.18995  0.74464  1.0000
  H   H3062     1.0  0.78018  0.14275  0.76582  1.0000
  H   H3063     1.0  0.66651  0.44230  0.65919  1.0000
  C   C3837     1.0  0.53517  0.08971  0.57927  1.0000
  H   H3064     1.0  0.54883  0.98561  0.67437  1.0000
  C   C3838     1.0  0.55879  0.04526  0.59017  1.0000
  C   C3839     1.0  0.73947  0.05869  0.61917  1.0000
  C   C3840     1.0  0.62755  0.46587  0.62214  1.0000
  C   C3841     1.0  0.60245  0.44982  0.61242  1.0000
  C   C3842     1.0  0.91416  0.32949  0.58478  1.0000
  C   C3843     1.0  0.58219  0.02419  0.57291  1.0000
  H   H3065     1.0  0.79912  0.35199  0.60632  1.0000
  C   C3844     1.0  0.75026  0.06533  0.76644  1.0000
  H   H3066     1.0  0.53766  0.22166  0.70976  1.0000
  H   H3067     1.0  0.71299  0.32722  0.72618  1.0000
  H   H3068     1.0  0.75025  0.32752  0.71135  1.0000
  H   H3069     1.0  0.78038  0.29601  0.71542  1.0000
  H   H3070     1.0  0.77346  0.26418  0.73392  1.0000
  H   H3071     1.0  0.70568  0.29538  0.74469  1.0000
  H   H3072     1.0  0.74899  0.23541  0.72856  1.0000
  H   H3073     1.0  0.77264  0.20073  0.72351  1.0000
  H   H3074     1.0  0.78996  0.17488  0.74226  1.0000
  H   H3075     1.0  0.69666  0.99167  0.64398  1.0000
  H   H3076     1.0  0.71255  0.00094  0.58305  1.0000
  H   H3077     1.0  0.54196  0.13314  0.61702  1.0000
  C   C3845     1.0  0.56850  0.04362  0.57617  1.0000
  C   C3846     1.0  0.82727  0.47388  0.57714  1.0000
  H   H3078     1.0  0.49423  0.29728  0.60633  1.0000
  H   H3079     1.0  0.61960  0.44300  0.65975  1.0000
  H   H3080     1.0  0.92139  0.31548  0.57958  1.0000
  H   H3081     1.0  0.76305  0.00681  0.63146  1.0000
  S   S522      1.0  0.67437  0.17094  0.76014  1.0000
  C   C3847     1.0  0.89637  0.36594  0.59804  1.0000
  C   C3848     1.0  0.66841  0.43032  0.65230  1.0000
  C   C3849     1.0  0.90068  0.25195  0.58144  1.0000
  H   H3082     1.0  0.77383  0.07745  0.73817  1.0000
  H   H3083     1.0  0.84501  0.06960  0.73001  1.0000
  H   H3084     1.0  0.62073  0.32792  0.61171  1.0000
  S   S523      1.0  0.51478  0.18736  0.59330  1.0000
  C   C3850     1.0  0.88880  0.28751  0.58921  1.0000
  C   C3851     1.0  0.57264  0.07566  0.60926  1.0000
  H   H3085     1.0  0.64192  0.99388  0.68930  1.0000
  H   H3086     1.0  0.61922  0.43299  0.62948  1.0000
  C   C3852     1.0  0.64189  0.99230  0.67852  1.0000
  H   H3087     1.0  0.76842  0.23237  0.62132  1.0000
  C   C3853     1.0  0.74575  0.25225  0.63523  1.0000
  C   C3854     1.0  0.57512  0.00281  0.66226  1.0000
  H   H3088     1.0  0.73465  0.31987  0.65012  1.0000
  H   H3089     1.0  0.56620  0.19733  0.72230  1.0000
  C   C3855     1.0  0.95901  0.27911  0.57057  1.0000
  C   C3856     1.0  0.55371  0.99731  0.66509  1.0000
  H   H3090     1.0  0.90378  0.29161  0.60640  1.0000
  C   C3857     1.0  0.49102  0.26111  0.63698  1.0000
  C   C3858     1.0  0.58980  0.22030  0.71641  1.0000
  C   C3859     1.0  0.71022  0.34521  0.62195  1.0000
  C   C3860     1.0  0.54482  0.02196  0.64400  1.0000
  C   C3861     1.0  0.83150  0.33582  0.59803  1.0000
  C   C3862     1.0  0.81762  0.46893  0.60266  1.0000
  C   C3863     1.0  0.87592  0.26252  0.75448  1.0000
  C   C3864     1.0  0.95301  0.29928  0.61158  1.0000
  C   C3865     1.0  0.78903  0.08138  0.74010  1.0000
  H   H3091     1.0  0.52931  0.32006  0.57153  1.0000
  C   C3866     1.0  0.54407  0.46980  0.58333  1.0000
  C   C3867     1.0  0.58296  0.21405  0.75037  1.0000
  C   C3868     1.0  0.60446  0.20562  0.74415  1.0000
  H   H3092     1.0  0.76163  0.28169  0.65625  1.0000
  C   C3869     1.0  0.81166  0.33743  0.60763  1.0000
  C   C3870     1.0  0.91501  0.24555  0.59135  1.0000
  C   C3871     1.0  0.56949  0.21338  0.71665  1.0000
  C   C3872     1.0  0.55258  0.10027  0.57112  1.0000
  C   C3873     1.0  0.66207  0.23642  0.65683  1.0000
  C   C3874     1.0  0.53075  0.30284  0.57624  1.0000
  C   C3875     1.0  0.72272  0.34208  0.63273  1.0000
  C   C3876     1.0  0.60209  0.22053  0.57772  1.0000
  C   C3877     1.0  0.89120  0.33357  0.58964  1.0000
  H   H3093     1.0  0.92548  0.22954  0.59201  1.0000
  C   C3878     1.0  0.55324  0.22716  0.70960  1.0000
  H   H3094     1.0  0.86475  0.35633  0.59959  1.0000
  H   H3095     1.0  0.68729  0.08570  0.76686  1.0000
  H   H3096     1.0  0.60459  0.14361  0.70044  1.0000
  C   C3879     1.0  0.55022  0.44741  0.58829  1.0000
  C   C3880     1.0  0.51523  0.26839  0.58260  1.0000
  H   H3097     1.0  0.66866  0.29017  0.65222  1.0000
  H   H3098     1.0  0.63964  0.26715  0.65428  1.0000
  H   H3099     1.0  0.85675  0.28572  0.61284  1.0000
  C   C3881     1.0  0.57598  0.00747  0.59742  1.0000
  C   C3882     1.0  0.56248  0.02693  0.60074  1.0000
  C   C3883     1.0  0.84432  0.30020  0.61116  1.0000
  H   H3100     1.0  0.76539  0.28107  0.75938  1.0000
  S   S524      1.0  0.97877  0.00143  0.57247  1.0000
  H   H3101     1.0  0.76641  0.12229  0.72796  1.0000
  C   C3884     1.0  0.88238  0.35208  0.59618  1.0000
  C   C3885     1.0  0.58194  0.08777  0.61651  1.0000
  C   C3886     1.0  0.72429  0.32219  0.64213  1.0000
  H   H3102     1.0  0.57883  0.99333  0.60558  1.0000
  Fe  Fe264     1.0  0.49414  0.22015  0.59684  1.0000
  C   C3887     1.0  0.61096  0.13044  0.72142  1.0000
  C   C3888     1.0  0.91911  0.36195  0.59291  1.0000
  H   H3103     1.0  0.80577  0.03439  0.59552  1.0000
  C   C3889     1.0  0.71297  0.30536  0.64103  1.0000
  H   H3104     1.0  0.64229  0.19059  0.70093  1.0000
  C   C3890     1.0  0.90277  0.28069  0.59939  1.0000
  C   C3891     1.0  0.55200  0.08413  0.60492  1.0000
  H   H3105     1.0  0.69871  0.31574  0.66865  1.0000
  C   C3892     1.0  0.71987  0.09515  0.76237  1.0000
  C   C3893     1.0  0.60678  0.16929  0.71160  1.0000
  H   H3106     1.0  0.79835  0.26579  0.64511  1.0000
  C   C3894     1.0  0.82869  0.09126  0.74472  1.0000
  H   H3107     1.0  0.59575  0.45776  0.68011  1.0000
  C   C3895     1.0  0.74267  0.08787  0.76229  1.0000
  H   H3108     1.0  0.61604  0.02001  0.67549  1.0000
  H   H3109     1.0  0.93264  0.22657  0.76210  1.0000
  H   H3110     1.0  0.58654  0.99519  0.66945  1.0000
  C   C3896     1.0  0.89382  0.21696  0.74165  1.0000
  C   C3897     1.0  0.91611  0.25996  0.60027  1.0000
  C   C3898     1.0  0.92798  0.34375  0.58623  1.0000
  C   C3899     1.0  0.62474  0.00727  0.60736  1.0000
  Fe  Fe265     1.0  0.57523  0.34149  0.57008  1.0000
  C   C3900     1.0  0.60806  0.24083  0.57798  1.0000
  H   H3111     1.0  0.67485  0.24154  0.72082  1.0000
  C   C3901     1.0  0.75622  0.13529  0.73319  1.0000
  C   C3902     1.0  0.61051  0.17433  0.72418  1.0000
  H   H3112     1.0  0.60398  0.18215  0.70270  1.0000
  C   C3903     1.0  0.84224  0.39299  0.57531  1.0000
  H   H3113     1.0  0.50094  0.24737  0.64255  1.0000
  C   C3904     1.0  0.62770  0.00567  0.65652  1.0000
  H   H3114     1.0  0.53927  0.43876  0.59663  1.0000
  P   P125      1.0  0.60909  0.02529  0.64635  1.0000
  C   C3905     1.0  0.60854  0.05231  0.65045  1.0000
  C   C3906     1.0  0.61921  0.02527  0.62781  1.0000
  C   C3907     1.0  0.63123  0.04158  0.61973  1.0000
  C   C3908     1.0  0.63969  0.04083  0.60553  1.0000
  C   C3909     1.0  0.63658  0.02360  0.59937  1.0000
  C   C3910     1.0  0.61584  0.00821  0.62147  1.0000
  C   C3911     1.0  0.58901  0.06793  0.65112  1.0000
  C   C3912     1.0  0.58907  0.08867  0.65443  1.0000
  C   C3913     1.0  0.60851  0.09387  0.65716  1.0000
  C   C3914     1.0  0.62798  0.07848  0.65643  1.0000
  C   C3915     1.0  0.62799  0.05782  0.65310  1.0000
  C   C3916     1.0  0.58153  0.01794  0.65024  1.0000
  C   C3917     1.0  0.96308  0.08815  0.57020  1.0000
  C   C3918     1.0  0.76599  0.02144  0.60936  1.0000
  H   H3115     1.0  0.78257  0.18360  0.76658  1.0000
  C   C3919     1.0  0.70092  0.30840  0.62994  1.0000
  H   H3116     1.0  0.63471  0.05454  0.62440  1.0000
  H   H3117     1.0  0.64954  0.05305  0.59946  1.0000
  H   H3118     1.0  0.73149  0.35498  0.63371  1.0000
  H   H3119     1.0  0.76823  0.42221  0.56958  1.0000
  H   H3120     1.0  0.57372  0.06429  0.64914  1.0000
  H   H3121     1.0  0.57402  0.10075  0.65496  1.0000
  H   H3122     1.0  0.60848  0.10977  0.65994  1.0000
  H   H3123     1.0  0.64310  0.08245  0.65856  1.0000
  H   H3124     1.0  0.64320  0.04605  0.65267  1.0000
  C   C3920     1.0  0.50146  0.07092  0.61517  1.0000
  H   H3125     1.0  0.64914  0.44548  0.59243  1.0000
  C   C3921     1.0  0.67585  0.39959  0.63410  1.0000
  C   C3922     1.0  0.68419  0.39397  0.64674  1.0000
  C   C3923     1.0  0.68056  0.40936  0.65580  1.0000
  C   C3924     1.0  0.73029  0.99517  0.58185  1.0000
  C   C3925     1.0  0.65961  0.43595  0.63972  1.0000
  C   C3926     1.0  0.66382  0.42053  0.63057  1.0000
  H   H3126     1.0  0.56911  0.09605  0.57383  1.0000
  H   H3127     1.0  0.57806  0.11794  0.62490  1.0000
  H   H3128     1.0  0.96717  0.24762  0.58367  1.0000
  C   C3927     1.0  0.72933  0.16929  0.74610  1.0000
  C   C3928     1.0  0.69981  0.23380  0.75098  1.0000
  C   C3929     1.0  0.64684  0.22469  0.72297  1.0000
  H   H3129     1.0  0.71884  0.18238  0.75115  1.0000
  C   C3930     1.0  0.54120  0.10509  0.60764  1.0000
  H   H3130     1.0  0.51660  0.03550  0.59146  1.0000
  C   C3931     1.0  0.76165  0.21439  0.76125  1.0000
  H   H3131     1.0  0.52570  0.11248  0.60390  1.0000
  H   H3132     1.0  0.60712  0.99511  0.62756  1.0000
  C   C3932     1.0  0.61795  0.46037  0.66024  1.0000
  C   C3933     1.0  0.55045  0.11698  0.61499  1.0000
  H   H3133     1.0  0.55473  0.02764  0.61154  1.0000
  H   H3134     1.0  0.67931  0.38804  0.62679  1.0000
  H   H3135     1.0  0.69413  0.37799  0.64929  1.0000
  H   H3136     1.0  0.68799  0.40527  0.66527  1.0000
  C   C3934     1.0  0.93164  0.20974  0.76727  1.0000
  H   H3137     1.0  0.65840  0.42483  0.62048  1.0000
  C   C3935     1.0  0.84794  0.31711  0.59964  1.0000
  H   H3138     1.0  0.73945  0.03940  0.63986  1.0000
  H   H3139     1.0  0.68807  0.20855  0.65963  1.0000
  H   H3140     1.0  0.76506  0.04092  0.58864  1.0000
  H   H3141     1.0  0.53301  0.02951  0.63700  1.0000
  S   S525      1.0  0.95899  0.21022  0.64964  1.0000
  C   C3936     1.0  0.81676  0.01988  0.59256  1.0000
  H   H3142     1.0  0.73396  0.24917  0.67619  1.0000
  H   H3143     1.0  0.54432  0.25874  0.69701  1.0000
  C   C3937     1.0  0.96984  0.28158  0.61440  1.0000
  C   C3938     1.0  0.74245  0.99939  0.59126  1.0000
  H   H3144     1.0  0.74186  0.07366  0.59738  1.0000
  C   C3939     1.0  0.76682  0.24301  0.62904  1.0000
  H   H3145     1.0  0.94553  0.34085  0.58192  1.0000
  C   C3940     1.0  0.66757  0.23050  0.71651  1.0000
  H   H3146     1.0  0.97988  0.25274  0.62910  1.0000
  H   H3147     1.0  0.87072  0.00460  0.57806  1.0000
  C   C3941     1.0  0.78584  0.24773  0.63266  1.0000
  C   C3942     1.0  0.70042  0.23935  0.65665  1.0000
  H   H3148     1.0  0.50632  0.08454  0.61842  1.0000
  H   H3149     1.0  0.61195  0.11345  0.72019  1.0000
  H   H3150     1.0  0.69507  0.22646  0.69950  1.0000
  C   C3943     1.0  0.56626  0.02737  0.64109  1.0000
  H   H3151     1.0  0.73121  0.24901  0.63196  1.0000
  C   C3944     1.0  0.74227  0.11047  0.65001  1.0000
  C   C3945     1.0  0.73638  0.08960  0.65145  1.0000
  C   C3946     1.0  0.74413  0.07252  0.66161  1.0000
  C   C3947     1.0  0.75772  0.07629  0.67037  1.0000
  C   C3948     1.0  0.76393  0.09715  0.66889  1.0000
  C   C3949     1.0  0.75575  0.11435  0.65881  1.0000
  P   P126      1.0  0.77913  0.10227  0.68147  1.0000
  C   C3950     1.0  0.75964  0.10122  0.69769  1.0000
  C   C3951     1.0  0.80377  0.08211  0.68314  1.0000
  C   C3952     1.0  0.81574  0.08171  0.69390  1.0000
  C   C3953     1.0  0.83548  0.06689  0.69499  1.0000
  C   C3954     1.0  0.84340  0.05243  0.68531  1.0000
  C   C3955     1.0  0.83172  0.05295  0.67445  1.0000
  C   C3956     1.0  0.81206  0.06786  0.67327  1.0000
  C   C3957     1.0  0.74241  0.11895  0.69948  1.0000
  C   C3958     1.0  0.72625  0.11797  0.71155  1.0000
  C   C3959     1.0  0.72677  0.09902  0.72177  1.0000
  C   C3960     1.0  0.74356  0.08101  0.71992  1.0000
  C   C3961     1.0  0.76003  0.08209  0.70792  1.0000
  C   C3962     1.0  0.78917  0.12841  0.67645  1.0000
  C   C3963     1.0  0.80071  0.13415  0.66281  1.0000
  C   C3964     1.0  0.80983  0.15368  0.65909  1.0000
  C   C3965     1.0  0.80769  0.16750  0.66899  1.0000
  C   C3966     1.0  0.79646  0.16178  0.68262  1.0000
  C   C3967     1.0  0.78746  0.14222  0.68640  1.0000
  H   H3152     1.0  0.73554  0.12397  0.64251  1.0000
  H   H3153     1.0  0.72501  0.08689  0.64515  1.0000
  H   H3154     1.0  0.73873  0.05662  0.66311  1.0000
  H   H3155     1.0  0.76280  0.06310  0.67858  1.0000
  H   H3156     1.0  0.75893  0.13098  0.65806  1.0000
  H   H3157     1.0  0.81000  0.09314  0.70130  1.0000
  H   H3158     1.0  0.84485  0.06683  0.70318  1.0000
  H   H3159     1.0  0.85878  0.04105  0.68609  1.0000
  H   H3160     1.0  0.83808  0.04198  0.66681  1.0000
  H   H3161     1.0  0.80368  0.06843  0.66453  1.0000
  H   H3162     1.0  0.74128  0.13337  0.69139  1.0000
  H   H3163     1.0  0.71301  0.13174  0.71280  1.0000
  H   H3164     1.0  0.71375  0.09811  0.73091  1.0000
  H   H3165     1.0  0.74344  0.06607  0.72764  1.0000
  H   H3166     1.0  0.77255  0.06778  0.70646  1.0000
  H   H3167     1.0  0.80287  0.12340  0.65510  1.0000
  H   H3168     1.0  0.81885  0.15802  0.64859  1.0000
  H   H3169     1.0  0.81500  0.18250  0.66617  1.0000
  H   H3170     1.0  0.79484  0.17252  0.69028  1.0000
  H   H3171     1.0  0.77954  0.13784  0.69713  1.0000
  H   H3172     1.0  0.73296  0.14801  0.76559  1.0000
  C   C3968     1.0  0.63755  0.20994  0.71762  1.0000
  P   P127      1.0  0.54015  0.06973  0.59471  1.0000
  C   C3969     1.0  0.96696  0.26658  0.62689  1.0000
  C   C3970     1.0  0.94724  0.26911  0.63649  1.0000
  C   C3971     1.0  0.93014  0.28672  0.63372  1.0000
  C   C3972     1.0  0.93320  0.30193  0.62120  1.0000
  P   P128      1.0  0.90380  0.28804  0.64551  1.0000
  C   C3973     1.0  0.88817  0.26848  0.64229  1.0000
  C   C3974     1.0  0.90816  0.28134  0.66363  1.0000
  C   C3975     1.0  0.89161  0.27326  0.67426  1.0000
  C   C3976     1.0  0.89483  0.26826  0.68828  1.0000
  C   C3977     1.0  0.91458  0.27127  0.69183  1.0000
  C   C3978     1.0  0.93102  0.27961  0.68137  1.0000
  C   C3979     1.0  0.92778  0.28482  0.66734  1.0000
  C   C3980     1.0  0.86506  0.27094  0.64666  1.0000
  C   C3981     1.0  0.85306  0.25521  0.64496  1.0000
  C   C3982     1.0  0.86386  0.23719  0.63855  1.0000
  C   C3983     1.0  0.88675  0.23485  0.63388  1.0000
  C   C3984     1.0  0.89893  0.25020  0.63594  1.0000
  C   C3985     1.0  0.88785  0.31542  0.64290  1.0000
  C   C3986     1.0  0.87389  0.32123  0.63270  1.0000
  C   C3987     1.0  0.86007  0.34168  0.63144  1.0000
  C   C3988     1.0  0.86066  0.35681  0.64000  1.0000
  C   C3989     1.0  0.87503  0.35145  0.64988  1.0000
  C   C3990     1.0  0.88855  0.33081  0.65137  1.0000
  H   H3173     1.0  0.60864  0.24734  0.70924  1.0000
  H   H3174     1.0  0.72867  0.07279  0.62293  1.0000
  C   C3991     1.0  0.62731  0.00712  0.67065  1.0000
  H   H3175     1.0  0.94513  0.25695  0.64596  1.0000
  H   H3176     1.0  0.92030  0.31563  0.61873  1.0000
  H   H3177     1.0  0.87617  0.27080  0.67181  1.0000
  H   H3178     1.0  0.88192  0.26207  0.69639  1.0000
  H   H3179     1.0  0.91708  0.26726  0.70270  1.0000
  H   H3180     1.0  0.94632  0.28206  0.68412  1.0000
  H   H3181     1.0  0.94060  0.29155  0.65943  1.0000
  H   H3182     1.0  0.85635  0.28465  0.65182  1.0000
  H   H3183     1.0  0.83548  0.25671  0.64902  1.0000
  H   H3184     1.0  0.85467  0.22458  0.63772  1.0000
  H   H3185     1.0  0.89530  0.22049  0.62934  1.0000
  H   H3186     1.0  0.91677  0.24715  0.63300  1.0000
  H   H3187     1.0  0.87338  0.30976  0.62594  1.0000
  H   H3188     1.0  0.84864  0.34573  0.62396  1.0000
  H   H3189     1.0  0.84985  0.37263  0.63905  1.0000
  H   H3190     1.0  0.87541  0.36319  0.65655  1.0000
  H   H3191     1.0  0.89926  0.32686  0.65925  1.0000
  C   C3992     1.0  0.88767  0.27289  0.58032  1.0000
  C   C3993     1.0  0.58368  0.44674  0.57085  1.0000
  C   C3994     1.0  0.67893  0.22208  0.70448  1.0000
  C   C3995     1.0  0.51451  0.06066  0.60415  1.0000
  C   C3996     1.0  0.55700  0.24804  0.70241  1.0000
  C   C3997     1.0  0.59911  0.20531  0.59013  1.0000
  P   P129      1.0  0.73415  0.25435  0.75461  1.0000
  C   C3998     1.0  0.64263  0.98888  0.65052  1.0000
  C   C3999     1.0  0.61058  0.24614  0.59068  1.0000
  C   C4000     1.0  0.60668  0.23127  0.60330  1.0000
  C   C4001     1.0  0.60175  0.21052  0.60281  1.0000
  P   P130      1.0  0.60847  0.23808  0.62003  1.0000
  C   C4002     1.0  0.63148  0.21903  0.62636  1.0000
  C   C4003     1.0  0.61229  0.26650  0.61804  1.0000
  C   C4004     1.0  0.63059  0.27220  0.62214  1.0000
  C   C4005     1.0  0.63355  0.29430  0.61994  1.0000
  C   C4006     1.0  0.61820  0.31084  0.61378  1.0000
  C   C4007     1.0  0.59962  0.30533  0.61010  1.0000
  C   C4008     1.0  0.59653  0.28330  0.61236  1.0000
  C   C4009     1.0  0.62793  0.20279  0.63831  1.0000
  C   C4010     1.0  0.64589  0.18812  0.64305  1.0000
  C   C4011     1.0  0.66745  0.18927  0.63580  1.0000
  C   C4012     1.0  0.67107  0.20499  0.62371  1.0000
  C   C4013     1.0  0.65313  0.21968  0.61891  1.0000
  C   C4014     1.0  0.58329  0.23551  0.63264  1.0000
  C   C4015     1.0  0.56504  0.22854  0.62935  1.0000
  C   C4016     1.0  0.54660  0.22495  0.63972  1.0000
  C   C4017     1.0  0.54592  0.22878  0.65332  1.0000
  C   C4018     1.0  0.56367  0.23645  0.65656  1.0000
  C   C4019     1.0  0.58226  0.23988  0.64625  1.0000
  H   H3192     1.0  0.59424  0.18961  0.59003  1.0000
  H   H3193     1.0  0.50773  0.36242  0.59686  1.0000
  H   H3194     1.0  0.63777  0.19219  0.74790  1.0000
  H   H3195     1.0  0.61498  0.26209  0.59053  1.0000
  H   H3196     1.0  0.59917  0.19863  0.61235  1.0000
  H   H3197     1.0  0.64268  0.25973  0.62691  1.0000
  H   H3198     1.0  0.64791  0.29864  0.62281  1.0000
  H   H3199     1.0  0.80973  0.06075  0.72593  1.0000
  C   C4020     1.0  0.95220  0.43727  0.57071  1.0000
  H   H3200     1.0  0.58216  0.27935  0.60923  1.0000
  H   H3201     1.0  0.61136  0.20097  0.64389  1.0000
  H   H3202     1.0  0.64298  0.17560  0.65226  1.0000
  H   H3203     1.0  0.68131  0.17774  0.63944  1.0000
  H   H3204     1.0  0.68778  0.20559  0.61798  1.0000
  H   H3205     1.0  0.65610  0.23153  0.60937  1.0000
  H   H3206     1.0  0.56490  0.22546  0.61893  1.0000
  H   H3207     1.0  0.53307  0.21859  0.63726  1.0000
  H   H3208     1.0  0.53170  0.22561  0.66135  1.0000
  H   H3209     1.0  0.56318  0.23933  0.66712  1.0000
  H   H3210     1.0  0.59611  0.24540  0.64896  1.0000
  C   C4021     1.0  0.67319  0.27241  0.65350  1.0000
  C   C4022     1.0  0.59333  0.24143  0.70934  1.0000
  H   H3211     1.0  0.57983  0.27147  0.69686  1.0000
  C   C4023     1.0  0.74791  0.15495  0.72502  1.0000
  H   H3212     1.0  0.71669  0.28813  0.70911  1.0000
  C   C4024     1.0  0.73443  0.17190  0.73147  1.0000
  P   P131      1.0  0.76183  0.10740  0.75872  1.0000
  C   C4025     1.0  0.65667  0.25941  0.65479  1.0000
  P   P132      1.0  0.78073  0.99677  0.60270  1.0000
  C   C4026     1.0  0.61438  0.15709  0.73538  1.0000
  C   C4027     1.0  0.75127  0.13263  0.74794  1.0000
  H   H3213     1.0  0.92766  0.25520  0.60768  1.0000
  H   H3214     1.0  0.70930  0.36056  0.61456  1.0000
  H   H3215     1.0  0.69938  0.31952  0.69300  1.0000
  H   H3216     1.0  0.88943  0.38040  0.60288  1.0000
  H   H3217     1.0  0.63815  0.23175  0.73212  1.0000
  H   H3218     1.0  0.56959  0.21914  0.74430  1.0000
  H   H3219     1.0  0.75183  0.15718  0.71365  1.0000
  C   C4028     1.0  0.57080  0.10837  0.61943  1.0000
  C   C4029     1.0  0.74684  0.05913  0.60477  1.0000
  C   C4030     1.0  0.80811  0.32045  0.61897  1.0000
  H   H3220     1.0  0.92971  0.37335  0.59375  1.0000
  C   C4031     1.0  0.85361  0.00322  0.58271  1.0000
  S   S526      1.0  0.49402  0.25326  0.58223  1.0000
  C   C4032     1.0  0.77527  0.19484  0.75826  1.0000
  Fe  Fe266     1.0  0.60515  0.37661  0.56829  1.0000
  C   C4033     1.0  0.62923  0.47444  0.64944  1.0000
  H   H3221     1.0  0.93832  0.98260  0.57839  1.0000
  H   H3222     1.0  0.64379  0.98762  0.63960  1.0000
  S   S527      1.0  0.52278  0.41037  0.57856  1.0000
  H   H3223     1.0  0.97345  0.42896  0.58645  1.0000
  C   C4034     1.0  0.66951  0.20793  0.69887  1.0000
  H   H3224     1.0  0.58779  0.31807  0.60516  1.0000
  H   H3225     1.0  0.83527  0.38323  0.56987  1.0000
  C   C4035     1.0  0.66145  0.24195  0.76208  1.0000
  P   P133      1.0  0.64631  0.46383  0.63444  1.0000
  C   C4036     1.0  0.60704  0.14744  0.71025  1.0000
  C   C4037     1.0  0.78833  0.09560  0.74963  1.0000
  H   H3226     1.0  0.87055  0.25992  0.74522  1.0000
  H   H3227     1.0  0.79582  0.46571  0.58918  1.0000
  H   H3228     1.0  0.84408  0.09512  0.74649  1.0000
  P   P134      1.0  0.61056  0.20261  0.72578  1.0000
  P   P135      1.0  0.87353  0.31529  0.58713  1.0000
  C   C4038     1.0  0.62123  0.19897  0.75247  1.0000
  H   H3229     1.0  0.95836  0.07347  0.57717  1.0000
  H   H3230     1.0  0.67816  0.20160  0.68945  1.0000
  C   C4039     1.0  0.58601  0.00616  0.58353  1.0000
  H   H3231     1.0  0.72800  0.18711  0.72516  1.0000
  H   H3232     1.0  0.71712  0.23122  0.65784  1.0000
  C   C4040     1.0  0.57701  0.25519  0.70231  1.0000
  H   H3233     1.0  0.85922  0.22709  0.73973  1.0000
  H   H3234     1.0  0.49986  0.08895  0.58233  1.0000
  C   C4041     1.0  0.78374  0.26178  0.64240  1.0000
  C   C4042     1.0  0.76276  0.27069  0.64881  1.0000
  C   C4043     1.0  0.74359  0.26565  0.64547  1.0000
  P   P136      1.0  0.71666  0.27916  0.65263  1.0000
  C   C4044     1.0  0.69533  0.26248  0.65402  1.0000
  C   C4045     1.0  0.71677  0.28234  0.67046  1.0000
  C   C4046     1.0  0.70664  0.30201  0.67543  1.0000
  C   C4047     1.0  0.70676  0.30415  0.68931  1.0000
  C   C4048     1.0  0.71652  0.28654  0.69838  1.0000
  C   C4049     1.0  0.72611  0.26677  0.69361  1.0000
  C   C4050     1.0  0.72631  0.26463  0.67970  1.0000
  H   H3235     1.0  0.51739  0.26737  0.61954  1.0000
  C   C4051     1.0  0.95369  0.10904  0.57342  1.0000
  C   C4052     1.0  0.60434  0.46870  0.67176  1.0000
  C   C4053     1.0  0.75891  0.02132  0.62386  1.0000
  C   C4054     1.0  0.83846  0.47325  0.60357  1.0000
  S   S528      1.0  0.97500  0.19899  0.61001  1.0000
  H   H3236     1.0  0.49529  0.00473  0.57429  1.0000
  C   C4055     1.0  0.86455  0.39602  0.57103  1.0000
  C   C4056     1.0  0.76004  0.04060  0.59986  1.0000
  C   C4057     1.0  0.74559  0.03985  0.62871  1.0000
  C   C4058     1.0  0.67786  0.22987  0.75346  1.0000
  C   C4059     1.0  0.85634  0.19046  0.76279  1.0000
  C   C4060     1.0  0.48822  0.04001  0.57080  1.0000
  H   H3237     1.0  0.86470  0.29755  0.75037  1.0000
  C   C4061     1.0  0.83884  0.02171  0.58651  1.0000
  C   C4062     1.0  0.73748  0.14970  0.75429  1.0000
  H   H3238     1.0  0.73363  0.00810  0.59971  1.0000
  C   C4063     1.0  0.61667  0.44816  0.62211  1.0000
  H   H3239     1.0  0.71351  0.11250  0.75958  1.0000
  C   C4064     1.0  0.96703  0.44165  0.57840  1.0000
  C   C4065     1.0  0.81723  0.28300  0.76038  1.0000
  H   H3240     1.0  0.49739  0.37705  0.57345  1.0000
  C   C4066     1.0  0.81615  0.24599  0.75665  1.0000
  C   C4067     1.0  0.88528  0.24478  0.76378  1.0000
  C   C4068     1.0  0.87262  0.28401  0.75733  1.0000
  Fe  Fe267     1.0  0.55440  0.38950  0.56957  1.0000
  H   H3241     1.0  0.67371  0.21699  0.74899  1.0000
  H   H3242     1.0  0.86483  0.18580  0.75284  1.0000
  H   H3243     1.0  0.59468  0.43586  0.61213  1.0000
  H   H3244     1.0  0.98509  0.27939  0.60689  1.0000
  H   H3245     1.0  0.61019  0.25277  0.56840  1.0000
  H   H3246     1.0  0.80847  0.11149  0.75904  1.0000
  H   H3247     1.0  0.62701  0.42372  0.58351  1.0000
  C   C4069     1.0  0.51474  0.43613  0.56831  1.0000
  H   H3248     1.0  0.81552  0.22880  0.76092  1.0000
  C   C4070     1.0  0.48791  0.36552  0.58077  1.0000
  H   H3249     1.0  0.59670  0.99110  0.58105  1.0000
  C   C4071     1.0  0.97279  0.26293  0.57846  1.0000
  H   H3250     1.0  0.94681  0.42130  0.57295  1.0000
  H   H3251     1.0  0.83336  0.31644  0.57495  1.0000
  C   C4072     1.0  0.49645  0.45082  0.57369  1.0000
  S   S529      1.0  0.49346  0.16859  0.62564  1.0000
  H   H3252     1.0  0.84274  0.47285  0.61379  1.0000
  H   H3253     1.0  0.64459  0.23841  0.76431  1.0000
  H   H3254     1.0  0.83100  0.17047  0.76456  1.0000
  C   C4073     1.0  0.50149  0.01978  0.56899  1.0000
  H   H3255     1.0  0.73414  0.45010  0.56851  1.0000
  H   H3256     1.0  0.66716  0.12512  0.76544  1.0000
  C   C4074     1.0  0.70492  0.08004  0.76650  1.0000
  C   C4075     1.0  0.68883  0.26233  0.76554  1.0000
  H   H3257     1.0  0.94286  0.27606  0.56965  1.0000
  C   C4076     1.0  0.77598  0.98011  0.57910  1.0000
  C   C4077     1.0  0.53856  0.00691  0.65599  1.0000
  C   C4078     1.0  0.81653  0.26068  0.76570  1.0000
  C   C4079     1.0  0.57848  0.21589  0.76466  1.0000
  H   H3258     1.0  0.59959  0.21665  0.56794  1.0000
  H   H3259     1.0  0.90000  0.24084  0.57444  1.0000
  H   H3260     1.0  0.98592  0.46547  0.58123  1.0000
  H   H3261     1.0  0.52195  0.00270  0.65824  1.0000
  H   H3262     1.0  0.87706  0.27771  0.57238  1.0000
  C   C4080     1.0  0.61674  0.20081  0.76673  1.0000
  C   C4081     1.0  0.48691  0.03662  0.60684  1.0000
  C   C4082     1.0  0.48702  0.28956  0.61663  1.0000
  C   C4083     1.0  0.84634  0.98286  0.58501  1.0000
  H   H3263     1.0  0.48709  0.44607  0.58400  1.0000
  C   C4084     1.0  0.82435  0.98098  0.59107  1.0000
  C   C4085     1.0  0.53554  0.97688  0.58392  1.0000
  H   H3264     1.0  0.56541  0.05711  0.56771  1.0000
  C   C4086     1.0  0.92396  0.09026  0.94253  1.0000
  H   H3265     1.0  0.55821  0.42392  0.83882  1.0000
  Fe  Fe268     1.0  0.85230  0.26350  0.81469  1.0000
  S   S530      1.0  0.84856  0.29895  0.80410  1.0000
  S   S531      1.0  0.88527  0.24053  0.81533  1.0000
  Fe  Fe269     1.0  0.80194  0.26408  0.82159  1.0000
  S   S532      1.0  0.79433  0.29984  0.81206  1.0000
  S   S533      1.0  0.77460  0.24398  0.83229  1.0000
  Fe  Fe270     1.0  0.82178  0.29041  0.79446  1.0000
  Fe  Fe271     1.0  0.82158  0.30543  0.82251  1.0000
  S   S534      1.0  0.82276  0.32942  0.83712  1.0000
  S   S535      1.0  0.82781  0.25454  0.80357  1.0000
  S   S536      1.0  0.82691  0.27015  0.83352  1.0000
  Fe  Fe272     1.0  0.52068  0.99822  0.92643  1.0000
  S   S537      1.0  0.51425  0.02931  0.93588  1.0000
  Fe  Fe273     1.0  0.55956  0.01339  0.90453  1.0000
  S   S538      1.0  0.55621  0.04564  0.91197  1.0000
  S   S539      1.0  0.58262  0.00534  0.88478  1.0000
  Fe  Fe274     1.0  0.55146  0.02546  0.93376  1.0000
  Fe  Fe275     1.0  0.51950  0.04686  0.91343  1.0000
  H   H3266     1.0  0.54562  0.41949  0.95977  1.0000
  H   H3267     1.0  0.92899  0.14942  0.78587  1.0000
  S   S540      1.0  0.52327  0.01600  0.90435  1.0000
  Fe  Fe276     1.0  0.68079  0.13790  0.81258  1.0000
  S   S541      1.0  0.65151  0.15525  0.80220  1.0000
  S   S542      1.0  0.67867  0.10796  0.82950  1.0000
  Fe  Fe277     1.0  0.70821  0.17489  0.80082  1.0000
  H   H3268     1.0  0.49676  0.19746  0.91425  1.0000
  C   C4087     1.0  0.57201  0.11934  0.79009  1.0000
  Fe  Fe278     1.0  0.65746  0.18499  0.80950  1.0000
  S   S543      1.0  0.63054  0.20874  0.82030  1.0000
  C   C4088     1.0  0.96946  0.29263  0.88845  1.0000
  S   S544      1.0  0.68519  0.16721  0.82108  1.0000
  S   S545      1.0  0.70615  0.14394  0.79309  1.0000
  C   C4089     1.0  0.48673  0.47440  0.92721  1.0000
  S   S546      1.0  0.51151  0.22488  0.86116  1.0000
  S   S547      1.0  0.55760  0.99289  0.92604  1.0000
  S   S548      1.0  0.52820  0.20504  0.82346  1.0000
  H   H3269     1.0  0.98226  0.40399  0.89413  1.0000
  S   S549      1.0  0.72956  0.01278  0.82109  1.0000
  S   S550      1.0  0.73539  0.99427  0.86130  1.0000
  Fe  Fe279     1.0  0.87326  0.01403  0.90999  1.0000
  S   S551      1.0  0.90393  0.01796  0.89381  1.0000
  S   S552      1.0  0.83848  0.01300  0.90500  1.0000
  Fe  Fe280     1.0  0.89844  0.01635  0.93421  1.0000
  S   S553      1.0  0.93051  0.02049  0.91931  1.0000
  H   H3270     1.0  0.59186  0.21082  0.78388  1.0000
  Fe  Fe281     1.0  0.90949  0.04412  0.90499  1.0000
  S   S554      1.0  0.92038  0.07452  0.89002  1.0000
  Fe  Fe282     1.0  0.92269  0.99421  0.90935  1.0000
  C   C4090     1.0  0.89441  0.46509  0.85394  1.0000
  S   S555      1.0  0.87748  0.04194  0.92047  1.0000
  S   S556      1.0  0.89185  0.98836  0.92490  1.0000
  C   C4091     1.0  0.57793  0.13471  0.88285  1.0000
  S   S557      1.0  0.77536  0.45239  0.87921  1.0000
  H   H3271     1.0  0.78261  0.15270  0.78849  1.0000
  C   C4092     1.0  0.49179  0.09064  0.95144  1.0000
  H   H3272     1.0  0.84642  0.42935  0.83803  1.0000
  Fe  Fe283     1.0  0.78294  0.45228  0.85571  1.0000
  S   S558      1.0  0.77849  0.42916  0.84149  1.0000
  C   C4093     1.0  0.74020  0.26116  0.77035  1.0000
  C   C4094     1.0  0.98077  0.39876  0.91647  1.0000
  S   S559      1.0  0.98128  0.17941  0.86240  1.0000
  C   C4095     1.0  0.96468  0.32714  0.89715  1.0000
  C   C4096     1.0  0.49318  0.11195  0.94378  1.0000
  C   C4097     1.0  0.85152  0.39091  0.87006  1.0000
  C   C4098     1.0  0.90280  0.36769  0.87179  1.0000
  C   C4099     1.0  0.92972  0.16626  0.78067  1.0000
  C   C4100     1.0  0.61084  0.99758  0.88638  1.0000
  S   S560      1.0  0.97821  0.14212  0.90027  1.0000
  C   C4101     1.0  0.59822  0.14136  0.88265  1.0000
  H   H3273     1.0  0.52537  0.99193  0.87167  1.0000
  C   C4102     1.0  0.49789  0.44009  0.91781  1.0000
  C   C4103     1.0  0.71259  0.05766  0.77054  1.0000
  H   H3274     1.0  0.69278  0.27490  0.77037  1.0000
  H   H3275     1.0  0.48950  0.34472  0.83974  1.0000
  C   C4104     1.0  0.93693  0.09289  0.89286  1.0000
  C   C4105     1.0  0.94203  0.09236  0.90612  1.0000
  C   C4106     1.0  0.95445  0.10771  0.90821  1.0000
  C   C4107     1.0  0.96231  0.12349  0.89701  1.0000
  C   C4108     1.0  0.95753  0.12384  0.88364  1.0000
  C   C4109     1.0  0.94476  0.10870  0.88161  1.0000
  H   H3276     1.0  0.93610  0.08021  0.91473  1.0000
  H   H3277     1.0  0.96345  0.13590  0.87493  1.0000
  H   H3278     1.0  0.94090  0.10926  0.87129  1.0000
  C   C4110     1.0  0.65629  0.98616  0.88831  1.0000
  H   H3279     1.0  0.64564  0.44697  0.92912  1.0000
  C   C4111     1.0  0.80372  0.00217  0.89513  1.0000
  C   C4112     1.0  0.82693  0.99845  0.89482  1.0000
  H   H3280     1.0  0.85929  0.35571  0.87005  1.0000
  C   C4113     1.0  0.94873  0.40618  0.85525  1.0000
  C   C4114     1.0  0.81665  0.38050  0.89186  1.0000
  H   H3281     1.0  0.79331  0.01327  0.90176  1.0000
  H   H3282     1.0  0.58878  0.44850  0.93936  1.0000
  H   H3283     1.0  0.92532  0.41316  0.87372  1.0000
  H   H3284     1.0  0.71802  0.24087  0.78475  1.0000
  C   C4115     1.0  0.76763  0.12548  0.80099  1.0000
  C   C4116     1.0  0.69527  0.08254  0.82692  1.0000
  C   C4117     1.0  0.69786  0.06609  0.83865  1.0000
  C   C4118     1.0  0.70900  0.04484  0.83696  1.0000
  C   C4119     1.0  0.71767  0.03993  0.82351  1.0000
  C   C4120     1.0  0.71608  0.05672  0.81179  1.0000
  C   C4121     1.0  0.70494  0.07805  0.81348  1.0000
  H   H3285     1.0  0.69064  0.06958  0.84908  1.0000
  H   H3286     1.0  0.71019  0.03208  0.84604  1.0000
  H   H3287     1.0  0.72288  0.05302  0.80137  1.0000
  H   H3288     1.0  0.70308  0.09070  0.80437  1.0000
  C   C4122     1.0  0.60224  0.20699  0.82127  1.0000
  C   C4123     1.0  0.58611  0.21909  0.83017  1.0000
  C   C4124     1.0  0.56341  0.21822  0.83114  1.0000
  C   C4125     1.0  0.55664  0.20556  0.82301  1.0000
  C   C4126     1.0  0.57275  0.19358  0.81402  1.0000
  C   C4127     1.0  0.59550  0.19412  0.81325  1.0000
  H   H3289     1.0  0.59121  0.22911  0.83637  1.0000
  H   H3290     1.0  0.55113  0.22768  0.83797  1.0000
  H   H3291     1.0  0.56761  0.18385  0.80765  1.0000
  H   H3292     1.0  0.60777  0.18489  0.80630  1.0000
  H   H3293     1.0  0.88540  0.45951  0.87649  1.0000
  H   H3294     1.0  0.75406  0.41499  0.86921  1.0000
  H   H3295     1.0  0.56293  0.14684  0.88249  1.0000
  S   S561      1.0  0.48787  0.18499  0.85554  1.0000
  C   C4128     1.0  0.52254  0.12958  0.90092  1.0000
  C   C4129     1.0  0.51902  0.10750  0.90393  1.0000
  C   C4130     1.0  0.65006  0.46153  0.93157  1.0000
  H   H3296     1.0  0.53581  0.13417  0.90480  1.0000
  H   H3297     1.0  0.52940  0.09523  0.91020  1.0000
  H   H3298     1.0  0.98242  0.38882  0.93853  1.0000
  H   H3299     1.0  0.51087  0.15804  0.92046  1.0000
  H   H3300     1.0  0.61230  0.15105  0.78608  1.0000
  C   C4131     1.0  0.54673  0.28948  0.84208  1.0000
  C   C4132     1.0  0.50881  0.14575  0.89306  1.0000
  C   C4133     1.0  0.58027  0.45627  0.96036  1.0000
  Fe  Fe284     1.0  0.49431  0.19714  0.87401  1.0000
  H   H3301     1.0  0.92472  0.34431  0.88404  1.0000
  C   C4134     1.0  0.76571  0.22741  0.82250  1.0000
  C   C4135     1.0  0.74666  0.21752  0.82807  1.0000
  C   C4136     1.0  0.73906  0.20464  0.82029  1.0000
  C   C4137     1.0  0.75075  0.20129  0.80699  1.0000
  C   C4138     1.0  0.76995  0.21091  0.80155  1.0000
  C   C4139     1.0  0.77726  0.22407  0.80919  1.0000
  H   H3302     1.0  0.73758  0.22007  0.83834  1.0000
  H   H3303     1.0  0.72423  0.19732  0.82458  1.0000
  C   C4140     1.0  0.83636  0.40772  0.87585  1.0000
  H   H3304     1.0  0.79161  0.23193  0.80465  1.0000
  C   C4141     1.0  0.81029  0.35719  0.83808  1.0000
  C   C4142     1.0  0.81235  0.36652  0.84957  1.0000
  C   C4143     1.0  0.80314  0.38863  0.85067  1.0000
  C   C4144     1.0  0.79137  0.40154  0.84039  1.0000
  C   C4145     1.0  0.78916  0.39214  0.82896  1.0000
  C   C4146     1.0  0.79887  0.37021  0.82770  1.0000
  H   H3305     1.0  0.82124  0.35660  0.85761  1.0000
  H   H3306     1.0  0.80488  0.39556  0.85955  1.0000
  H   H3307     1.0  0.78009  0.40195  0.82095  1.0000
  H   H3308     1.0  0.79774  0.36342  0.81863  1.0000
  C   C4147     1.0  0.90121  0.24047  0.82841  1.0000
  C   C4148     1.0  0.92238  0.22757  0.82797  1.0000
  C   C4149     1.0  0.93537  0.22681  0.83833  1.0000
  C   C4150     1.0  0.92744  0.23942  0.84906  1.0000
  C   C4151     1.0  0.90634  0.25248  0.84944  1.0000
  C   C4152     1.0  0.89321  0.25294  0.83920  1.0000
  H   H3309     1.0  0.92893  0.21843  0.81944  1.0000
  H   H3310     1.0  0.95165  0.21682  0.83787  1.0000
  H   H3311     1.0  0.90013  0.26234  0.85768  1.0000
  H   H3312     1.0  0.87701  0.26307  0.83960  1.0000
  C   C4153     1.0  0.98306  0.38331  0.92865  1.0000
  C   C4154     1.0  0.85311  0.21044  0.78200  1.0000
  C   C4155     1.0  0.83726  0.18148  0.76950  1.0000
  S   S562      1.0  0.49344  0.41372  0.91607  1.0000
  C   C4156     1.0  0.51868  0.44654  0.91199  1.0000
  C   C4157     1.0  0.97498  0.99077  0.93433  1.0000
  C   C4158     1.0  0.53080  0.40799  0.83793  1.0000
  H   H3313     1.0  0.97809  0.41622  0.91699  1.0000
  H   H3314     1.0  0.53120  0.43571  0.90617  1.0000
  H   H3315     1.0  0.97049  0.15739  0.83535  1.0000
  C   C4159     1.0  0.75805  0.10710  0.80087  1.0000
  H   H3316     1.0  0.93871  0.41699  0.84803  1.0000
  C   C4160     1.0  0.54607  0.37593  0.85948  1.0000
  H   H3317     1.0  0.55223  0.36359  0.86780  1.0000
  C   C4161     1.0  0.98300  0.33333  0.88730  1.0000
  C   C4162     1.0  0.86403  0.39583  0.84015  1.0000
  S   S563      1.0  0.49531  0.07456  0.90363  1.0000
  C   C4163     1.0  0.74305  0.37955  0.80978  1.0000
  H   H3318     1.0  0.60600  0.00172  0.90799  1.0000
  C   C4164     1.0  0.80695  0.97724  0.87829  1.0000
  C   C4165     1.0  0.83107  0.36371  0.88572  1.0000
  C   C4166     1.0  0.84844  0.36888  0.87484  1.0000
  C   C4167     1.0  0.59330  0.04368  0.84976  1.0000
  H   H3319     1.0  0.95377  0.46874  0.96297  1.0000
  H   H3320     1.0  0.97765  0.47283  0.93497  1.0000
  S   S564      1.0  0.81797  0.30200  0.77146  1.0000
  C   C4168     1.0  0.79381  0.99180  0.88691  1.0000
  H   H3321     1.0  0.83839  0.39167  0.80793  1.0000
  C   C4169     1.0  0.72631  0.38097  0.83408  1.0000
  H   H3322     1.0  0.82569  0.20539  0.79885  1.0000
  C   C4170     1.0  0.53738  0.47100  0.95419  1.0000
  H   H3323     1.0  0.76736  0.35086  0.80616  1.0000
  C   C4171     1.0  0.67087  0.46083  0.93512  1.0000
  C   C4172     1.0  0.96173  0.99953  0.94576  1.0000
  H   H3324     1.0  0.96438  0.20457  0.77271  1.0000
  H   H3325     1.0  0.63194  0.99846  0.82468  1.0000
  H   H3326     1.0  0.70530  0.47004  0.88090  1.0000
  H   H3327     1.0  0.95805  0.10741  0.91856  1.0000
  H   H3328     1.0  0.80814  0.41559  0.89162  1.0000
  C   C4173     1.0  0.69650  0.35190  0.87630  1.0000
  C   C4174     1.0  0.67368  0.35190  0.88071  1.0000
  C   C4175     1.0  0.66069  0.34809  0.87161  1.0000
  C   C4176     1.0  0.67050  0.34430  0.85807  1.0000
  H   H3329     1.0  0.70618  0.35493  0.88352  1.0000
  H   H3330     1.0  0.66606  0.35492  0.89120  1.0000
  H   H3331     1.0  0.64302  0.34809  0.87506  1.0000
  H   H3332     1.0  0.52960  0.06060  0.86717  1.0000
  C   C4177     1.0  0.78025  0.03977  0.81766  1.0000
  C   C4178     1.0  0.78288  0.01703  0.82240  1.0000
  C   C4179     1.0  0.78413  0.00877  0.83653  1.0000
  C   C4180     1.0  0.78207  0.02321  0.84603  1.0000
  C   C4181     1.0  0.77876  0.04610  0.84144  1.0000
  C   C4182     1.0  0.77871  0.05426  0.82709  1.0000
  P   P137      1.0  0.77734  0.06438  0.85374  1.0000
  C   C4183     1.0  0.76021  0.05441  0.86996  1.0000
  C   C4184     1.0  0.80602  0.06314  0.85536  1.0000
  C   C4185     1.0  0.81615  0.04599  0.86466  1.0000
  C   C4186     1.0  0.83871  0.04407  0.86532  1.0000
  C   C4187     1.0  0.85152  0.05887  0.85640  1.0000
  C   C4188     1.0  0.84175  0.07566  0.84682  1.0000
  C   C4189     1.0  0.81915  0.07764  0.84617  1.0000
  C   C4190     1.0  0.74119  0.04568  0.86955  1.0000
  C   C4191     1.0  0.72828  0.03703  0.88201  1.0000
  C   C4192     1.0  0.73413  0.03726  0.89498  1.0000
  C   C4193     1.0  0.75259  0.04662  0.89550  1.0000
  C   C4194     1.0  0.76549  0.05537  0.88304  1.0000
  C   C4195     1.0  0.76370  0.09191  0.84785  1.0000
  C   C4196     1.0  0.74530  0.09496  0.84098  1.0000
  C   C4197     1.0  0.73502  0.11623  0.83613  1.0000
  C   C4198     1.0  0.74263  0.13462  0.83839  1.0000
  C   C4199     1.0  0.76033  0.13173  0.84575  1.0000
  C   C4200     1.0  0.77067  0.11046  0.85062  1.0000
  H   H3333     1.0  0.77926  0.04610  0.80670  1.0000
  H   H3334     1.0  0.78366  0.00576  0.81519  1.0000
  H   H3335     1.0  0.96276  0.16594  0.78451  1.0000
  H   H3336     1.0  0.78308  0.01638  0.85696  1.0000
  H   H3337     1.0  0.77747  0.07173  0.82317  1.0000
  H   H3338     1.0  0.80680  0.03375  0.87122  1.0000
  H   H3339     1.0  0.84632  0.03085  0.87264  1.0000
  H   H3340     1.0  0.86909  0.05705  0.85678  1.0000
  H   H3341     1.0  0.85181  0.08691  0.83976  1.0000
  H   H3342     1.0  0.81209  0.09015  0.83829  1.0000
  H   H3343     1.0  0.73658  0.04509  0.85958  1.0000
  H   H3344     1.0  0.71405  0.02962  0.88159  1.0000
  H   H3345     1.0  0.72446  0.02998  0.90460  1.0000
  H   H3346     1.0  0.75723  0.04665  0.90555  1.0000
  H   H3347     1.0  0.77980  0.06242  0.88367  1.0000
  H   H3348     1.0  0.73896  0.08091  0.83927  1.0000
  H   H3349     1.0  0.72110  0.11848  0.83059  1.0000
  H   H3350     1.0  0.73474  0.15110  0.83448  1.0000
  H   H3351     1.0  0.76599  0.14604  0.84767  1.0000
  H   H3352     1.0  0.78406  0.10855  0.85654  1.0000
  C   C4201     1.0  0.56776  0.09157  0.92836  1.0000
  C   C4202     1.0  0.58070  0.10754  0.92121  1.0000
  C   C4203     1.0  0.57316  0.12973  0.92226  1.0000
  C   C4204     1.0  0.90944  0.04377  0.96668  1.0000
  H   H3353     1.0  0.58536  0.05393  0.87000  1.0000
  C   C4205     1.0  0.54695  0.09784  0.93620  1.0000
  H   H3354     1.0  0.87515  0.30457  0.77190  1.0000
  H   H3355     1.0  0.98616  0.06981  0.91495  1.0000
  H   H3356     1.0  0.62091  0.99133  0.86510  1.0000
  C   C4206     1.0  0.50160  0.10156  0.89917  1.0000
  C   C4207     1.0  0.88689  0.45286  0.86692  1.0000
  H   H3357     1.0  0.94525  0.12814  0.95416  1.0000
  H   H3358     1.0  0.74110  0.03300  0.77400  1.0000
  H   H3359     1.0  0.55014  0.11801  0.96272  1.0000
  H   H3360     1.0  0.57543  0.09348  0.86026  1.0000
  H   H3361     1.0  0.51899  0.43142  0.94293  1.0000
  H   H3362     1.0  0.96061  0.17212  0.81168  1.0000
  H   H3363     1.0  0.53197  0.05256  0.96196  1.0000
  C   C4208     1.0  0.53893  0.12018  0.93701  1.0000
  H   H3364     1.0  0.82875  0.34668  0.88931  1.0000
  H   H3365     1.0  0.49122  0.16293  0.96447  1.0000
  H   H3366     1.0  0.72581  0.25092  0.80607  1.0000
  C   C4209     1.0  0.93375  0.35710  0.84836  1.0000
  H   H3367     1.0  0.91222  0.38051  0.83600  1.0000
  C   C4210     1.0  0.50750  0.11799  0.85076  1.0000
  H   H3368     1.0  0.57384  0.07427  0.92790  1.0000
  H   H3369     1.0  0.59660  0.10268  0.91495  1.0000
  H   H3370     1.0  0.58330  0.14208  0.91681  1.0000
  C   C4211     1.0  0.56757  0.11464  0.80479  1.0000
  C   C4212     1.0  0.98291  0.39174  0.90355  1.0000
  H   H3371     1.0  0.89132  0.42973  0.83252  1.0000
  C   C4213     1.0  0.58633  0.05926  0.85874  1.0000
  C   C4214     1.0  0.91467  0.37262  0.84654  1.0000
  H   H3372     1.0  0.66044  0.34131  0.85101  1.0000
  C   C4215     1.0  0.50913  0.14966  0.83222  1.0000
  H   H3373     1.0  0.87503  0.42310  0.87777  1.0000
  C   C4216     1.0  0.84006  0.98395  0.88617  1.0000
  C   C4217     1.0  0.76500  0.11379  0.77530  1.0000
  S   S565      1.0  0.57299  0.02719  0.94957  1.0000
  C   C4218     1.0  0.72950  0.25236  0.78367  1.0000
  C   C4219     1.0  0.59553  0.13606  0.80599  1.0000
  H   H3374     1.0  0.77341  0.29016  0.78088  1.0000
  H   H3375     1.0  0.81612  0.25470  0.77679  1.0000
  H   H3376     1.0  0.89703  0.17119  0.77545  1.0000
  H   H3377     1.0  0.49749  0.31036  0.86025  1.0000
  C   C4220     1.0  0.58892  0.07266  0.82967  1.0000
  C   C4221     1.0  0.57545  0.15234  0.84492  1.0000
  C   C4222     1.0  0.58704  0.16611  0.84930  1.0000
  C   C4223     1.0  0.61018  0.16145  0.84800  1.0000
  C   C4224     1.0  0.88078  0.43227  0.86757  1.0000
  H   H3378     1.0  0.54144  0.15427  0.82077  1.0000
  H   H3379     1.0  0.59029  0.07741  0.81840  1.0000
  H   H3380     1.0  0.55763  0.15690  0.84552  1.0000
  H   H3381     1.0  0.57809  0.18090  0.85320  1.0000
  H   H3382     1.0  0.61919  0.17279  0.85072  1.0000
  C   C4225     1.0  0.64244  0.05997  0.84846  1.0000
  C   C4226     1.0  0.65590  0.03942  0.85038  1.0000
  C   C4227     1.0  0.66422  0.03181  0.86295  1.0000
  C   C4228     1.0  0.65842  0.04426  0.87382  1.0000
  C   C4229     1.0  0.64453  0.06473  0.87208  1.0000
  C   C4230     1.0  0.63693  0.07269  0.85921  1.0000
  P   P138      1.0  0.64121  0.08275  0.88475  1.0000
  C   C4231     1.0  0.61681  0.10341  0.88337  1.0000
  C   C4232     1.0  0.63606  0.06857  0.90262  1.0000
  C   C4233     1.0  0.62509  0.05013  0.90586  1.0000
  C   C4234     1.0  0.61876  0.04077  0.91989  1.0000
  C   C4235     1.0  0.62324  0.04974  0.93075  1.0000
  C   C4236     1.0  0.63403  0.06817  0.92762  1.0000
  C   C4237     1.0  0.64026  0.07769  0.91361  1.0000
  C   C4238     1.0  0.61760  0.12579  0.88300  1.0000
  C   C4239     1.0  0.57694  0.11241  0.88359  1.0000
  C   C4240     1.0  0.59628  0.09680  0.88389  1.0000
  C   C4241     1.0  0.66672  0.09415  0.88036  1.0000
  C   C4242     1.0  0.67031  0.10965  0.86806  1.0000
  C   C4243     1.0  0.69052  0.11762  0.86398  1.0000
  C   C4244     1.0  0.70752  0.10979  0.87197  1.0000
  C   C4245     1.0  0.70437  0.09379  0.88396  1.0000
  C   C4246     1.0  0.68413  0.08578  0.88808  1.0000
  H   H3383     1.0  0.63698  0.06642  0.83844  1.0000
  H   H3384     1.0  0.66080  0.02982  0.84191  1.0000
  H   H3385     1.0  0.67570  0.01647  0.86413  1.0000
  H   H3386     1.0  0.66540  0.03817  0.88339  1.0000
  H   H3387     1.0  0.62739  0.08900  0.85728  1.0000
  H   H3388     1.0  0.62095  0.04326  0.89760  1.0000
  H   H3389     1.0  0.60996  0.02675  0.92244  1.0000
  H   H3390     1.0  0.61797  0.04257  0.94161  1.0000
  H   H3391     1.0  0.63717  0.07528  0.93609  1.0000
  H   H3392     1.0  0.64784  0.09246  0.91138  1.0000
  H   H3393     1.0  0.63303  0.13128  0.88311  1.0000
  H   H3394     1.0  0.56111  0.10724  0.88402  1.0000
  H   H3395     1.0  0.59518  0.07953  0.88470  1.0000
  H   H3396     1.0  0.65768  0.11522  0.86142  1.0000
  H   H3397     1.0  0.72326  0.11581  0.86871  1.0000
  H   H3398     1.0  0.71779  0.08727  0.88991  1.0000
  H   H3399     1.0  0.68237  0.07271  0.89704  1.0000
  C   C4247     1.0  0.54961  0.40993  0.84311  1.0000
  C   C4248     1.0  0.85961  0.11164  0.87694  1.0000
  C   C4249     1.0  0.87427  0.09378  0.87220  1.0000
  C   C4250     1.0  0.89387  0.09728  0.86290  1.0000
  C   C4251     1.0  0.89917  0.11857  0.85861  1.0000
  C   C4252     1.0  0.88467  0.13657  0.86349  1.0000
  C   C4253     1.0  0.86479  0.13296  0.87264  1.0000
  P   P139      1.0  0.89254  0.16370  0.85968  1.0000
  C   C4254     1.0  0.86842  0.18379  0.85604  1.0000
  C   C4255     1.0  0.90351  0.16818  0.87445  1.0000
  C   C4256     1.0  0.91494  0.18601  0.87299  1.0000
  C   C4257     1.0  0.92464  0.18886  0.88404  1.0000
  C   C4258     1.0  0.92338  0.17379  0.89656  1.0000
  C   C4259     1.0  0.91209  0.15598  0.89813  1.0000
  C   C4260     1.0  0.90224  0.15311  0.88714  1.0000
  C   C4261     1.0  0.85235  0.17817  0.84968  1.0000
  C   C4262     1.0  0.83365  0.19353  0.84677  1.0000
  C   C4263     1.0  0.83090  0.21464  0.85009  1.0000
  C   C4264     1.0  0.84701  0.22053  0.85613  1.0000
  C   C4265     1.0  0.86573  0.20521  0.85908  1.0000
  C   C4266     1.0  0.91399  0.16581  0.84434  1.0000
  C   C4267     1.0  0.93645  0.15944  0.84581  1.0000
  C   C4268     1.0  0.95318  0.16164  0.83405  1.0000
  C   C4269     1.0  0.94760  0.16989  0.82071  1.0000
  C   C4270     1.0  0.92529  0.17589  0.81912  1.0000
  C   C4271     1.0  0.90853  0.17401  0.83088  1.0000
  H   H3400     1.0  0.84464  0.10881  0.88435  1.0000
  H   H3401     1.0  0.87088  0.07714  0.87618  1.0000
  H   H3402     1.0  0.90562  0.08329  0.85971  1.0000
  H   H3403     1.0  0.91492  0.12076  0.85195  1.0000
  H   H3404     1.0  0.85371  0.14655  0.87685  1.0000
  H   H3405     1.0  0.91683  0.19746  0.86319  1.0000
  H   H3406     1.0  0.93358  0.20255  0.88277  1.0000
  H   H3407     1.0  0.93171  0.17557  0.90488  1.0000
  H   H3408     1.0  0.91177  0.14387  0.90767  1.0000
  H   H3409     1.0  0.89442  0.13865  0.88852  1.0000
  H   H3410     1.0  0.85437  0.16201  0.84681  1.0000
  H   H3411     1.0  0.82134  0.18924  0.84180  1.0000
  H   H3412     1.0  0.81641  0.22650  0.84775  1.0000
  H   H3413     1.0  0.84521  0.23712  0.85834  1.0000
  H   H3414     1.0  0.87808  0.21036  0.86353  1.0000
  H   H3415     1.0  0.94110  0.15313  0.85607  1.0000
  C   C4272     1.0  0.95398  0.39000  0.87908  1.0000
  H   H3416     1.0  0.90473  0.05351  0.95708  1.0000
  H   H3417     1.0  0.92092  0.18299  0.80886  1.0000
  H   H3418     1.0  0.89143  0.17957  0.82943  1.0000
  H   H3419     1.0  0.83763  0.42488  0.87188  1.0000
  H   H3420     1.0  0.78207  0.32976  0.85925  1.0000
  C   C4273     1.0  0.52994  0.02588  0.86841  1.0000
  H   H3421     1.0  0.59888  0.15866  0.88217  1.0000
  C   C4274     1.0  0.87840  0.28797  0.76951  1.0000
  C   C4275     1.0  0.55253  0.13602  0.93032  1.0000
  H   H3422     1.0  0.75115  0.33506  0.88392  1.0000
  P   P140      1.0  0.73589  0.34827  0.85675  1.0000
  C   C4276     1.0  0.54302  0.12451  0.83639  1.0000
  H   H3423     1.0  0.89732  0.23557  0.78377  1.0000
  C   C4277     1.0  0.94432  0.11276  0.95101  1.0000
  C   C4278     1.0  0.74694  0.38591  0.86351  1.0000
  C   C4279     1.0  0.75413  0.34996  0.82818  1.0000
  H   H3424     1.0  0.77599  0.99497  0.88732  1.0000
  C   C4280     1.0  0.55728  0.39387  0.85385  1.0000
  C   C4281     1.0  0.57948  0.12275  0.81288  1.0000
  H   H3425     1.0  0.68256  0.44560  0.93563  1.0000
  C   C4282     1.0  0.88983  0.43607  0.84219  1.0000
  H   H3426     1.0  0.53826  0.09725  0.85358  1.0000
  C   C4283     1.0  0.52346  0.46686  0.91368  1.0000
  H   H3427     1.0  0.74296  0.39479  0.85351  1.0000
  H   H3428     1.0  0.50881  0.33221  0.92136  1.0000
  C   C4284     1.0  0.96904  0.39413  0.85010  1.0000
  C   C4285     1.0  0.53058  0.41229  0.96160  1.0000
  C   C4286     1.0  0.85857  0.37443  0.82336  1.0000
  C   C4287     1.0  0.84587  0.39297  0.81673  1.0000
  C   C4288     1.0  0.49170  0.13966  0.88809  1.0000
  C   C4289     1.0  0.86737  0.37574  0.83514  1.0000
  H   H3429     1.0  0.86070  0.35874  0.81976  1.0000
  C   C4290     1.0  0.95802  0.30680  0.89775  1.0000
  C   C4291     1.0  0.83420  0.20124  0.78876  1.0000
  H   H3430     1.0  0.55466  0.27491  0.83755  1.0000
  P   P141      1.0  0.51244  0.35095  0.86190  1.0000
  C   C4292     1.0  0.52602  0.32710  0.85395  1.0000
  C   C4293     1.0  0.51215  0.34481  0.88070  1.0000
  C   C4294     1.0  0.51132  0.36184  0.88831  1.0000
  C   C4295     1.0  0.51056  0.35722  0.90287  1.0000
  C   C4296     1.0  0.51040  0.33564  0.91000  1.0000
  C   C4297     1.0  0.51127  0.31862  0.90254  1.0000
  C   C4298     1.0  0.51202  0.32315  0.88798  1.0000
  H   H3431     1.0  0.75851  0.21769  0.77190  1.0000
  C   C4299     1.0  0.61798  0.99741  0.89900  1.0000
  C   C4300     1.0  0.77593  0.13801  0.78833  1.0000
  C   C4301     1.0  0.55845  0.30684  0.84110  1.0000
  C   C4302     1.0  0.54817  0.32560  0.84701  1.0000
  C   C4303     1.0  0.61038  0.97809  0.83927  1.0000
  C   C4304     1.0  0.95416  0.45112  0.96448  1.0000
  C   C4305     1.0  0.92492  0.10988  0.94693  1.0000
  H   H3432     1.0  0.51067  0.37883  0.88311  1.0000
  H   H3433     1.0  0.50940  0.37048  0.90871  1.0000
  C   C4306     1.0  0.50199  0.15722  0.94292  1.0000
  C   C4307     1.0  0.98193  0.38013  0.85943  1.0000
  C   C4308     1.0  0.75580  0.35926  0.81394  1.0000
  C   C4309     1.0  0.59536  0.20933  0.77282  1.0000
  C   C4310     1.0  0.51447  0.30958  0.85487  1.0000
  H   H3434     1.0  0.57554  0.30568  0.83579  1.0000
  H   H3435     1.0  0.55759  0.33876  0.84617  1.0000
  C   C4311     1.0  0.77446  0.13234  0.77553  1.0000
  H   H3436     1.0  0.74469  0.38687  0.79876  1.0000
  H   H3437     1.0  0.55474  0.10481  0.80988  1.0000
  H   H3438     1.0  0.51181  0.30974  0.88260  1.0000
  H   H3439     1.0  0.90908  0.08818  0.93908  1.0000
  H   H3440     1.0  0.89114  0.37180  0.88100  1.0000
  H   H3441     1.0  0.76811  0.13045  0.81085  1.0000
  H   H3442     1.0  0.66074  0.98043  0.86700  1.0000
  H   H3443     1.0  0.85904  0.22148  0.78710  1.0000
  C   C4312     1.0  0.56360  0.03482  0.96641  1.0000
  H   H3444     1.0  0.87620  0.36089  0.84052  1.0000
  H   H3445     1.0  0.85789  0.98087  0.88570  1.0000
  S   S566      1.0  0.97987  0.20663  0.88840  1.0000
  H   H3446     1.0  0.91075  0.12298  0.94696  1.0000
  H   H3447     1.0  0.51553  0.27745  0.84981  1.0000
  H   H3448     1.0  0.97787  0.09874  0.95352  1.0000
  C   C4313     1.0  0.52690  0.37410  0.85454  1.0000
  C   C4314     1.0  0.49158  0.39391  0.96639  1.0000
  C   C4315     1.0  0.50353  0.16742  0.92879  1.0000
  C   C4316     1.0  0.62172  0.14255  0.84277  1.0000
  H   H3449     1.0  0.94573  0.35292  0.83930  1.0000
  C   C4317     1.0  0.58157  0.08842  0.83865  1.0000
  C   C4318     1.0  0.58700  0.13358  0.83936  1.0000
  H   H3450     1.0  0.56275  0.11305  0.78392  1.0000
  H   H3451     1.0  0.69310  0.12950  0.85441  1.0000
  C   C4319     1.0  0.62635  0.99141  0.87485  1.0000
  Fe  Fe285     1.0  0.50358  0.21352  0.84272  1.0000
  C   C4320     1.0  0.59991  0.14074  0.79130  1.0000
  H   H3452     1.0  0.75090  0.09774  0.81062  1.0000
  H   H3453     1.0  0.71844  0.40616  0.81664  1.0000
  H   H3454     1.0  0.74464  0.26813  0.85608  1.0000
  H   H3455     1.0  0.78452  0.26136  0.85790  1.0000
  H   H3456     1.0  0.78088  0.47417  0.77865  1.0000
  C   C4321     1.0  0.51952  0.39010  0.84357  1.0000
  C   C4322     1.0  0.58821  0.13234  0.78334  1.0000
  C   C4323     1.0  0.75248  0.28158  0.85725  1.0000
  C   C4324     1.0  0.61018  0.12853  0.83860  1.0000
  S   S567      1.0  0.89661  0.00885  0.95830  1.0000
  C   C4325     1.0  0.70648  0.34813  0.86269  1.0000
  C   C4326     1.0  0.77503  0.27772  0.85825  1.0000
  H   H3457     1.0  0.72301  0.30543  0.85613  1.0000
  C   C4327     1.0  0.53214  0.14366  0.82895  1.0000
  H   H3458     1.0  0.77504  0.46150  0.80452  1.0000
  H   H3459     1.0  0.81137  0.18001  0.78767  1.0000
  C   C4328     1.0  0.51559  0.41903  0.95213  1.0000
  C   C4329     1.0  0.69329  0.34435  0.85360  1.0000
  C   C4330     1.0  0.74032  0.30281  0.85721  1.0000
  C   C4331     1.0  0.75685  0.10117  0.78811  1.0000
  H   H3460     1.0  0.94137  0.05862  0.93845  1.0000
  C   C4332     1.0  0.96184  0.07613  0.94642  1.0000
  H   H3461     1.0  0.74892  0.08711  0.78844  1.0000
  S   S568      1.0  0.68096  0.19541  0.78991  1.0000
  P   P142      1.0  0.57286  0.11720  0.83190  1.0000
  C   C4333     1.0  0.52473  0.29088  0.84897  1.0000
  C   C4334     1.0  0.73944  0.36081  0.83840  1.0000
  C   C4335     1.0  0.81928  0.40249  0.88691  1.0000
  C   C4336     1.0  0.59476  0.05039  0.83523  1.0000
  H   H3462     1.0  0.80334  0.37651  0.90039  1.0000
  C   C4337     1.0  0.49441  0.01328  0.87680  1.0000
  H   H3463     1.0  0.53726  0.08513  0.94164  1.0000
  C   C4338     1.0  0.57566  0.45482  0.94727  1.0000
  C   C4339     1.0  0.75073  0.32038  0.85813  1.0000
  C   C4340     1.0  0.78548  0.29510  0.85922  1.0000
  H   H3464     1.0  0.80313  0.29232  0.85957  1.0000
  C   C4341     1.0  0.92190  0.35222  0.87358  1.0000
  C   C4342     1.0  0.64895  0.98527  0.87591  1.0000
  H   H3465     1.0  0.57182  0.39541  0.85789  1.0000
  H   H3466     1.0  0.78654  0.99113  0.84019  1.0000
  H   H3467     1.0  0.95199  0.33465  0.86328  1.0000
  H   H3468     1.0  0.94413  0.30188  0.90552  1.0000
  C   C4343     1.0  0.77343  0.31636  0.85907  1.0000
  H   H3469     1.0  0.70064  0.34133  0.84307  1.0000
  H   H3470     1.0  0.76458  0.33445  0.83109  1.0000
  H   H3471     1.0  0.94763  0.38820  0.89025  1.0000
  H   H3472     1.0  0.60450  0.14322  0.81184  1.0000
  S   S569      1.0  0.51272  0.17353  0.89011  1.0000
  C   C4344     1.0  0.58078  0.08156  0.85320  1.0000
  H   H3473     1.0  0.51028  0.30203  0.90816  1.0000
  S   S570      1.0  0.74237  0.18499  0.79684  1.0000
  H   H3474     1.0  0.65422  0.26741  0.77490  1.0000
  H   H3475     1.0  0.66551  0.46526  0.88553  1.0000
  C   C4345     1.0  0.94236  0.07342  0.94225  1.0000
  C   C4346     1.0  0.96530  0.01928  0.94887  1.0000
  H   H3476     1.0  0.95558  0.33797  0.90438  1.0000
  H   H3477     1.0  0.52487  0.42044  0.82960  1.0000
  P   P143      1.0  0.51211  0.12799  0.94739  1.0000
  C   C4347     1.0  0.75196  0.35246  0.88050  1.0000
  C   C4348     1.0  0.74620  0.36324  0.86745  1.0000
  C   C4349     1.0  0.72830  0.39040  0.81985  1.0000
  C   C4350     1.0  0.94118  0.40404  0.86973  1.0000
  H   H3478     1.0  0.71454  0.38942  0.84172  1.0000
  S   S571      1.0  0.83306  0.45848  0.88966  1.0000
  H   H3479     1.0  0.90190  0.46611  0.83153  1.0000
  H   H3480     1.0  0.54725  0.15324  0.93119  1.0000
  S   S572      1.0  0.68477  0.98079  0.88956  1.0000
  C   C4351     1.0  0.93730  0.34682  0.86187  1.0000
  C   C4352     1.0  0.84172  0.41277  0.82200  1.0000
  H   H3481     1.0  0.76328  0.35560  0.89926  1.0000
  C   C4353     1.0  0.82618  0.18688  0.78247  1.0000
  C   C4354     1.0  0.75869  0.36407  0.88929  1.0000
  H   H3482     1.0  0.96451  0.27673  0.88900  1.0000
  Fe  Fe286     1.0  0.97435  0.21472  0.86581  1.0000
  C   C4355     1.0  0.64070  0.99200  0.89991  1.0000
  C   C4356     1.0  0.55421  0.46214  0.94421  1.0000
  H   H3483     1.0  0.77892  0.20872  0.79121  1.0000
  H   H3484     1.0  0.50101  0.16477  0.82661  1.0000
  H   H3485     1.0  0.49800  0.10841  0.85947  1.0000
  H   H3486     1.0  0.60047  0.03831  0.82828  1.0000
  C   C4357     1.0  0.89879  0.37763  0.85823  1.0000
  P   P144      1.0  0.87391  0.39728  0.85595  1.0000
  C   C4358     1.0  0.89602  0.45662  0.84159  1.0000
  C   C4359     1.0  0.75935  0.38663  0.88524  1.0000
  H   H3487     1.0  0.53950  0.47165  0.90910  1.0000
  H   H3488     1.0  0.89168  0.27341  0.78849  1.0000
  C   C4360     1.0  0.91161  0.17869  0.77475  1.0000
  H   H3489     1.0  0.59781  0.02644  0.85412  1.0000
  H   H3490     1.0  0.75369  0.27525  0.80428  1.0000
  C   C4361     1.0  0.94184  0.44283  0.95684  1.0000
  C   C4362     1.0  0.53050  0.11181  0.84742  1.0000
  C   C4363     1.0  0.75337  0.39752  0.87241  1.0000
  C   C4364     1.0  0.49679  0.13681  0.84310  1.0000
  H   H3491     1.0  0.76451  0.39575  0.89200  1.0000
  C   C4365     1.0  0.51730  0.00878  0.87205  1.0000
  H   H3492     1.0  0.63970  0.13919  0.84148  1.0000
  C   C4366     1.0  0.85057  0.41415  0.83375  1.0000
  H   H3493     1.0  0.62986  0.19555  0.77306  1.0000
  C   C4367     1.0  0.88168  0.42394  0.85518  1.0000
  H   H3494     1.0  0.93265  0.41379  0.95242  1.0000
  C   C4368     1.0  0.74969  0.27160  0.79481  1.0000
  H   H3495     1.0  0.54781  0.02226  0.86527  1.0000
  H   H3496     1.0  0.93221  0.45408  0.94959  1.0000
  Fe  Fe287     1.0  0.67730  0.16406  0.78331  1.0000
  S   S573      1.0  0.94342  0.23965  0.86205  1.0000
  H   H3497     1.0  0.86907  0.45485  0.90492  1.0000
  H   H3498     1.0  0.61950  0.11438  0.83410  1.0000
  H   H3499     1.0  0.83085  0.42679  0.81735  1.0000
  C   C4369     1.0  0.51968  0.04749  0.86946  1.0000
  H   H3500     1.0  0.50150  0.08392  0.95976  1.0000
  C   C4370     1.0  0.76085  0.27993  0.78164  1.0000
  C   C4371     1.0  0.73397  0.25789  0.79582  1.0000
  C   C4372     1.0  0.94874  0.17556  0.77991  1.0000
  C   C4373     1.0  0.96275  0.09603  0.95068  1.0000
  C   C4374     1.0  0.91241  0.20056  0.76805  1.0000
  C   C4375     1.0  0.75618  0.27474  0.76944  1.0000
  C   C4376     1.0  0.49675  0.05208  0.87404  1.0000
  Fe  Fe288     1.0  0.80611  0.46852  0.87589  1.0000
  H   H3501     1.0  0.55074  0.46157  0.93394  1.0000
  P   P145      1.0  0.98659  0.05575  0.94483  1.0000
  Fe  Fe289     1.0  0.73072  0.98688  0.84076  1.0000
  H   H3502     1.0  0.64625  0.99249  0.90959  1.0000
  H   H3503     1.0  0.59161  0.13606  0.77196  1.0000
  C   C4377     1.0  0.49558  0.18987  0.92523  1.0000
  C   C4378     1.0  0.54180  0.47247  0.96742  1.0000
  C   C4379     1.0  0.63099  0.98408  0.83282  1.0000
  H   H3504     1.0  0.59700  0.45101  0.96265  1.0000
  H   H3505     1.0  0.59526  0.98783  0.83615  1.0000
  C   C4380     1.0  0.89087  0.24893  0.77609  1.0000
  C   C4381     1.0  0.88759  0.27044  0.77887  1.0000
  C   C4382     1.0  0.48811  0.11766  0.89117  1.0000
  H   H3506     1.0  0.70092  0.04607  0.77395  1.0000
  C   C4383     1.0  0.97472  0.37836  0.87401  1.0000
  C   C4384     1.0  0.98643  0.36912  0.90284  1.0000
  H   H3507     1.0  0.56188  0.22236  0.76946  1.0000
  H   H3508     1.0  0.94838  0.99121  0.95205  1.0000
  C   C4385     1.0  0.49252  0.17008  0.95347  1.0000
  C   C4386     1.0  0.73526  0.05030  0.77049  1.0000
  S   S574      1.0  0.81501  0.46523  0.85301  1.0000
  H   H3509     1.0  0.50497  0.38892  0.83943  1.0000
  C   C4387     1.0  0.51421  0.12105  0.96584  1.0000
  C   C4388     1.0  0.49611  0.40985  0.95455  1.0000
  C   C4389     1.0  0.94968  0.19730  0.77323  1.0000
  H   H3510     1.0  0.49888  0.97713  0.90526  1.0000
  C   C4390     1.0  0.86411  0.20546  0.76883  1.0000
  C   C4391     1.0  0.98178  0.03070  0.94033  1.0000
  H   H3511     1.0  0.97475  0.39554  0.83886  1.0000
  C   C4392     1.0  0.66691  0.25824  0.76806  1.0000
  H   H3512     1.0  0.95507  0.02577  0.95787  1.0000
  C   C4393     1.0  0.86180  0.47207  0.90308  1.0000
  C   C4394     1.0  0.94204  0.42015  0.95848  1.0000
  H   H3513     1.0  0.59430  0.98350  0.95232  1.0000
  H   H3514     1.0  0.48934  0.06886  0.87508  1.0000
  H   H3515     1.0  0.56774  0.31998  0.96682  1.0000
  Fe  Fe290     1.0  0.56950  0.51982  0.02774  1.0000
  C   C4395     1.0  0.92336  0.64411  0.14424  1.0000
  S   S575      1.0  0.58781  0.50774  0.00753  1.0000
  Fe  Fe291     1.0  0.54622  0.55639  0.04463  1.0000
  S   S576      1.0  0.53441  0.53221  0.06332  1.0000
  S   S577      1.0  0.53638  0.59342  0.04418  1.0000
  Fe  Fe292     1.0  0.56907  0.51345  0.05942  1.0000
  H   H3516     1.0  0.88630  0.84550  0.13388  1.0000
  Fe  Fe293     1.0  0.52646  0.51382  0.04801  1.0000
  S   S578      1.0  0.58153  0.53869  0.04141  1.0000
  S   S579      1.0  0.53533  0.53967  0.02940  1.0000
  C   C4396     1.0  0.91218  0.80213  0.07148  1.0000
  C   C4397     1.0  0.84576  0.95653  0.13969  1.0000
  C   C4398     1.0  0.52052  0.56009  0.97126  1.0000
  C   C4399     1.0  0.83813  0.68779  0.13992  1.0000
  H   H3517     1.0  0.95908  0.49651  0.01912  1.0000
  C   C4400     1.0  0.50750  0.76487  0.11634  1.0000
  C   C4401     1.0  0.79292  0.51900  0.08786  1.0000
  C   C4402     1.0  0.78603  0.60041  0.15749  1.0000
  S   S580      1.0  0.51366  0.69773  0.10027  1.0000
  S   S581      1.0  0.51854  0.63253  0.10119  1.0000
  C   C4403     1.0  0.91149  0.61581  0.12926  1.0000
  H   H3518     1.0  0.66456  0.65284  0.08365  1.0000
  C   C4404     1.0  0.85405  0.68894  0.11116  1.0000
  H   H3519     1.0  0.56973  0.74102  0.11342  1.0000
  Fe  Fe294     1.0  0.50303  0.69999  0.12325  1.0000
  S   S582      1.0  0.52397  0.71119  0.13618  1.0000
  C   C4405     1.0  0.86283  0.67149  0.12088  1.0000
  C   C4406     1.0  0.52114  0.54826  0.09984  1.0000
  H   H3520     1.0  0.82330  0.86465  0.15891  1.0000
  Fe  Fe295     1.0  0.70291  0.51707  0.11886  1.0000
  S   S583      1.0  0.68807  0.55206  0.12217  1.0000
  S   S584      1.0  0.72226  0.51317  0.09736  1.0000
  H   H3521     1.0  0.92566  0.47948  0.03005  1.0000
  H   H3522     1.0  0.72180  0.69813  0.15345  1.0000
  C   C4407     1.0  0.59173  0.96973  0.01318  1.0000
  H   H3523     1.0  0.60836  0.58202  0.12918  1.0000
  H   H3524     1.0  0.90759  0.60462  0.12336  1.0000
  S   S585      1.0  0.77946  0.74282  0.15181  1.0000
  Fe  Fe296     1.0  0.83702  0.78435  0.15722  1.0000
  H   H3525     1.0  0.86053  0.65729  0.14297  1.0000
  S   S586      1.0  0.87198  0.78653  0.14530  1.0000
  H   H3526     1.0  0.92630  0.66641  0.10809  1.0000
  C   C4408     1.0  0.50094  0.78765  0.11529  1.0000
  C   C4409     1.0  0.92698  0.60775  0.13835  1.0000
  S   S587      1.0  0.80681  0.79725  0.14692  1.0000
  H   H3527     1.0  0.98439  0.48269  0.99894  1.0000
  S   S588      1.0  0.68039  0.49271  0.11908  1.0000
  H   H3528     1.0  0.96635  0.49404  0.97441  1.0000
  C   C4410     1.0  0.65085  0.49308  0.06656  1.0000
  H   H3529     1.0  0.94377  0.83216  0.04497  1.0000
  C   C4411     1.0  0.86715  0.53832  0.97226  1.0000
  S   S589      1.0  0.77707  0.92813  0.11345  1.0000
  Fe  Fe297     1.0  0.88700  0.53891  0.06391  1.0000
  S   S590      1.0  0.90854  0.53250  0.08056  1.0000
  S   S591      1.0  0.84891  0.54417  0.06778  1.0000
  Fe  Fe298     1.0  0.92666  0.54460  0.04034  1.0000
  S   S592      1.0  0.95122  0.53873  0.05535  1.0000
  S   S593      1.0  0.93920  0.55336  0.01686  1.0000
  Fe  Fe299     1.0  0.92584  0.56060  0.06830  1.0000
  S   S594      1.0  0.93158  0.58316  0.08268  1.0000
  S   S595      1.0  0.90250  0.56869  0.05246  1.0000
  H   H3530     1.0  0.83108  0.71936  0.10832  1.0000
  Fe  Fe300     1.0  0.96879  0.69670  0.11774  1.0000
  C   C4412     1.0  0.59474  0.96118  0.03790  1.0000
  S   S596      1.0  0.93368  0.69855  0.12980  1.0000
  C   C4413     1.0  0.92052  0.66639  0.09841  1.0000
  H   H3531     1.0  0.78147  0.96362  0.14408  1.0000
  C   C4414     1.0  0.93278  0.54132  0.00356  1.0000
  C   C4415     1.0  0.94231  0.54773  0.98948  1.0000
  C   C4416     1.0  0.93832  0.53795  0.97868  1.0000
  C   C4417     1.0  0.92483  0.52156  0.98186  1.0000
  C   C4418     1.0  0.91502  0.51538  0.99589  1.0000
  C   C4419     1.0  0.91877  0.52537  0.00668  1.0000
  H   H3532     1.0  0.95302  0.56019  0.98695  1.0000
  C   C4420     1.0  0.79072  0.56719  0.14117  1.0000
  H   H3533     1.0  0.90460  0.50268  0.99848  1.0000
  H   H3534     1.0  0.91112  0.52048  0.01743  1.0000
  C   C4421     1.0  0.95084  0.60166  0.08116  1.0000
  C   C4422     1.0  0.95129  0.61112  0.09294  1.0000
  C   C4423     1.0  0.96580  0.62624  0.09228  1.0000
  H   H3535     1.0  0.97600  0.83804  0.06717  1.0000
  H   H3536     1.0  0.48975  0.88383  0.00165  1.0000
  C   C4424     1.0  0.96536  0.60738  0.06870  1.0000
  H   H3537     1.0  0.94029  0.60676  0.10265  1.0000
  H   H3538     1.0  0.82230  0.59453  0.99746  1.0000
  H   H3539     1.0  0.83506  0.97593  0.97039  1.0000
  H   H3540     1.0  0.79527  0.85138  0.13621  1.0000
  H   H3541     1.0  0.93050  0.75615  0.08170  1.0000
  C   C4425     1.0  0.75354  0.57899  0.09509  1.0000
  C   C4426     1.0  0.61321  0.58684  0.09867  1.0000
  C   C4427     1.0  0.77829  0.87182  0.15148  1.0000
  C   C4428     1.0  0.78777  0.86791  0.13789  1.0000
  C   C4429     1.0  0.78722  0.88539  0.12642  1.0000
  C   C4430     1.0  0.77728  0.90694  0.12838  1.0000
  C   C4431     1.0  0.76816  0.91094  0.14199  1.0000
  C   C4432     1.0  0.76868  0.89344  0.15347  1.0000
  H   H3542     1.0  0.51721  0.54199  0.09133  1.0000
  S   S597      1.0  0.48728  0.83387  0.05338  1.0000
  H   H3543     1.0  0.76045  0.92742  0.14365  1.0000
  H   H3544     1.0  0.83252  0.94955  0.05725  1.0000
  C   C4433     1.0  0.88938  0.76198  0.14134  1.0000
  C   C4434     1.0  0.91094  0.76289  0.13373  1.0000
  C   C4435     1.0  0.92491  0.74354  0.13023  1.0000
  C   C4436     1.0  0.91736  0.72321  0.13438  1.0000
  C   C4437     1.0  0.89592  0.72232  0.14211  1.0000
  C   C4438     1.0  0.88197  0.74161  0.14555  1.0000
  H   H3545     1.0  0.91680  0.77859  0.13045  1.0000
  H   H3546     1.0  0.94141  0.74434  0.12427  1.0000
  H   H3547     1.0  0.85990  0.68967  0.09999  1.0000
  H   H3548     1.0  0.58534  0.57455  0.15258  1.0000
  C   C4439     1.0  0.52250  0.97075  0.05669  1.0000
  C   C4440     1.0  0.52047  0.51441  0.97663  1.0000
  C   C4441     1.0  0.81267  0.94634  0.13495  1.0000
  H   H3549     1.0  0.52461  0.87558  0.01715  1.0000
  H   H3550     1.0  0.72508  0.64617  0.15326  1.0000
  H   H3551     1.0  0.53044  0.73858  0.10801  1.0000
  H   H3552     1.0  0.51103  0.81409  0.00542  1.0000
  H   H3553     1.0  0.86762  0.50556  0.13776  1.0000
  C   C4442     1.0  0.57804  0.72940  0.10650  1.0000
  H   H3554     1.0  0.92661  0.71709  0.08970  1.0000
  S   S598      1.0  0.92062  0.50768  0.96876  1.0000
  H   H3555     1.0  0.80132  0.54920  0.07476  1.0000
  C   C4443     1.0  0.64148  0.51156  0.98199  1.0000
  H   H3556     1.0  0.79175  0.66819  0.16388  1.0000
  C   C4444     1.0  0.83765  0.70579  0.11583  1.0000
  H   H3557     1.0  0.60941  0.48962  0.10158  1.0000
  C   C4445     1.0  0.60229  0.97109  0.02421  1.0000
  C   C4446     1.0  0.82978  0.70528  0.13020  1.0000
  C   C4447     1.0  0.85441  0.67083  0.13529  1.0000
  H   H3558     1.0  0.81316  0.96273  0.08364  1.0000
  C   C4448     1.0  0.96352  0.81171  0.10774  1.0000
  C   C4449     1.0  0.62534  0.58787  0.16446  1.0000
  C   C4450     1.0  0.53831  0.77050  0.09724  1.0000
  H   H3559     1.0  0.77520  0.52465  0.08908  1.0000
  H   H3560     1.0  0.87173  0.77435  0.11144  1.0000
  H   H3561     1.0  0.75855  0.71052  0.14467  1.0000
  C   C4451     1.0  0.70181  0.58785  0.15531  1.0000
  S   S599      1.0  0.95133  0.47998  0.07733  1.0000
  H   H3562     1.0  0.87602  0.53341  0.98109  1.0000
  C   C4452     1.0  0.69457  0.56548  0.13472  1.0000
  C   C4453     1.0  0.70807  0.55460  0.14462  1.0000
  C   C4454     1.0  0.71176  0.56583  0.15485  1.0000
  H   H3563     1.0  0.63908  0.59289  0.14248  1.0000
  H   H3564     1.0  0.71543  0.53753  0.14449  1.0000
  C   C4455     1.0  0.97996  0.63238  0.07972  1.0000
  C   C4456     1.0  0.58954  0.66990  0.14739  1.0000
  C   C4457     1.0  0.57762  0.66268  0.13887  1.0000
  C   C4458     1.0  0.55738  0.67500  0.13550  1.0000
  C   C4459     1.0  0.54887  0.69473  0.14064  1.0000
  H   H3565     1.0  0.50365  0.80180  0.07566  1.0000
  C   C4460     1.0  0.77808  0.55804  0.11646  1.0000
  H   H3566     1.0  0.58407  0.64750  0.13482  1.0000
  H   H3567     1.0  0.54848  0.66935  0.12884  1.0000
  C   C4461     1.0  0.83156  0.53963  0.11052  1.0000
  C   C4462     1.0  0.83901  0.50464  0.08444  1.0000
  C   C4463     1.0  0.61282  0.49561  0.07901  1.0000
  C   C4464     1.0  0.93297  0.62191  0.14581  1.0000
  H   H3568     1.0  0.90141  0.78685  0.04236  1.0000
  Fe  Fe301     1.0  0.74509  0.48668  0.10879  1.0000
  H   H3569     1.0  0.52614  0.81833  0.97986  1.0000
  C   C4465     1.0  0.62784  0.49683  0.06637  1.0000
  H   H3570     1.0  0.85674  0.49896  0.08321  1.0000
  H   H3571     1.0  0.97757  0.81525  0.11143  1.0000
  C   C4466     1.0  0.57941  0.97114  0.97343  1.0000
  C   C4467     1.0  0.53179  0.60442  0.05998  1.0000
  C   C4468     1.0  0.53823  0.59164  0.07228  1.0000
  C   C4469     1.0  0.53432  0.60076  0.08469  1.0000
  C   C4470     1.0  0.52344  0.62247  0.08508  1.0000
  C   C4471     1.0  0.51701  0.63535  0.07278  1.0000
  C   C4472     1.0  0.52149  0.62642  0.06022  1.0000
  H   H3572     1.0  0.53979  0.59095  0.09406  1.0000
  C   C4473     1.0  0.51651  0.52637  0.98781  1.0000
  C   C4474     1.0  0.57665  0.65258  0.09274  1.0000
  C   C4475     1.0  0.51291  0.80191  0.10517  1.0000
  C   C4476     1.0  0.57555  0.54497  0.98858  1.0000
  C   C4477     1.0  0.58305  0.52227  0.99076  1.0000
  C   C4478     1.0  0.58812  0.51100  0.97921  1.0000
  C   C4479     1.0  0.89058  0.61334  0.96872  1.0000
  H   H3573     1.0  0.57179  0.55385  0.99736  1.0000
  C   C4480     1.0  0.77222  0.58714  0.09654  1.0000
  H   H3574     1.0  0.54645  0.57481  0.07220  1.0000
  H   H3575     1.0  0.75393  0.65953  0.13384  1.0000
  C   C4481     1.0  0.75294  0.73487  0.15819  1.0000
  C   C4482     1.0  0.57387  0.95790  0.01570  1.0000
  C   C4483     1.0  0.57670  0.94983  0.04055  1.0000
  H   H3576     1.0  0.63341  0.63435  0.08243  1.0000
  C   C4484     1.0  0.88133  0.74006  0.11052  1.0000
  C   C4485     1.0  0.63125  0.54321  0.16235  1.0000
  H   H3577     1.0  0.78734  0.67036  0.13926  1.0000
  C   C4486     1.0  0.74691  0.56061  0.10438  1.0000
  C   C4487     1.0  0.96321  0.79035  0.10572  1.0000
  H   H3578     1.0  0.76134  0.89663  0.16395  1.0000
  S   S600      1.0  0.58383  0.50015  0.07933  1.0000
  H   H3579     1.0  0.96729  0.92134  0.99803  1.0000
  C   C4488     1.0  0.58351  0.60741  0.12060  1.0000
  S   S601      1.0  0.78304  0.47964  0.10475  1.0000
  C   C4489     1.0  0.76632  0.52379  0.15353  1.0000
  H   H3580     1.0  0.62796  0.53440  0.99639  1.0000
  P   P146      1.0  0.86253  0.58146  0.97726  1.0000
  H   H3581     1.0  0.63849  0.56693  0.97921  1.0000
  C   C4490     1.0  0.50992  0.83031  0.99899  1.0000
  H   H3582     1.0  0.83192  0.96066  0.10384  1.0000
  C   C4491     1.0  0.56175  0.61871  0.12336  1.0000
  H   H3583     1.0  0.82788  0.51913  0.14551  1.0000
  C   C4492     1.0  0.50486  0.56181  0.10776  1.0000
  H   H3584     1.0  0.80296  0.96919  0.04389  1.0000
  H   H3585     1.0  0.97698  0.77735  0.10786  1.0000
  C   C4493     1.0  0.85410  0.53216  0.10627  1.0000
  C   C4494     1.0  0.51054  0.56895  0.11910  1.0000
  C   C4495     1.0  0.68850  0.59870  0.14534  1.0000
  C   C4496     1.0  0.82231  0.60626  0.98779  1.0000
  C   C4497     1.0  0.86432  0.57022  0.99550  1.0000
  C   C4498     1.0  0.87947  0.57650  0.00224  1.0000
  C   C4499     1.0  0.88001  0.56859  0.01651  1.0000
  C   C4500     1.0  0.86566  0.55418  0.02415  1.0000
  C   C4501     1.0  0.85070  0.54764  0.01749  1.0000
  C   C4502     1.0  0.84998  0.55563  0.00323  1.0000
  C   C4503     1.0  0.95568  0.48279  0.01509  1.0000
  C   C4504     1.0  0.82414  0.49082  0.09265  1.0000
  C   C4505     1.0  0.82029  0.94682  0.08890  1.0000
  Fe  Fe302     1.0  0.79260  0.76797  0.16058  1.0000
  C   C4506     1.0  0.59172  0.59115  0.13116  1.0000
  H   H3586     1.0  0.50484  0.92753  0.99165  1.0000
  H   H3587     1.0  0.59260  0.60810  0.07581  1.0000
  H   H3588     1.0  0.55465  0.63095  0.11543  1.0000
  H   H3589     1.0  0.59254  0.70694  0.12305  1.0000
  S   S602      1.0  0.49344  0.50226  0.04961  1.0000
  S   S603      1.0  0.56000  0.49290  0.04568  1.0000
  C   C4507     1.0  0.58612  0.63101  0.09069  1.0000
  H   H3590     1.0  0.55199  0.93977  0.03203  1.0000
  H   H3591     1.0  0.94932  0.89463  0.99061  1.0000
  C   C4508     1.0  0.83959  0.60405  0.97631  1.0000
  H   H3592     1.0  0.89104  0.58737  0.99656  1.0000
  H   H3593     1.0  0.89188  0.57336  0.02162  1.0000
  H   H3594     1.0  0.86622  0.54800  0.03521  1.0000
  H   H3595     1.0  0.83965  0.53640  0.02345  1.0000
  H   H3596     1.0  0.83815  0.55056  0.99827  1.0000
  H   H3597     1.0  0.63936  0.53125  0.08600  1.0000
  C   C4509     1.0  0.80478  0.62390  0.98693  1.0000
  H   H3598     1.0  0.97197  0.86093  0.98252  1.0000
  H   H3599     1.0  0.55422  0.67041  0.06282  1.0000
  H   H3600     1.0  0.82183  0.54831  0.10257  1.0000
  C   C4510     1.0  0.57372  0.55637  0.97491  1.0000
  S   S604      1.0  0.49148  0.66714  0.12916  1.0000
  H   H3601     1.0  0.82414  0.89201  0.08869  1.0000
  H   H3602     1.0  0.79843  0.58367  0.10849  1.0000
  H   H3603     1.0  0.57773  0.65834  0.10224  1.0000
  H   H3604     1.0  0.58990  0.69519  0.15926  1.0000
  H   H3605     1.0  0.86862  0.96296  0.05329  1.0000
  C   C4511     1.0  0.58090  0.68948  0.15268  1.0000
  H   H3606     1.0  0.66291  0.55267  0.09371  1.0000
  H   H3607     1.0  0.84342  0.88965  0.10861  1.0000
  C   C4512     1.0  0.49988  0.94277  0.05654  1.0000
  C   C4513     1.0  0.60218  0.69487  0.10337  1.0000
  C   C4514     1.0  0.63602  0.57888  0.09837  1.0000
  C   C4515     1.0  0.83243  0.97186  0.14769  1.0000
  H   H3608     1.0  0.62173  0.50064  0.05646  1.0000
  C   C4516     1.0  0.51672  0.85366  0.97630  1.0000
  H   H3609     1.0  0.57037  0.94282  0.05126  1.0000
  C   C4517     1.0  0.63728  0.55863  0.15051  1.0000
  C   C4518     1.0  0.83087  0.94560  0.10038  1.0000
  H   H3610     1.0  0.89126  0.78021  0.06822  1.0000
  C   C4519     1.0  0.96710  0.89151  0.99049  1.0000
  H   H3611     1.0  0.52557  0.96343  0.98453  1.0000
  C   C4520     1.0  0.54170  0.47900  0.00305  1.0000
  H   H3612     1.0  0.88995  0.70666  0.14532  1.0000
  C   C4521     1.0  0.92310  0.94207  0.10781  1.0000
  C   C4522     1.0  0.51844  0.83272  0.98460  1.0000
  H   H3613     1.0  0.79429  0.88219  0.11593  1.0000
  H   H3614     1.0  0.51338  0.51829  0.99863  1.0000
  H   H3615     1.0  0.57182  0.63278  0.05866  1.0000
  C   C4523     1.0  0.93229  0.82085  0.05009  1.0000
  C   C4524     1.0  0.90847  0.79530  0.04862  1.0000
  H   H3616     1.0  0.49844  0.57884  0.12574  1.0000
  C   C4525     1.0  0.90687  0.94984  0.09925  1.0000
  H   H3617     1.0  0.66238  0.49407  0.05674  1.0000
  H   H3618     1.0  0.49212  0.56510  0.05290  1.0000
  H   H3619     1.0  0.78406  0.61307  0.16392  1.0000
  C   C4526     1.0  0.98363  0.49100  0.96961  1.0000
  H   H3620     1.0  0.72202  0.55735  0.16256  1.0000
  C   C4527     1.0  0.65884  0.64826  0.10628  1.0000
  C   C4528     1.0  0.64393  0.48703  0.09198  1.0000
  P   P147      1.0  0.90496  0.79701  0.09042  1.0000
  C   C4529     1.0  0.90144  0.76839  0.09591  1.0000
  C   C4530     1.0  0.92746  0.80236  0.09784  1.0000
  C   C4531     1.0  0.92783  0.82379  0.10002  1.0000
  C   C4532     1.0  0.94580  0.82842  0.10495  1.0000
  C   C4533     1.0  0.81853  0.97545  0.04209  1.0000
  C   C4534     1.0  0.83531  0.96412  0.04962  1.0000
  C   C4535     1.0  0.94534  0.78566  0.10076  1.0000
  C   C4536     1.0  0.92329  0.80986  0.04203  1.0000
  H   H3621     1.0  0.96530  0.60024  0.05954  1.0000
  C   C4537     1.0  0.77468  0.66462  0.14773  1.0000
  C   C4538     1.0  0.87960  0.81479  0.09613  1.0000
  C   C4539     1.0  0.86510  0.82550  0.08671  1.0000
  C   C4540     1.0  0.84493  0.83819  0.09152  1.0000
  C   C4541     1.0  0.83900  0.84005  0.10576  1.0000
  C   C4542     1.0  0.85337  0.82949  0.11516  1.0000
  C   C4543     1.0  0.87373  0.81720  0.11034  1.0000
  H   H3622     1.0  0.91438  0.83701  0.09773  1.0000
  H   H3623     1.0  0.94606  0.84499  0.10653  1.0000
  C   C4544     1.0  0.97980  0.87243  0.98604  1.0000
  H   H3624     1.0  0.86360  0.95490  0.13855  1.0000
  H   H3625     1.0  0.94579  0.76898  0.09920  1.0000
  H   H3626     1.0  0.89570  0.70655  0.10843  1.0000
  C   C4545     1.0  0.86712  0.51999  0.11607  1.0000
  H   H3627     1.0  0.93370  0.82593  0.07077  1.0000
  H   H3628     1.0  0.74408  0.58695  0.08681  1.0000
  H   H3629     1.0  0.83363  0.84617  0.08429  1.0000
  H   H3630     1.0  0.82311  0.84934  0.10959  1.0000
  H   H3631     1.0  0.84846  0.83028  0.12627  1.0000
  H   H3632     1.0  0.88456  0.80886  0.11778  1.0000
  S   S605      1.0  0.61516  0.65394  0.15091  1.0000
  H   H3633     1.0  0.52137  0.57758  0.96913  1.0000
  C   C4546     1.0  0.85821  0.56048  0.96821  1.0000
  C   C4547     1.0  0.80433  0.63946  0.97463  1.0000
  C   C4548     1.0  0.53039  0.77390  0.05016  1.0000
  C   C4549     1.0  0.52215  0.75450  0.05055  1.0000
  C   C4550     1.0  0.52676  0.73625  0.06087  1.0000
  C   C4551     1.0  0.53961  0.73740  0.07080  1.0000
  C   C4552     1.0  0.54810  0.75674  0.07044  1.0000
  C   C4553     1.0  0.54310  0.77513  0.06016  1.0000
  P   P148      1.0  0.56099  0.75949  0.08476  1.0000
  C   C4554     1.0  0.57605  0.73364  0.09220  1.0000
  C   C4555     1.0  0.60060  0.69911  0.08908  1.0000
  C   C4556     1.0  0.58771  0.71850  0.08347  1.0000
  C   C4557     1.0  0.58159  0.77753  0.07913  1.0000
  C   C4558     1.0  0.58687  0.78864  0.08881  1.0000
  C   C4559     1.0  0.60332  0.80213  0.08464  1.0000
  C   C4560     1.0  0.61481  0.80437  0.07084  1.0000
  C   C4561     1.0  0.61000  0.79295  0.06123  1.0000
  C   C4562     1.0  0.59357  0.77941  0.06538  1.0000
  H   H3634     1.0  0.52582  0.78843  0.04263  1.0000
  H   H3635     1.0  0.51141  0.75390  0.04324  1.0000
  H   H3636     1.0  0.51948  0.72158  0.06157  1.0000
  H   H3637     1.0  0.54215  0.72352  0.07910  1.0000
  H   H3638     1.0  0.54806  0.79075  0.06025  1.0000
  H   H3639     1.0  0.60943  0.68738  0.08236  1.0000
  H   H3640     1.0  0.58700  0.72175  0.07233  1.0000
  S   S606      1.0  0.72696  0.49208  0.13036  1.0000
  H   H3641     1.0  0.51461  0.55806  0.99377  1.0000
  S   S607      1.0  0.97627  0.70650  0.09436  1.0000
  H   H3642     1.0  0.61913  0.79446  0.05058  1.0000
  H   H3643     1.0  0.59037  0.77032  0.05789  1.0000
  H   H3644     1.0  0.64928  0.64122  0.12875  1.0000
  C   C4563     1.0  0.74706  0.71798  0.15282  1.0000
  H   H3645     1.0  0.92841  0.65531  0.14970  1.0000
  C   C4564     1.0  0.81789  0.92747  0.08469  1.0000
  C   C4565     1.0  0.49968  0.84882  0.00507  1.0000
  H   H3646     1.0  0.48760  0.52444  0.12066  1.0000
  C   C4566     1.0  0.82659  0.90696  0.09171  1.0000
  H   H3647     1.0  0.91079  0.96020  0.08913  1.0000
  C   C4567     1.0  0.50650  0.87238  0.98234  1.0000
  C   C4568     1.0  0.64256  0.55073  0.97619  1.0000
  C   C4569     1.0  0.97740  0.90678  0.99447  1.0000
  H   H3648     1.0  0.73215  0.55459  0.10342  1.0000
  H   H3649     1.0  0.79156  0.62553  0.99585  1.0000
  H   H3650     1.0  0.60728  0.81073  0.09215  1.0000
  C   C4570     1.0  0.57343  0.63844  0.06809  1.0000
  C   C4571     1.0  0.97978  0.62266  0.06800  1.0000
  C   C4572     1.0  0.54837  0.55020  0.11390  1.0000
  P   P149      1.0  0.52010  0.48507  0.97996  1.0000
  H   H3651     1.0  0.82136  0.59182  0.15698  1.0000
  H   H3652     1.0  0.63550  0.93178  0.97532  1.0000
  H   H3653     1.0  0.50880  0.65217  0.07291  1.0000
  H   H3654     1.0  0.86542  0.74070  0.15134  1.0000
  C   C4573     1.0  0.83509  0.52296  0.13453  1.0000
  H   H3655     1.0  0.67262  0.65617  0.10684  1.0000
  H   H3656     1.0  0.86140  0.53548  0.09528  1.0000
  C   C4574     1.0  0.91439  0.72973  0.09413  1.0000
  Fe  Fe303     1.0  0.70140  0.48705  0.09841  1.0000
  P   P150      1.0  0.79314  0.54578  0.13077  1.0000
  H   H3657     1.0  0.92778  0.81265  0.03067  1.0000
  H   H3658     1.0  0.67503  0.59624  0.12722  1.0000
  H   H3659     1.0  0.94596  0.54285  0.96794  1.0000
  C   C4575     1.0  0.79942  0.96159  0.14295  1.0000
  H   H3660     1.0  0.55036  0.87845  0.97156  1.0000
  C   C4576     1.0  0.51501  0.95058  0.06261  1.0000
  C   C4577     1.0  0.88015  0.93115  0.11681  1.0000
  C   C4578     1.0  0.59967  0.57368  0.09534  1.0000
  C   C4579     1.0  0.77641  0.48411  0.14294  1.0000
  H   H3661     1.0  0.50764  0.81956  0.10417  1.0000
  C   C4580     1.0  0.55723  0.59856  0.14717  1.0000
  P   P151      1.0  0.50353  0.89934  0.97150  1.0000
  H   H3662     1.0  0.97205  0.79839  0.07139  1.0000
  C   C4581     1.0  0.63669  0.53242  0.98590  1.0000
  C   C4582     1.0  0.48776  0.92896  0.99027  1.0000
  C   C4583     1.0  0.83950  0.92508  0.10758  1.0000
  H   H3663     1.0  0.80698  0.95777  0.98818  1.0000
  C   C4584     1.0  0.57869  0.58684  0.14442  1.0000
  C   C4585     1.0  0.83709  0.86900  0.15080  1.0000
  C   C4586     1.0  0.85521  0.85286  0.14746  1.0000
  C   C4587     1.0  0.87258  0.85825  0.13667  1.0000
  C   C4588     1.0  0.87190  0.87983  0.12927  1.0000
  C   C4589     1.0  0.85398  0.89633  0.13280  1.0000
  C   C4590     1.0  0.83635  0.89060  0.14346  1.0000
  C   C4591     1.0  0.91788  0.92909  0.12094  1.0000
  C   C4592     1.0  0.89645  0.92377  0.12547  1.0000
  H   H3664     1.0  0.60240  0.96289  0.04655  1.0000
  H   H3665     1.0  0.85550  0.83602  0.15300  1.0000
  H   H3666     1.0  0.68083  0.61568  0.14555  1.0000
  H   H3667     1.0  0.88517  0.88354  0.12066  1.0000
  H   H3668     1.0  0.82176  0.90254  0.14600  1.0000
  Fe  Fe304     1.0  0.93256  0.51126  0.06657  1.0000
  H   H3669     1.0  0.93968  0.94622  0.10427  1.0000
  H   H3670     1.0  0.89260  0.91386  0.13573  1.0000
  C   C4593     1.0  0.78101  0.52234  0.14080  1.0000
  P   P152      1.0  0.88345  0.64927  0.11486  1.0000
  C   C4594     1.0  0.90184  0.63815  0.12757  1.0000
  C   C4595     1.0  0.86994  0.62779  0.11198  1.0000
  C   C4596     1.0  0.88149  0.61268  0.10321  1.0000
  C   C4597     1.0  0.87106  0.59639  0.10058  1.0000
  C   C4598     1.0  0.84900  0.59501  0.10670  1.0000
  C   C4599     1.0  0.83740  0.60978  0.11558  1.0000
  C   C4600     1.0  0.84782  0.62613  0.11824  1.0000
  C   C4601     1.0  0.90787  0.65220  0.13518  1.0000
  H   H3671     1.0  0.49424  0.92723  0.06117  1.0000
  C   C4602     1.0  0.78425  0.57692  0.10732  1.0000
  C   C4603     1.0  0.90022  0.65956  0.09849  1.0000
  C   C4604     1.0  0.93413  0.67267  0.08568  1.0000
  C   C4605     1.0  0.92765  0.67229  0.07294  1.0000
  C   C4606     1.0  0.90723  0.66612  0.07289  1.0000
  C   C4607     1.0  0.89348  0.65993  0.08560  1.0000
  H   H3672     1.0  0.89859  0.61354  0.09828  1.0000
  H   H3673     1.0  0.88016  0.58493  0.09369  1.0000
  H   H3674     1.0  0.84095  0.58257  0.10442  1.0000
  H   H3675     1.0  0.82027  0.60870  0.12030  1.0000
  H   H3676     1.0  0.83852  0.63750  0.12506  1.0000
  H   H3677     1.0  0.90123  0.66963  0.13375  1.0000
  C   C4608     1.0  0.92661  0.81717  0.06475  1.0000
  C   C4609     1.0  0.59105  0.71009  0.11202  1.0000
  H   H3678     1.0  0.93870  0.67634  0.06314  1.0000
  H   H3679     1.0  0.90235  0.66556  0.06301  1.0000
  H   H3680     1.0  0.87790  0.65485  0.08533  1.0000
  P   P153      1.0  0.85257  0.92389  0.12263  1.0000
  C   C4610     1.0  0.62096  0.49053  0.09179  1.0000
  H   H3681     1.0  0.88452  0.51400  0.11262  1.0000
  H   H3682     1.0  0.63643  0.49752  0.98951  1.0000
  H   H3683     1.0  0.59422  0.49349  0.98078  1.0000
  H   H3684     1.0  0.75526  0.57679  0.14143  1.0000
  C   C4611     1.0  0.53227  0.56341  0.12201  1.0000
  H   H3685     1.0  0.95020  0.67698  0.08569  1.0000
  C   C4612     1.0  0.80102  0.49784  0.09435  1.0000
  H   H3686     1.0  0.64471  0.55327  0.14055  1.0000
  C   C4613     1.0  0.75587  0.65858  0.14466  1.0000
  C   C4614     1.0  0.75917  0.55004  0.11497  1.0000
  C   C4615     1.0  0.83740  0.90572  0.10311  1.0000
  C   C4616     1.0  0.58488  0.62423  0.07809  1.0000
  H   H3687     1.0  0.59879  0.54387  0.08765  1.0000
  C   C4617     1.0  0.98500  0.80455  0.06332  1.0000
  H   H3688     1.0  0.58194  0.57922  0.09590  1.0000
  H   H3689     1.0  0.54718  0.59541  0.15746  1.0000
  P   P154      1.0  0.56096  0.95555  0.00122  1.0000
  C   C4618     1.0  0.54914  0.93032  0.00546  1.0000
  C   C4619     1.0  0.58225  0.95594  0.98575  1.0000
  C   C4620     1.0  0.60265  0.94182  0.98635  1.0000
  H   H3690     1.0  0.96579  0.63339  0.10143  1.0000
  Fe  Fe305     1.0  0.49992  0.66581  0.10597  1.0000
  H   H3691     1.0  0.55255  0.49001  0.99656  1.0000
  H   H3692     1.0  0.62761  0.81479  0.06764  1.0000
  C   C4621     1.0  0.52891  0.92952  0.01474  1.0000
  C   C4622     1.0  0.52021  0.90984  0.01895  1.0000
  C   C4623     1.0  0.53130  0.89087  0.01367  1.0000
  C   C4624     1.0  0.55104  0.89166  0.00403  1.0000
  C   C4625     1.0  0.55998  0.91130  0.99994  1.0000
  H   H3693     1.0  0.49823  0.75375  0.12416  1.0000
  C   C4626     1.0  0.56534  0.66677  0.08268  1.0000
  H   H3694     1.0  0.61785  0.62335  0.12780  1.0000
  H   H3695     1.0  0.94534  0.61581  0.15260  1.0000
  H   H3696     1.0  0.51660  0.63645  0.05072  1.0000
  C   C4627     1.0  0.76753  0.59614  0.15304  1.0000
  H   H3697     1.0  0.56521  0.54596  0.11610  1.0000
  H   H3698     1.0  0.81719  0.71847  0.13382  1.0000
  C   C4628     1.0  0.78596  0.50238  0.13556  1.0000
  H   H3699     1.0  0.55416  0.71711  0.15330  1.0000
  C   C4629     1.0  0.72628  0.71091  0.15779  1.0000
  H   H3700     1.0  0.60544  0.93048  0.99592  1.0000
  S   S608      1.0  0.77829  0.85033  0.16627  1.0000
  C   C4630     1.0  0.63418  0.58094  0.15158  1.0000
  H   H3701     1.0  0.57841  0.78675  0.09962  1.0000
  H   H3702     1.0  0.52006  0.94402  0.01902  1.0000
  H   H3703     1.0  0.50495  0.90933  0.02647  1.0000
  C   C4631     1.0  0.83092  0.52577  0.07790  1.0000
  H   H3704     1.0  0.55954  0.87696  0.99988  1.0000
  H   H3705     1.0  0.57533  0.91143  0.99258  1.0000
  P   P155      1.0  0.60113  0.61327  0.10378  1.0000
  S   S609      1.0  0.67399  0.66219  0.15608  1.0000
  H   H3706     1.0  0.82578  0.56292  0.14254  1.0000
  C   C4632     1.0  0.53148  0.79338  0.09613  1.0000
  C   C4633     1.0  0.49211  0.95513  0.04450  1.0000
  C   C4634     1.0  0.54276  0.54252  0.10286  1.0000
  H   H3707     1.0  0.79076  0.65315  0.97401  1.0000
  H   H3708     1.0  0.86802  0.73543  0.11888  1.0000
  C   C4635     1.0  0.60908  0.55368  0.09073  1.0000
  C   C4636     1.0  0.56065  0.70185  0.14929  1.0000
  H   H3709     1.0  0.49556  0.76414  0.08636  1.0000
  C   C4637     1.0  0.63193  0.54641  0.08987  1.0000
  H   H3710     1.0  0.53205  0.62345  0.13863  1.0000
  H   H3711     1.0  0.75356  0.53585  0.12200  1.0000
  C   C4638     1.0  0.83591  0.94363  0.13323  1.0000
  C   C4639     1.0  0.80929  0.97439  0.14931  1.0000
  H   H3712     1.0  0.90184  0.97465  0.12754  1.0000
  H   H3713     1.0  0.96949  0.54461  0.08218  1.0000
  C   C4640     1.0  0.82197  0.53552  0.12475  1.0000
  S   S610      1.0  0.90978  0.51539  0.05069  1.0000
  H   H3714     1.0  0.86910  0.82384  0.07572  1.0000
  C   C4641     1.0  0.90283  0.79151  0.06328  1.0000
  C   C4642     1.0  0.91661  0.75192  0.08971  1.0000
  C   C4643     1.0  0.80779  0.53286  0.07970  1.0000
  C   C4644     1.0  0.56622  0.94823  0.02954  1.0000
  C   C4645     1.0  0.54873  0.61436  0.13661  1.0000
  C   C4646     1.0  0.88363  0.76226  0.10628  1.0000
  H   H3715     1.0  0.55520  0.53223  0.09654  1.0000
  S   S611      1.0  0.68796  0.48406  0.07915  1.0000
  H   H3716     1.0  0.80852  0.92836  0.07636  1.0000
  H   H3717     1.0  0.77734  0.60142  0.08934  1.0000
  C   C4647     1.0  0.56353  0.65965  0.07043  1.0000
  C   C4648     1.0  0.62324  0.62744  0.10500  1.0000
  C   C4649     1.0  0.68520  0.58765  0.13497  1.0000
  H   H3718     1.0  0.79688  0.50103  0.12560  1.0000
  C   C4650     1.0  0.49035  0.79572  0.07279  1.0000
  H   H3719     1.0  0.64680  0.58802  0.10152  1.0000
  H   H3720     1.0  0.61208  0.67986  0.10780  1.0000
  C   C4651     1.0  0.62785  0.62954  0.11805  1.0000
  C   C4652     1.0  0.49796  0.86976  0.99678  1.0000
  C   C4653     1.0  0.88551  0.94442  0.10370  1.0000
  C   C4654     1.0  0.64567  0.63981  0.11864  1.0000
  H   H3721     1.0  0.80475  0.93667  0.13005  1.0000
  C   C4655     1.0  0.51681  0.54908  0.98511  1.0000
  C   C4656     1.0  0.64529  0.55873  0.09398  1.0000
  C   C4657     1.0  0.85758  0.51528  0.13020  1.0000
  H   H3722     1.0  0.93471  0.59061  0.13937  1.0000
  H   H3723     1.0  0.54011  0.80465  0.08805  1.0000
  Fe  Fe306     1.0  0.63811  0.65912  0.16507  1.0000
  H   H3724     1.0  0.63404  0.52587  0.16152  1.0000
  H   H3725     1.0  0.55770  0.68318  0.08452  1.0000
  C   C4658     1.0  0.61975  0.94258  0.97474  1.0000
  H   H3726     1.0  0.52092  0.94097  0.07193  1.0000
  C   C4659     1.0  0.80936  0.57184  0.14548  1.0000
  C   C4660     1.0  0.98652  0.95800  0.98431  1.0000
  C   C4661     1.0  0.65425  0.64641  0.09325  1.0000
  H   H3727     1.0  0.83200  0.68753  0.15105  1.0000
  C   C4662     1.0  0.63655  0.63600  0.09260  1.0000
  C   C4663     1.0  0.89684  0.72379  0.10459  1.0000
  C   C4664     1.0  0.73950  0.65127  0.15559  1.0000
  H   H3728     1.0  0.87337  0.95069  0.09681  1.0000
  H   H3729     1.0  0.48910  0.54907  0.07797  1.0000
  H   H3730     1.0  0.87794  0.62396  0.97464  1.0000
  H   H3731     1.0  0.53667  0.56954  0.13048  1.0000
  H   H3732     1.0  0.93046  0.92315  0.12760  1.0000
  H   H3733     1.0  0.56840  0.57403  0.97327  1.0000
  C   C4665     1.0  0.52597  0.75630  0.10726  1.0000
  H   H3734     1.0  0.98454  0.50754  0.07630  1.0000
  C   C4666     1.0  0.76985  0.57977  0.14481  1.0000
  C   C4667     1.0  0.80697  0.58837  0.15363  1.0000
  Fe  Fe307     1.0  0.76512  0.96534  0.11047  1.0000
  Fe  Fe308     1.0  0.79360  0.81437  0.16565  1.0000
  C   C4668     1.0  0.88792  0.59161  0.96857  1.0000
  C   C4669     1.0  0.85576  0.97154  0.04729  1.0000
  C   C4670     1.0  0.75663  0.50551  0.16084  1.0000
  H   H3735     1.0  0.98525  0.94672  0.97756  1.0000
  C   C4671     1.0  0.65898  0.48848  0.07935  1.0000
  H   H3736     1.0  0.75127  0.60541  0.15602  1.0000
  H   H3737     1.0  0.49286  0.84693  0.01621  1.0000
  H   H3738     1.0  0.76206  0.53896  0.15779  1.0000
  C   C4672     1.0  0.76168  0.48567  0.15556  1.0000
  C   C4673     1.0  0.81242  0.97219  0.99010  1.0000
  H   H3739     1.0  0.79223  0.97179  0.01053  1.0000
  C   C4674     1.0  0.77695  0.66368  0.16172  1.0000
  C   C4675     1.0  0.49971  0.97520  0.03856  1.0000
  H   H3740     1.0  0.64997  0.48320  0.10189  1.0000
  H   H3741     1.0  0.62376  0.60521  0.16506  1.0000
  C   C4676     1.0  0.54978  0.89600  0.96820  1.0000
  C   C4677     1.0  0.49365  0.48031  0.97714  1.0000
  C   C4678     1.0  0.65186  0.50897  0.96831  1.0000
  C   C4679     1.0  0.52941  0.91015  0.96768  1.0000
  Fe  Fe309     1.0  0.64134  0.61112  0.31523  1.0000
  S   S612      1.0  0.66043  0.58094  0.30660  1.0000
  S   S613      1.0  0.60442  0.61143  0.32326  1.0000
  Fe  Fe310     1.0  0.68292  0.63306  0.31080  1.0000
  S   S614      1.0  0.70516  0.60432  0.30225  1.0000
  S   S615      1.0  0.69116  0.66686  0.31142  1.0000
  Fe  Fe311     1.0  0.67799  0.60485  0.28991  1.0000
  S   S616      1.0  0.68850  0.60167  0.26678  1.0000
  Fe  Fe312     1.0  0.68579  0.58260  0.31959  1.0000
  S   S617      1.0  0.70097  0.55327  0.33451  1.0000
  S   S618      1.0  0.65686  0.63478  0.29744  1.0000
  S   S619      1.0  0.66560  0.61154  0.32925  1.0000
  Fe  Fe313     1.0  0.64711  0.65024  0.19576  1.0000
  S   S620      1.0  0.68332  0.65165  0.18888  1.0000
  S   S621      1.0  0.63080  0.64592  0.21879  1.0000
  C   C4680     1.0  0.56784  0.56814  0.20438  1.0000
  S   S622      1.0  0.63577  0.68094  0.18113  1.0000
  C   C4681     1.0  0.67255  0.57550  0.20142  1.0000
  Fe  Fe314     1.0  0.95767  0.71547  0.35185  1.0000
  S   S623      1.0  0.92236  0.71036  0.35237  1.0000
  S   S624      1.0  0.97197  0.74369  0.33779  1.0000
  C   C4682     1.0  0.54576  0.76621  0.35268  1.0000
  S   S625      1.0  0.81332  0.75526  0.20843  1.0000
  Fe  Fe315     1.0  0.79320  0.72849  0.30740  1.0000
  S   S626      1.0  0.81776  0.73835  0.28807  1.0000
  S   S627      1.0  0.78507  0.69352  0.31181  1.0000
  Fe  Fe316     1.0  0.79074  0.77205  0.31802  1.0000
  S   S628      1.0  0.81419  0.78522  0.29924  1.0000
  S   S629      1.0  0.78007  0.78834  0.33748  1.0000
  Fe  Fe317     1.0  0.79540  0.77107  0.28667  1.0000
  S   S630      1.0  0.78438  0.79101  0.26660  1.0000
  Fe  Fe318     1.0  0.83443  0.75146  0.30236  1.0000
  S   S631      1.0  0.87187  0.74873  0.30027  1.0000
  S   S632      1.0  0.76982  0.76064  0.30536  1.0000
  S   S633      1.0  0.81194  0.73888  0.32174  1.0000
  Fe  Fe319     1.0  0.76125  0.90933  0.35092  1.0000
  S   S634      1.0  0.76821  0.89265  0.33168  1.0000
  S   S635      1.0  0.82486  0.80337  0.17504  1.0000
  S   S636      1.0  0.78768  0.92442  0.35671  1.0000
  S   S637      1.0  0.73496  0.93949  0.35247  1.0000
  C   C4683     1.0  0.58064  0.61593  0.18019  1.0000
  Fe  Fe320     1.0  0.80905  0.77412  0.18664  1.0000
  H   H3742     1.0  0.82376  0.97506  0.36329  1.0000
  C   C4684     1.0  0.76020  0.65703  0.17274  1.0000
  Fe  Fe321     1.0  0.98176  0.75024  0.35725  1.0000
  C   C4685     1.0  0.77775  0.81730  0.33564  1.0000
  C   C4686     1.0  0.77452  0.82710  0.34771  1.0000
  C   C4687     1.0  0.77209  0.85012  0.34661  1.0000
  C   C4688     1.0  0.77262  0.86358  0.33343  1.0000
  C   C4689     1.0  0.77632  0.85376  0.32134  1.0000
  C   C4690     1.0  0.77893  0.83070  0.32243  1.0000
  H   H3743     1.0  0.77385  0.81692  0.35794  1.0000
  H   H3744     1.0  0.76934  0.85747  0.35597  1.0000
  H   H3745     1.0  0.77685  0.86404  0.31110  1.0000
  H   H3746     1.0  0.78144  0.82335  0.31305  1.0000
  C   C4691     1.0  0.80461  0.76548  0.22447  1.0000
  C   C4692     1.0  0.78941  0.78482  0.22565  1.0000
  C   C4693     1.0  0.78332  0.79250  0.23862  1.0000
  C   C4694     1.0  0.79208  0.78068  0.25054  1.0000
  C   C4695     1.0  0.80691  0.76108  0.24939  1.0000
  C   C4696     1.0  0.81323  0.75361  0.23639  1.0000
  H   H3747     1.0  0.78234  0.79383  0.21659  1.0000
  H   H3748     1.0  0.77176  0.80765  0.23942  1.0000
  H   H3749     1.0  0.81382  0.75182  0.25843  1.0000
  H   H3750     1.0  0.82510  0.73871  0.23554  1.0000
  C   C4697     1.0  0.90855  0.72255  0.33797  1.0000
  C   C4698     1.0  0.92024  0.72919  0.32459  1.0000
  C   C4699     1.0  0.90875  0.73758  0.31319  1.0000
  C   C4700     1.0  0.88550  0.73953  0.31507  1.0000
  C   C4701     1.0  0.87377  0.73356  0.32855  1.0000
  C   C4702     1.0  0.88528  0.72498  0.33991  1.0000
  H   H3751     1.0  0.93818  0.72738  0.32295  1.0000
  H   H3752     1.0  0.91797  0.74221  0.30281  1.0000
  H   H3753     1.0  0.85590  0.73512  0.33015  1.0000
  H   H3754     1.0  0.87616  0.72026  0.35027  1.0000
  H   H3755     1.0  0.92717  0.65730  0.36649  1.0000
  H   H3756     1.0  0.49178  0.96767  0.33482  1.0000
  H   H3757     1.0  0.55196  0.52338  0.22727  1.0000
  C   C4703     1.0  0.71777  0.67388  0.31062  1.0000
  C   C4704     1.0  0.73658  0.65786  0.31203  1.0000
  C   C4705     1.0  0.75711  0.66418  0.31220  1.0000
  C   C4706     1.0  0.75911  0.68653  0.31082  1.0000
  C   C4707     1.0  0.74044  0.70258  0.30899  1.0000
  C   C4708     1.0  0.71986  0.69624  0.30900  1.0000
  H   H3758     1.0  0.73520  0.64060  0.31331  1.0000
  H   H3759     1.0  0.77148  0.65166  0.31356  1.0000
  H   H3760     1.0  0.74174  0.71984  0.30782  1.0000
  H   H3761     1.0  0.70541  0.70874  0.30789  1.0000
  C   C4709     1.0  0.67239  0.61485  0.25362  1.0000
  C   C4710     1.0  0.65056  0.62538  0.25697  1.0000
  C   C4711     1.0  0.63798  0.63493  0.24622  1.0000
  C   C4712     1.0  0.64730  0.63448  0.23202  1.0000
  C   C4713     1.0  0.66931  0.62438  0.22867  1.0000
  C   C4714     1.0  0.68167  0.61436  0.23944  1.0000
  H   H3762     1.0  0.64327  0.62572  0.26785  1.0000
  H   H3763     1.0  0.62094  0.64254  0.24893  1.0000
  H   H3764     1.0  0.67665  0.62385  0.21780  1.0000
  H   H3765     1.0  0.69853  0.60617  0.23676  1.0000
  C   C4715     1.0  0.69989  0.52531  0.33398  1.0000
  C   C4716     1.0  0.70464  0.50899  0.34552  1.0000
  C   C4717     1.0  0.73781  0.74473  0.16855  1.0000
  C   C4718     1.0  0.87798  0.62843  0.36477  1.0000
  C   C4719     1.0  0.69542  0.49646  0.32188  1.0000
  C   C4720     1.0  0.69494  0.51894  0.32223  1.0000
  H   H3766     1.0  0.70815  0.51376  0.35474  1.0000
  C   C4721     1.0  0.72198  0.67632  0.19832  1.0000
  H   H3767     1.0  0.69203  0.49169  0.31263  1.0000
  H   H3768     1.0  0.69120  0.53130  0.31329  1.0000
  C   C4722     1.0  0.58787  0.63476  0.32961  1.0000
  C   C4723     1.0  0.56524  0.63434  0.33507  1.0000
  C   C4724     1.0  0.55185  0.65243  0.34068  1.0000
  C   C4725     1.0  0.56110  0.67102  0.34084  1.0000
  C   C4726     1.0  0.58354  0.67160  0.33507  1.0000
  C   C4727     1.0  0.59692  0.65358  0.32948  1.0000
  H   H3769     1.0  0.55814  0.61985  0.33510  1.0000
  H   H3770     1.0  0.53453  0.65188  0.34501  1.0000
  C   C4728     1.0  0.79989  0.61880  0.19247  1.0000
  H   H3771     1.0  0.61425  0.65419  0.32515  1.0000
  S   S638      1.0  0.70659  0.60166  0.16822  1.0000
  C   C4729     1.0  0.56565  0.75220  0.34890  1.0000
  C   C4730     1.0  0.62220  0.55010  0.17527  1.0000
  H   H3772     1.0  0.88290  0.76034  0.17361  1.0000
  H   H3773     1.0  0.61810  0.53783  0.18435  1.0000
  C   C4731     1.0  0.57693  0.48045  0.35054  1.0000
  C   C4732     1.0  0.79311  0.66688  0.20444  1.0000
  C   C4733     1.0  0.55387  0.55385  0.21274  1.0000
  H   H3774     1.0  0.57949  0.59610  0.29481  1.0000
  C   C4734     1.0  0.81187  0.62467  0.35131  1.0000
  C   C4735     1.0  0.89080  0.95096  0.35977  1.0000
  C   C4736     1.0  0.91768  0.77338  0.35180  1.0000
  C   C4737     1.0  0.55275  0.74898  0.32772  1.0000
  Fe  Fe322     1.0  0.67248  0.68149  0.17349  1.0000
  H   H3775     1.0  0.54438  0.48120  0.34576  1.0000
  C   C4738     1.0  0.89965  0.77420  0.34510  1.0000
  C   C4739     1.0  0.56282  0.53440  0.22076  1.0000
  C   C4740     1.0  0.75964  0.48619  0.33316  1.0000
  H   H3776     1.0  0.81867  0.55061  0.33505  1.0000
  C   C4741     1.0  0.69931  0.66988  0.22132  1.0000
  C   C4742     1.0  0.70247  0.68170  0.20766  1.0000
  P   P156      1.0  0.76417  0.65320  0.19078  1.0000
  H   H3777     1.0  0.51397  0.78192  0.34722  1.0000
  C   C4743     1.0  0.64725  0.58058  0.22303  1.0000
  C   C4744     1.0  0.87663  0.65132  0.36037  1.0000
  H   H3778     1.0  0.71555  0.82282  0.32914  1.0000
  C   C4745     1.0  0.73844  0.65902  0.20256  1.0000
  C   C4746     1.0  0.58503  0.64639  0.19636  1.0000
  C   C4747     1.0  0.59686  0.81599  0.36343  1.0000
  C   C4748     1.0  0.76277  0.55611  0.33673  1.0000
  H   H3779     1.0  0.70513  0.74591  0.18120  1.0000
  H   H3780     1.0  0.91767  0.87554  0.21001  1.0000
  H   H3781     1.0  0.74494  0.50684  0.17050  1.0000
  H   H3782     1.0  0.81354  0.74386  0.35529  1.0000
  H   H3783     1.0  0.68387  0.67360  0.22840  1.0000
  H   H3784     1.0  0.68959  0.69476  0.20414  1.0000
  C   C4749     1.0  0.77909  0.69362  0.18555  1.0000
  H   H3785     1.0  0.74202  0.75793  0.17264  1.0000
  C   C4750     1.0  0.59176  0.77296  0.36178  1.0000
  C   C4751     1.0  0.53306  0.76305  0.33152  1.0000
  C   C4752     1.0  0.79080  0.70894  0.18811  1.0000
  H   H3786     1.0  0.81058  0.63129  0.18929  1.0000
  C   C4753     1.0  0.58825  0.68229  0.25616  1.0000
  C   C4754     1.0  0.78413  0.56166  0.33345  1.0000
  P   P157      1.0  0.61936  0.47897  0.35636  1.0000
  S   S639      1.0  0.64642  0.62836  0.18040  1.0000
  H   H3787     1.0  0.53606  0.55793  0.21304  1.0000
  H   H3788     1.0  0.89340  0.81705  0.35192  1.0000
  H   H3789     1.0  0.80336  0.56290  0.19943  1.0000
  H   H3790     1.0  0.55309  0.72737  0.27340  1.0000
  C   C4755     1.0  0.76324  0.60819  0.19778  1.0000
  C   C4756     1.0  0.71595  0.65306  0.22578  1.0000
  H   H3791     1.0  0.61757  0.53910  0.21189  1.0000
  H   H3792     1.0  0.74830  0.63479  0.22016  1.0000
  C   C4757     1.0  0.62785  0.69258  0.34664  1.0000
  H   H3793     1.0  0.56053  0.58314  0.19831  1.0000
  C   C4758     1.0  0.71514  0.85366  0.35974  1.0000
  C   C4759     1.0  0.89283  0.94794  0.33535  1.0000
  C   C4760     1.0  0.77728  0.51979  0.34852  1.0000
  C   C4761     1.0  0.48735  0.95975  0.34559  1.0000
  H   H3794     1.0  0.65418  0.54592  0.33883  1.0000
  H   H3795     1.0  0.51771  0.74690  0.28455  1.0000
  C   C4762     1.0  0.57193  0.65289  0.18579  1.0000
  H   H3796     1.0  0.63206  0.68211  0.27441  1.0000
  H   H3797     1.0  0.56396  0.66987  0.18358  1.0000
  H   H3798     1.0  0.87142  0.69800  0.29461  1.0000
  C   C4763     1.0  0.73461  0.76372  0.27785  1.0000
  C   C4764     1.0  0.71320  0.76270  0.28537  1.0000
  C   C4765     1.0  0.70149  0.74666  0.28379  1.0000
  C   C4766     1.0  0.71122  0.73158  0.27472  1.0000
  C   C4767     1.0  0.73287  0.73235  0.26720  1.0000
  C   C4768     1.0  0.74445  0.74862  0.26882  1.0000
  P   P158      1.0  0.74579  0.71260  0.25569  1.0000
  C   C4769     1.0  0.73148  0.68893  0.26106  1.0000
  C   C4770     1.0  0.74473  0.72460  0.23747  1.0000
  C   C4771     1.0  0.74730  0.74676  0.23262  1.0000
  C   C4772     1.0  0.74785  0.75569  0.21838  1.0000
  C   C4773     1.0  0.74580  0.74263  0.20886  1.0000
  C   C4774     1.0  0.74346  0.72053  0.21354  1.0000
  C   C4775     1.0  0.74333  0.71141  0.22772  1.0000
  C   C4776     1.0  0.71227  0.68852  0.25563  1.0000
  C   C4777     1.0  0.70049  0.67080  0.26033  1.0000
  C   C4778     1.0  0.70755  0.65359  0.27064  1.0000
  C   C4779     1.0  0.72631  0.65408  0.27630  1.0000
  C   C4780     1.0  0.73823  0.67167  0.27157  1.0000
  C   C4781     1.0  0.77464  0.70461  0.25774  1.0000
  C   C4782     1.0  0.78070  0.70162  0.27109  1.0000
  C   C4783     1.0  0.80302  0.69573  0.27269  1.0000
  C   C4784     1.0  0.81949  0.69306  0.26097  1.0000
  C   C4785     1.0  0.81364  0.69606  0.24764  1.0000
  C   C4786     1.0  0.79131  0.70183  0.24600  1.0000
  H   H3799     1.0  0.74367  0.77619  0.27908  1.0000
  H   H3800     1.0  0.70577  0.77433  0.29245  1.0000
  H   H3801     1.0  0.68494  0.74574  0.28969  1.0000
  H   H3802     1.0  0.70185  0.71918  0.27384  1.0000
  H   H3803     1.0  0.76118  0.74959  0.26321  1.0000
  H   H3804     1.0  0.74941  0.75711  0.23971  1.0000
  H   H3805     1.0  0.75023  0.77269  0.21466  1.0000
  H   H3806     1.0  0.74632  0.74958  0.19783  1.0000
  H   H3807     1.0  0.74206  0.71042  0.20610  1.0000
  H   H3808     1.0  0.74244  0.69402  0.23098  1.0000
  H   H3809     1.0  0.70615  0.70205  0.24794  1.0000
  H   H3810     1.0  0.68574  0.67041  0.25612  1.0000
  H   H3811     1.0  0.69833  0.63997  0.27439  1.0000
  H   H3812     1.0  0.73138  0.64099  0.28458  1.0000
  H   H3813     1.0  0.75233  0.67185  0.27642  1.0000
  H   H3814     1.0  0.76821  0.70390  0.28030  1.0000
  H   H3815     1.0  0.80751  0.69344  0.28304  1.0000
  H   H3816     1.0  0.83679  0.68885  0.26223  1.0000
  H   H3817     1.0  0.82642  0.69440  0.23851  1.0000
  H   H3818     1.0  0.78726  0.70448  0.23553  1.0000
  H   H3819     1.0  0.60772  0.71233  0.22489  1.0000
  C   C4787     1.0  0.79595  0.58014  0.19798  1.0000
  H   H3820     1.0  0.59274  0.51412  0.22664  1.0000
  H   H3821     1.0  0.86498  0.77186  0.34781  1.0000
  H   H3822     1.0  0.49738  0.87290  0.36076  1.0000
  H   H3823     1.0  0.66249  0.68920  0.33729  1.0000
  H   H3824     1.0  0.83464  0.80047  0.36489  1.0000
  H   H3825     1.0  0.59059  0.68613  0.33485  1.0000
  H   H3826     1.0  0.82738  0.59200  0.19297  1.0000
  H   H3827     1.0  0.58727  0.65829  0.20241  1.0000
  H   H3828     1.0  0.97689  0.65456  0.30738  1.0000
  H   H3829     1.0  0.54630  0.66304  0.29119  1.0000
  S   S640      1.0  0.54553  0.69408  0.34801  1.0000
  C   C4788     1.0  0.63269  0.57946  0.20201  1.0000
  H   H3830     1.0  0.89228  0.79798  0.16900  1.0000
  C   C4789     1.0  0.52952  0.77156  0.34403  1.0000
  C   C4790     1.0  0.71690  0.73791  0.17336  1.0000
  H   H3831     1.0  0.81290  0.71512  0.20067  1.0000
  C   C4791     1.0  0.77286  0.58597  0.19962  1.0000
  C   C4792     1.0  0.64822  0.70008  0.34180  1.0000
  H   H3832     1.0  0.52027  0.76686  0.32497  1.0000
  H   H3833     1.0  0.61790  0.64860  0.28424  1.0000
  H   H3834     1.0  0.95379  0.82861  0.36738  1.0000
  H   H3835     1.0  0.74876  0.56778  0.33334  1.0000
  H   H3836     1.0  0.65660  0.70442  0.30605  1.0000
  H   H3837     1.0  0.58365  0.51732  0.35950  1.0000
  S   S641      1.0  0.77674  0.78607  0.17859  1.0000
  C   C4793     1.0  0.88511  0.68646  0.31370  1.0000
  H   H3838     1.0  0.83319  0.69227  0.30597  1.0000
  C   C4794     1.0  0.49824  0.93734  0.36687  1.0000
  C   C4795     1.0  0.80947  0.59654  0.19437  1.0000
  H   H3839     1.0  0.72090  0.88164  0.34359  1.0000
  C   C4796     1.0  0.79444  0.62800  0.36244  1.0000
  C   C4797     1.0  0.71809  0.86464  0.34585  1.0000
  C   C4798     1.0  0.50390  0.94734  0.35294  1.0000
  C   C4799     1.0  0.91338  0.64918  0.36615  1.0000
  C   C4800     1.0  0.54658  0.72153  0.28426  1.0000
  H   H3840     1.0  0.70903  0.80359  0.35366  1.0000
  H   H3841     1.0  0.68280  0.57756  0.22075  1.0000
  C   C4801     1.0  0.65457  0.57629  0.19465  1.0000
  C   C4802     1.0  0.86805  0.69131  0.30570  1.0000
  H   H3842     1.0  0.88773  0.88244  0.19556  1.0000
  H   H3843     1.0  0.79353  0.65095  0.21116  1.0000
  H   H3844     1.0  0.82450  0.70945  0.34546  1.0000
  H   H3845     1.0  0.72413  0.68562  0.18777  1.0000
  Fe  Fe323     1.0  0.68179  0.63228  0.17221  1.0000
  C   C4803     1.0  0.56064  0.62892  0.29331  1.0000
  C   C4804     1.0  0.87880  0.77167  0.35307  1.0000
  C   C4805     1.0  0.84649  0.68829  0.31213  1.0000
  C   C4806     1.0  0.84347  0.78827  0.25899  1.0000
  C   C4807     1.0  0.86056  0.77055  0.26102  1.0000
  C   C4808     1.0  0.87684  0.76535  0.24967  1.0000
  C   C4809     1.0  0.87608  0.77795  0.23629  1.0000
  C   C4810     1.0  0.85885  0.79576  0.23415  1.0000
  C   C4811     1.0  0.84251  0.80079  0.24562  1.0000
  P   P159      1.0  0.85905  0.81298  0.21706  1.0000
  C   C4812     1.0  0.83171  0.82837  0.21537  1.0000
  C   C4813     1.0  0.87784  0.83263  0.21483  1.0000
  C   C4814     1.0  0.89484  0.82885  0.22295  1.0000
  C   C4815     1.0  0.90914  0.84429  0.22119  1.0000
  C   C4816     1.0  0.90661  0.86359  0.21132  1.0000
  C   C4817     1.0  0.88976  0.86747  0.20319  1.0000
  C   C4818     1.0  0.87543  0.85207  0.20493  1.0000
  C   C4819     1.0  0.81836  0.82204  0.20741  1.0000
  C   C4820     1.0  0.79812  0.83511  0.20503  1.0000
  C   C4821     1.0  0.79071  0.85421  0.21099  1.0000
  C   C4822     1.0  0.80357  0.86030  0.21932  1.0000
  C   C4823     1.0  0.82406  0.84751  0.22145  1.0000
  C   C4824     1.0  0.86766  0.79602  0.20342  1.0000
  C   C4825     1.0  0.86234  0.77465  0.20587  1.0000
  C   C4826     1.0  0.86803  0.76177  0.19520  1.0000
  C   C4827     1.0  0.87898  0.77014  0.18198  1.0000
  C   C4828     1.0  0.77668  0.62475  0.19444  1.0000
  C   C4829     1.0  0.87863  0.80435  0.19006  1.0000
  H   H3846     1.0  0.83071  0.79218  0.26776  1.0000
  H   H3847     1.0  0.86115  0.76085  0.27141  1.0000
  H   H3848     1.0  0.89009  0.75160  0.25128  1.0000
  H   H3849     1.0  0.88901  0.77389  0.22763  1.0000
  H   H3850     1.0  0.82881  0.81414  0.24436  1.0000
  H   H3851     1.0  0.89709  0.81411  0.23070  1.0000
  H   H3852     1.0  0.92217  0.84129  0.22753  1.0000
  H   H3853     1.0  0.63391  0.75191  0.34954  1.0000
  H   H3854     1.0  0.89411  0.67588  0.33404  1.0000
  H   H3855     1.0  0.86245  0.85532  0.19853  1.0000
  H   H3856     1.0  0.82340  0.80689  0.20316  1.0000
  H   H3857     1.0  0.78810  0.83033  0.19859  1.0000
  H   H3858     1.0  0.77492  0.86417  0.20919  1.0000
  H   H3859     1.0  0.79766  0.87497  0.22409  1.0000
  H   H3860     1.0  0.83394  0.85254  0.22782  1.0000
  H   H3861     1.0  0.85318  0.76810  0.21590  1.0000
  H   H3862     1.0  0.86326  0.74555  0.19708  1.0000
  H   H3863     1.0  0.64445  0.58287  0.23393  1.0000
  H   H3864     1.0  0.61901  0.57177  0.34267  1.0000
  H   H3865     1.0  0.88251  0.82090  0.18772  1.0000
  H   H3866     1.0  0.60956  0.73789  0.24084  1.0000
  H   H3867     1.0  0.76852  0.69863  0.17758  1.0000
  P   P160      1.0  0.85245  0.66770  0.35368  1.0000
  H   H3868     1.0  0.52195  0.70139  0.32315  1.0000
  P   P161      1.0  0.60915  0.58141  0.19328  1.0000
  C   C4830     1.0  0.79872  0.52546  0.34515  1.0000
  C   C4831     1.0  0.59093  0.56306  0.20400  1.0000
  C   C4832     1.0  0.73552  0.64771  0.21647  1.0000
  C   C4833     1.0  0.58964  0.69643  0.26532  1.0000
  C   C4834     1.0  0.85894  0.67585  0.33477  1.0000
  C   C4835     1.0  0.87467  0.96996  0.35835  1.0000
  C   C4836     1.0  0.62869  0.68902  0.28402  1.0000
  C   C4837     1.0  0.71838  0.85350  0.33483  1.0000
  H   H3869     1.0  0.55981  0.64286  0.16939  1.0000
  C   C4838     1.0  0.63175  0.73561  0.34856  1.0000
  H   H3870     1.0  0.90194  0.77635  0.33372  1.0000
  H   H3871     1.0  0.81881  0.86705  0.33370  1.0000
  C   C4839     1.0  0.59413  0.60930  0.19068  1.0000
  C   C4840     1.0  0.59592  0.62467  0.19888  1.0000
  C   C4841     1.0  0.61890  0.50843  0.35212  1.0000
  C   C4842     1.0  0.75936  0.53532  0.34423  1.0000
  H   H3872     1.0  0.78054  0.61908  0.36424  1.0000
  H   H3873     1.0  0.84294  0.63379  0.34007  1.0000
  H   H3874     1.0  0.54469  0.62327  0.29595  1.0000
  H   H3875     1.0  0.59361  0.70060  0.35588  1.0000
  C   C4843     1.0  0.82390  0.83526  0.36545  1.0000
  C   C4844     1.0  0.52875  0.70699  0.31227  1.0000
  C   C4845     1.0  0.82964  0.63642  0.34882  1.0000
  H   H3876     1.0  0.93382  0.77549  0.34563  1.0000
  H   H3877     1.0  0.86457  0.61999  0.36431  1.0000
  C   C4846     1.0  0.66890  0.57767  0.21559  1.0000
  C   C4847     1.0  0.89443  0.66155  0.36122  1.0000
  H   H3878     1.0  0.74530  0.61242  0.19876  1.0000
  P   P162      1.0  0.58655  0.74621  0.36007  1.0000
  C   C4848     1.0  0.88063  0.67880  0.32815  1.0000
  C   C4849     1.0  0.58019  0.61361  0.29256  1.0000
  H   H3879     1.0  0.60630  0.62033  0.20692  1.0000
  H   H3880     1.0  0.55517  0.74182  0.31826  1.0000
  C   C4850     1.0  0.58578  0.52919  0.22041  1.0000
  Fe  Fe324     1.0  0.76073  0.95344  0.35986  1.0000
  C   C4851     1.0  0.56959  0.63762  0.17779  1.0000
  C   C4852     1.0  0.71222  0.83142  0.36275  1.0000
  H   H3881     1.0  0.61594  0.60898  0.28877  1.0000
  H   H3882     1.0  0.59430  0.67682  0.23465  1.0000
  P   P163      1.0  0.58385  0.68811  0.28419  1.0000
  C   C4853     1.0  0.82355  0.72987  0.36072  1.0000
  C   C4854     1.0  0.63882  0.53953  0.34323  1.0000
  S   S642      1.0  0.49228  0.73375  0.34694  1.0000
  H   H3883     1.0  0.72936  0.64383  0.17789  1.0000
  H   H3884     1.0  0.58385  0.55746  0.35306  1.0000
  H   H3885     1.0  0.91213  0.92533  0.34963  1.0000
  H   H3886     1.0  0.81288  0.51386  0.34821  1.0000
  C   C4855     1.0  0.60349  0.72242  0.24514  1.0000
  H   H3887     1.0  0.60596  0.78096  0.33981  1.0000
  P   P164      1.0  0.77266  0.49254  0.35759  1.0000
  P   P165      1.0  0.84799  0.84350  0.35345  1.0000
  C   C4856     1.0  0.85440  0.82861  0.33870  1.0000
  C   C4857     1.0  0.84242  0.87226  0.34577  1.0000
  C   C4858     1.0  0.85327  0.88810  0.34881  1.0000
  C   C4859     1.0  0.84896  0.91017  0.34250  1.0000
  C   C4860     1.0  0.83428  0.91654  0.33283  1.0000
  C   C4861     1.0  0.82364  0.90087  0.32964  1.0000
  C   C4862     1.0  0.82752  0.87887  0.33616  1.0000
  C   C4863     1.0  0.87456  0.82946  0.32934  1.0000
  C   C4864     1.0  0.87978  0.81748  0.31819  1.0000
  C   C4865     1.0  0.86463  0.80509  0.31605  1.0000
  C   C4866     1.0  0.84397  0.80530  0.32476  1.0000
  C   C4867     1.0  0.83871  0.81731  0.33585  1.0000
  H   H3888     1.0  0.58404  0.73257  0.33324  1.0000
  C   C4868     1.0  0.54874  0.69577  0.30600  1.0000
  C   C4869     1.0  0.61897  0.55413  0.34543  1.0000
  C   C4870     1.0  0.64654  0.69298  0.28938  1.0000
  H   H3889     1.0  0.72154  0.86185  0.32405  1.0000
  C   C4871     1.0  0.80485  0.68226  0.20697  1.0000
  H   H3890     1.0  0.71356  0.64400  0.23642  1.0000
  H   H3891     1.0  0.77464  0.76227  0.36708  1.0000
  C   C4872     1.0  0.89984  0.94006  0.34833  1.0000
  H   H3892     1.0  0.86501  0.88370  0.35605  1.0000
  H   H3893     1.0  0.85679  0.92239  0.34526  1.0000
  H   H3894     1.0  0.83071  0.93368  0.32807  1.0000
  H   H3895     1.0  0.81189  0.90583  0.32235  1.0000
  H   H3896     1.0  0.66613  0.72715  0.33929  1.0000
  H   H3897     1.0  0.88629  0.83934  0.33066  1.0000
  H   H3898     1.0  0.89557  0.81777  0.31118  1.0000
  H   H3899     1.0  0.81456  0.67809  0.21540  1.0000
  H   H3900     1.0  0.83186  0.79631  0.32287  1.0000
  H   H3901     1.0  0.82221  0.81789  0.34199  1.0000
  C   C4873     1.0  0.64271  0.70178  0.30178  1.0000
  C   C4874     1.0  0.59980  0.54343  0.21206  1.0000
  C   C4875     1.0  0.60393  0.80796  0.35073  1.0000
  H   H3902     1.0  0.78673  0.57775  0.32754  1.0000
  C   C4876     1.0  0.61912  0.57253  0.17642  1.0000
  C   C4877     1.0  0.62103  0.70673  0.30881  1.0000
  H   H3903     1.0  0.76234  0.57329  0.20221  1.0000
  H   H3904     1.0  0.58269  0.66654  0.26014  1.0000
  H   H3905     1.0  0.61814  0.71340  0.31847  1.0000
  C   C4878     1.0  0.59473  0.68809  0.24165  1.0000
  C   C4879     1.0  0.61102  0.72842  0.35302  1.0000
  C   C4880     1.0  0.52648  0.73268  0.29054  1.0000
  C   C4881     1.0  0.51756  0.72540  0.30454  1.0000
  C   C4882     1.0  0.80209  0.54636  0.33768  1.0000
  C   C4883     1.0  0.70501  0.48652  0.34519  1.0000
  C   C4884     1.0  0.60314  0.70267  0.30355  1.0000
  C   C4885     1.0  0.60680  0.69355  0.29116  1.0000
  C   C4886     1.0  0.63886  0.51677  0.34666  1.0000
  H   H3906     1.0  0.78945  0.72540  0.18198  1.0000
  C   C4887     1.0  0.56906  0.74362  0.33634  1.0000
  H   H3907     1.0  0.52116  0.94561  0.34790  1.0000
  H   H3908     1.0  0.81145  0.61318  0.34447  1.0000
  C   C4888     1.0  0.65020  0.72153  0.34285  1.0000
  H   H3909     1.0  0.68930  0.57378  0.19553  1.0000
  C   C4889     1.0  0.55785  0.70293  0.29196  1.0000
  H   H3910     1.0  0.65794  0.57513  0.18356  1.0000
  C   C4890     1.0  0.82996  0.71038  0.35505  1.0000
  H   H3911     1.0  0.74404  0.79184  0.36213  1.0000
  H   H3912     1.0  0.62638  0.67586  0.34594  1.0000
  C   C4891     1.0  0.60935  0.70665  0.35225  1.0000
  C   C4892     1.0  0.88428  0.79141  0.17941  1.0000
  C   C4893     1.0  0.56166  0.65150  0.29079  1.0000
  H   H3913     1.0  0.86869  0.79561  0.30750  1.0000
  C   C4894     1.0  0.60240  0.70810  0.23614  1.0000
  H   H3914     1.0  0.92253  0.81275  0.36621  1.0000
  H   H3915     1.0  0.55714  0.68142  0.31211  1.0000
  C   C4895     1.0  0.84188  0.68078  0.32659  1.0000
  H   H3916     1.0  0.61253  0.58403  0.22218  1.0000
  C   C4896     1.0  0.59914  0.54600  0.35126  1.0000
  H   H3917     1.0  0.66346  0.68871  0.28414  1.0000
  C   C4897     1.0  0.60076  0.62087  0.28914  1.0000
  C   C4898     1.0  0.84352  0.69235  0.36161  1.0000
  H   H3918     1.0  0.82484  0.67927  0.33135  1.0000
  C   C4899     1.0  0.71165  0.82061  0.35162  1.0000
  C   C4900     1.0  0.78061  0.67230  0.19345  1.0000
  C   C4901     1.0  0.60183  0.64341  0.28681  1.0000
  H   H3919     1.0  0.59860  0.72766  0.26655  1.0000
  H   H3920     1.0  0.75400  0.50373  0.33112  1.0000
  H   H3921     1.0  0.58661  0.70648  0.30932  1.0000
  C   C4902     1.0  0.59720  0.71661  0.25968  1.0000
  C   C4903     1.0  0.59910  0.52323  0.35473  1.0000
  C   C4904     1.0  0.62921  0.58138  0.21630  1.0000
  H   H3922     1.0  0.65446  0.50569  0.34494  1.0000
  C   C4905     1.0  0.80383  0.70321  0.19872  1.0000
  C   C4906     1.0  0.83001  0.65177  0.35741  1.0000
  C   C4907     1.0  0.58233  0.65892  0.28781  1.0000
  H   H3923     1.0  0.90170  0.68949  0.30878  1.0000
  C   C4908     1.0  0.71507  0.83152  0.33771  1.0000
  H   H3924     1.0  0.54271  0.77283  0.36239  1.0000
  Fe  Fe325     1.0  0.50837  0.70018  0.35596  1.0000
  H   H3925     1.0  0.89983  0.93947  0.32650  1.0000
  S   S643      1.0  0.97235  0.78653  0.35954  1.0000
  H   H3926     1.0  0.74267  0.53133  0.34651  1.0000
  H   H3927     1.0  0.61131  0.81838  0.34153  1.0000
  H   H3928     1.0  0.89371  0.67916  0.35793  1.0000
  H   H3929     1.0  0.87077  0.97254  0.32390  1.0000
  C   C4909     1.0  0.60113  0.78665  0.34985  1.0000
  H   H3930     1.0  0.50192  0.73392  0.30941  1.0000
  H   H3931     1.0  0.58126  0.49293  0.34158  1.0000
  H   H3932     1.0  0.74813  0.48110  0.31494  1.0000
  C   C4910     1.0  0.74179  0.65024  0.16956  1.0000
  C   C4911     1.0  0.70075  0.48011  0.33326  1.0000
  C   C4912     1.0  0.71101  0.72100  0.16800  1.0000
  H   H3933     1.0  0.57905  0.60452  0.17364  1.0000
  C   C4913     1.0  0.89006  0.82559  0.36077  1.0000
  H   H3934     1.0  0.63362  0.49500  0.32613  1.0000
  C   C4914     1.0  0.87647  0.96652  0.33389  1.0000
  C   C4915     1.0  0.91507  0.76948  0.36648  1.0000
  H   H3935     1.0  0.59882  0.83257  0.36413  1.0000
  S   S644      1.0  0.82396  0.75413  0.16947  1.0000
  H   H3936     1.0  0.48877  0.64427  0.32864  1.0000
  C   C4916     1.0  0.86960  0.83900  0.36412  1.0000
  S   S645      1.0  0.68422  0.71356  0.17411  1.0000
  C   C4917     1.0  0.79567  0.47858  0.36641  1.0000
  C   C4918     1.0  0.63876  0.47735  0.32829  1.0000
  H   H3937     1.0  0.61327  0.84845  0.55420  1.0000
  C   C4919     1.0  0.72108  0.86051  0.40293  1.0000
  S   S646      1.0  0.98422  0.83303  0.40904  1.0000
  H   H3938     1.0  0.86489  0.91567  0.37269  1.0000
  C   C4920     1.0  0.51267  0.56585  0.44358  1.0000
  C   C4921     1.0  0.49122  0.56186  0.44352  1.0000
  H   H3939     1.0  0.98563  0.93133  0.38757  1.0000
  Fe  Fe326     1.0  0.95806  0.86134  0.41591  1.0000
  S   S647      1.0  0.95032  0.89374  0.40209  1.0000
  C   C4922     1.0  0.50064  0.82647  0.51851  1.0000
  Fe  Fe327     1.0  0.92413  0.87563  0.44067  1.0000
  S   S648      1.0  0.91286  0.90901  0.42858  1.0000
  S   S649      1.0  0.91142  0.86141  0.46334  1.0000
  Fe  Fe328     1.0  0.91444  0.89114  0.41057  1.0000
  S   S650      1.0  0.89442  0.90227  0.39275  1.0000
  Fe  Fe329     1.0  0.94932  0.90949  0.42083  1.0000
  S   S651      1.0  0.92230  0.85746  0.42327  1.0000
  Fe  Fe330     1.0  0.89053  0.89940  0.53820  1.0000
  S   S652      1.0  0.92286  0.88062  0.54383  1.0000
  S   S653      1.0  0.88354  0.91177  0.51586  1.0000
  H   H3940     1.0  0.73483  0.86874  0.40313  1.0000
  H   H3941     1.0  0.50661  0.88617  0.38071  1.0000
  S   S654      1.0  0.89011  0.92692  0.54996  1.0000
  S   S655      1.0  0.86998  0.88068  0.55647  1.0000
  C   C4923     1.0  0.94482  0.96819  0.52275  1.0000
  S   S656      1.0  0.74926  0.93968  0.38256  1.0000
  Fe  Fe331     1.0  0.77442  0.90979  0.37883  1.0000
  S   S657      1.0  0.79395  0.89163  0.39599  1.0000
  C   C4924     1.0  0.95894  0.95953  0.51152  1.0000
  S   S658      1.0  0.69121  0.92391  0.38854  1.0000
  H   H3942     1.0  0.51231  0.58181  0.40822  1.0000
  S   S659      1.0  0.54333  0.91335  0.54034  1.0000
  H   H3943     1.0  0.93265  0.95010  0.44692  1.0000
  Fe  Fe332     1.0  0.55032  0.84952  0.55064  1.0000
  S   S660      1.0  0.57401  0.86670  0.53353  1.0000
  C   C4925     1.0  0.48699  0.64095  0.41520  1.0000
  Fe  Fe333     1.0  0.57204  0.89017  0.54856  1.0000
  S   S661      1.0  0.60532  0.89881  0.55011  1.0000
  Fe  Fe334     1.0  0.54367  0.88839  0.52657  1.0000
  S   S662      1.0  0.53712  0.90178  0.50418  1.0000
  H   H3944     1.0  0.54826  0.72225  0.37010  1.0000
  S   S663      1.0  0.52012  0.86928  0.54252  1.0000
  Fe  Fe335     1.0  0.58956  0.85868  0.40263  1.0000
  S   S664      1.0  0.58441  0.82837  0.41863  1.0000
  S   S665      1.0  0.62161  0.86199  0.38702  1.0000
  Fe  Fe336     1.0  0.54107  0.87863  0.40930  1.0000
  S   S666      1.0  0.53180  0.85006  0.42590  1.0000
  S   S667      1.0  0.51878  0.90888  0.40057  1.0000
  Fe  Fe337     1.0  0.56388  0.85149  0.43288  1.0000
  S   S668      1.0  0.56966  0.84331  0.45562  1.0000
  Fe  Fe338     1.0  0.55282  0.82899  0.41053  1.0000
  S   S669      1.0  0.54615  0.79553  0.40792  1.0000
  S   S670      1.0  0.57147  0.88177  0.41741  1.0000
  S   S671      1.0  0.55956  0.85749  0.39340  1.0000
  H   H3945     1.0  0.95483  0.79044  0.41628  1.0000
  C   C4926     1.0  0.60031  0.89479  0.44575  1.0000
  H   H3946     1.0  0.60724  0.87844  0.44336  1.0000
  C   C4927     1.0  0.92233  0.96613  0.52546  1.0000
  C   C4928     1.0  0.98118  0.50961  0.53465  1.0000
  C   C4929     1.0  0.56208  0.79265  0.50039  1.0000
  H   H3947     1.0  0.77874  0.48310  0.38741  1.0000
  C   C4930     1.0  0.83878  0.96927  0.38208  1.0000
  H   H3948     1.0  0.53843  0.82157  0.48191  1.0000
  C   C4931     1.0  0.58474  0.79192  0.50027  1.0000
  C   C4932     1.0  0.57585  0.81295  0.51935  1.0000
  C   C4933     1.0  0.98635  0.96809  0.55662  1.0000
  H   H3949     1.0  0.54129  0.82210  0.52714  1.0000
  C   C4934     1.0  0.49994  0.92375  0.41246  1.0000
  C   C4935     1.0  0.58692  0.80275  0.37522  1.0000
  H   H3950     1.0  0.53524  0.70080  0.39301  1.0000
  C   C4936     1.0  0.65890  0.88150  0.37666  1.0000
  C   C4937     1.0  0.72345  0.84544  0.39377  1.0000
  H   H3951     1.0  0.51988  0.78487  0.53975  1.0000
  H   H3952     1.0  0.84837  0.71431  0.38978  1.0000
  H   H3953     1.0  0.72608  0.86643  0.55831  1.0000
  H   H3954     1.0  0.51074  0.74516  0.39042  1.0000
  C   C4938     1.0  0.52818  0.78981  0.39761  1.0000
  C   C4939     1.0  0.51519  0.80650  0.38967  1.0000
  C   C4940     1.0  0.50054  0.80101  0.38209  1.0000
  C   C4941     1.0  0.49866  0.77887  0.38243  1.0000
  C   C4942     1.0  0.51205  0.76223  0.39006  1.0000
  C   C4943     1.0  0.52671  0.76769  0.39760  1.0000
  H   H3955     1.0  0.51622  0.82359  0.38953  1.0000
  H   H3956     1.0  0.85997  0.76541  0.37377  1.0000
  H   H3957     1.0  0.68833  0.89668  0.36829  1.0000
  H   H3958     1.0  0.53676  0.75468  0.40365  1.0000
  H   H3959     1.0  0.84789  0.96191  0.40292  1.0000
  C   C4944     1.0  0.97573  0.79873  0.37360  1.0000
  C   C4945     1.0  0.64523  0.80695  0.38177  1.0000
  H   H3960     1.0  0.51589  0.85112  0.50291  1.0000
  H   H3961     1.0  0.91155  0.97230  0.53439  1.0000
  C   C4946     1.0  0.51185  0.96557  0.43930  1.0000
  H   H3962     1.0  0.96549  0.75721  0.40477  1.0000
  C   C4947     1.0  0.54640  0.88563  0.49064  1.0000
  C   C4948     1.0  0.54105  0.89392  0.47715  1.0000
  C   C4949     1.0  0.54778  0.88115  0.46628  1.0000
  C   C4950     1.0  0.56037  0.86017  0.46878  1.0000
  C   C4951     1.0  0.56604  0.85213  0.48221  1.0000
  C   C4952     1.0  0.55899  0.86470  0.49310  1.0000
  H   H3963     1.0  0.53189  0.91036  0.47503  1.0000
  H   H3964     1.0  0.54361  0.88767  0.45593  1.0000
  H   H3965     1.0  0.57598  0.83605  0.48418  1.0000
  H   H3966     1.0  0.56340  0.85824  0.50339  1.0000
  H   H3967     1.0  0.84752  0.82289  0.55781  1.0000
  H   H3968     1.0  0.60098  0.92157  0.37274  1.0000
  H   H3969     1.0  0.57386  0.95272  0.45462  1.0000
  H   H3970     1.0  0.66395  0.83362  0.37480  1.0000
  H   H3971     1.0  0.66080  0.87293  0.36786  1.0000
  P   P166      1.0  0.70872  0.81677  0.38065  1.0000
  H   H3972     1.0  0.51114  0.92801  0.37263  1.0000
  H   H3973     1.0  0.53787  0.49775  0.44646  1.0000
  C   C4953     1.0  0.93690  0.48297  0.52934  1.0000
  S   S672      1.0  0.96064  0.87730  0.43410  1.0000
  H   H3974     1.0  0.82541  0.74649  0.37752  1.0000
  H   H3975     1.0  0.82914  0.53953  0.52109  1.0000
  C   C4954     1.0  0.67219  0.90643  0.38802  1.0000
  C   C4955     1.0  0.67459  0.89490  0.37687  1.0000
  C   C4956     1.0  0.61045  0.81492  0.56410  1.0000
  C   C4957     1.0  0.64071  0.87938  0.38762  1.0000
  C   C4958     1.0  0.63828  0.89092  0.39877  1.0000
  C   C4959     1.0  0.65388  0.90449  0.39892  1.0000
  C   C4960     1.0  0.52273  0.81720  0.48123  1.0000
  H   H3976     1.0  0.53463  0.95349  0.51659  1.0000
  H   H3977     1.0  0.62436  0.88941  0.40723  1.0000
  H   H3978     1.0  0.55702  0.78429  0.49318  1.0000
  C   C4961     1.0  0.59588  0.89835  0.45968  1.0000
  C   C4962     1.0  0.82244  0.96806  0.37435  1.0000
  H   H3979     1.0  0.61852  0.95572  0.40152  1.0000
  C   C4963     1.0  0.90616  0.87567  0.47783  1.0000
  C   C4964     1.0  0.90413  0.89863  0.47603  1.0000
  C   C4965     1.0  0.89771  0.90946  0.48781  1.0000
  C   C4966     1.0  0.89402  0.89741  0.50151  1.0000
  C   C4967     1.0  0.89700  0.87440  0.50333  1.0000
  C   C4968     1.0  0.90269  0.86363  0.49153  1.0000
  H   H3980     1.0  0.90662  0.90807  0.46554  1.0000
  H   H3981     1.0  0.89516  0.92727  0.48629  1.0000
  H   H3982     1.0  0.89426  0.86493  0.51379  1.0000
  H   H3983     1.0  0.90423  0.84587  0.49301  1.0000
  C   C4969     1.0  0.86623  0.89988  0.39412  1.0000
  C   C4970     1.0  0.85578  0.90779  0.38228  1.0000
  C   C4971     1.0  0.83359  0.90549  0.38275  1.0000
  C   C4972     1.0  0.82172  0.89516  0.39507  1.0000
  C   C4973     1.0  0.83218  0.88716  0.40690  1.0000
  C   C4974     1.0  0.85434  0.88964  0.40647  1.0000
  H   H3984     1.0  0.77820  0.85596  0.38717  1.0000
  C   C4975     1.0  0.80391  0.80607  0.37902  1.0000
  H   H3985     1.0  0.82306  0.87913  0.41646  1.0000
  H   H3986     1.0  0.86229  0.88342  0.41563  1.0000
  C   C4976     1.0  0.95473  0.89595  0.50335  1.0000
  H   H3987     1.0  0.49030  0.81398  0.37617  1.0000
  C   C4977     1.0  0.79019  0.84393  0.38197  1.0000
  C   C4978     1.0  0.96621  0.83035  0.38601  1.0000
  H   H3988     1.0  0.80301  0.55653  0.56209  1.0000
  H   H3989     1.0  0.82079  0.90274  0.56564  1.0000
  C   C4979     1.0  0.51610  0.82107  0.46807  1.0000
  H   H3990     1.0  0.95706  0.84664  0.38700  1.0000
  H   H3991     1.0  0.94261  0.86594  0.51388  1.0000
  C   C4980     1.0  0.50910  0.80802  0.49326  1.0000
  C   C4981     1.0  0.55318  0.81396  0.51938  1.0000
  C   C4982     1.0  0.71552  0.47920  0.38410  1.0000
  C   C4983     1.0  0.48697  0.60144  0.42111  1.0000
  C   C4984     1.0  0.52489  0.48889  0.44574  1.0000
  H   H3992     1.0  0.61662  0.96870  0.55626  1.0000
  C   C4985     1.0  0.52204  0.48551  0.43262  1.0000
  C   C4986     1.0  0.59162  0.80213  0.50973  1.0000
  H   H3993     1.0  0.50698  0.76317  0.50351  1.0000
  H   H3994     1.0  0.97016  0.62065  0.39145  1.0000
  H   H3995     1.0  0.96702  0.53569  0.56346  1.0000
  H   H3996     1.0  0.89429  0.72372  0.37754  1.0000
  C   C4987     1.0  0.87605  0.76804  0.36776  1.0000
  H   H3997     1.0  0.59696  0.78343  0.49285  1.0000
  C   C4988     1.0  0.96158  0.95141  0.47278  1.0000
  H   H3998     1.0  0.82569  0.91170  0.37360  1.0000
  H   H3999     1.0  0.87946  0.85405  0.39361  1.0000
  H   H4000     1.0  0.53058  0.95637  0.48707  1.0000
  P   P167      1.0  0.93999  0.49537  0.54387  1.0000
  C   C4989     1.0  0.81808  0.50561  0.55246  1.0000
  H   H4001     1.0  0.94946  0.90370  0.51264  1.0000
  H   H4002     1.0  0.75646  0.83436  0.55949  1.0000
  C   C4990     1.0  0.61157  0.93952  0.38612  1.0000
  C   C4991     1.0  0.90676  0.96303  0.40062  1.0000
  H   H4003     1.0  0.63036  0.77768  0.38974  1.0000
  C   C4992     1.0  0.74008  0.51398  0.37655  1.0000
  H   H4004     1.0  0.92946  0.76836  0.37138  1.0000
  C   C4993     1.0  0.58547  0.94661  0.40728  1.0000
  H   H4005     1.0  0.90052  0.51992  0.53235  1.0000
  C   C4994     1.0  0.83996  0.83732  0.55129  1.0000
  H   H4006     1.0  0.56402  0.91925  0.38762  1.0000
  H   H4007     1.0  0.94013  0.92954  0.46996  1.0000
  H   H4008     1.0  0.49360  0.88264  0.51332  1.0000
  C   C4995     1.0  0.58638  0.91925  0.46283  1.0000
  C   C4996     1.0  0.48822  0.80385  0.49200  1.0000
  C   C4997     1.0  0.74759  0.49482  0.37048  1.0000
  H   H4009     1.0  0.78104  0.90311  0.56498  1.0000
  H   H4010     1.0  0.50453  0.71994  0.54325  1.0000
  H   H4011     1.0  0.77401  0.81647  0.39293  1.0000
  C   C4998     1.0  0.81764  0.95046  0.40298  1.0000
  C   C4999     1.0  0.84321  0.71323  0.38008  1.0000
  C   C5000     1.0  0.53451  0.95705  0.43773  1.0000
  H   H4012     1.0  0.72921  0.90978  0.54510  1.0000
  C   C5001     1.0  0.50488  0.74003  0.52270  1.0000
  H   H4013     1.0  0.97974  0.87548  0.55081  1.0000
  H   H4014     1.0  0.55534  0.69673  0.41301  1.0000
  H   H4015     1.0  0.84216  0.94217  0.54882  1.0000
  H   H4016     1.0  0.95650  0.57176  0.52861  1.0000
  C   C5002     1.0  0.94274  0.95619  0.45269  1.0000
  H   H4017     1.0  0.81450  0.97594  0.54496  1.0000
  H   H4018     1.0  0.51160  0.65175  0.39779  1.0000
  H   H4019     1.0  0.83129  0.50014  0.53108  1.0000
  H   H4020     1.0  0.54002  0.94260  0.44498  1.0000
  H   H4021     1.0  0.55424  0.93448  0.40964  1.0000
  C   C5003     1.0  0.89717  0.51935  0.54364  1.0000
  H   H4022     1.0  0.98477  0.91815  0.43885  1.0000
  C   C5004     1.0  0.58253  0.54782  0.53359  1.0000
  C   C5005     1.0  0.57569  0.92763  0.39058  1.0000
  H   H4023     1.0  0.98070  0.65724  0.38038  1.0000
  C   C5006     1.0  0.94867  0.76609  0.40538  1.0000
  H   H4024     1.0  0.69213  0.50016  0.39695  1.0000
  C   C5007     1.0  0.90290  0.83333  0.38073  1.0000
  C   C5008     1.0  0.91459  0.62644  0.37053  1.0000
  C   C5009     1.0  0.96481  0.90730  0.49063  1.0000
  C   C5010     1.0  0.96880  0.96369  0.38112  1.0000
  H   H4025     1.0  0.71413  0.53091  0.39045  1.0000
  C   C5011     1.0  0.82209  0.81279  0.36939  1.0000
  Fe  Fe339     1.0  0.72558  0.92347  0.37497  1.0000
  H   H4026     1.0  0.52691  0.82791  0.45882  1.0000
  H   H4027     1.0  0.97254  0.86694  0.47055  1.0000
  C   C5012     1.0  0.95471  0.47980  0.51826  1.0000
  C   C5013     1.0  0.51224  0.75208  0.54299  1.0000
  C   C5014     1.0  0.89063  0.96337  0.39245  1.0000
  H   H4028     1.0  0.49925  0.93710  0.49897  1.0000
  H   H4029     1.0  0.59934  0.88476  0.46808  1.0000
  H   H4030     1.0  0.79120  0.95784  0.37487  1.0000
  H   H4031     1.0  0.91591  0.83151  0.38696  1.0000
  Fe  Fe340     1.0  0.52184  0.89272  0.55669  1.0000
  H   H4032     1.0  0.52002  0.57830  0.43577  1.0000
  H   H4033     1.0  0.95255  0.95892  0.38497  1.0000
  S   S673      1.0  0.96119  0.94258  0.41630  1.0000
  C   C5015     1.0  0.66457  0.81635  0.37934  1.0000
  H   H4034     1.0  0.80939  0.86818  0.36958  1.0000
  H   H4035     1.0  0.69862  0.87793  0.41821  1.0000
  H   H4036     1.0  0.55212  0.56650  0.52729  1.0000
  H   H4037     1.0  0.58924  0.71385  0.40983  1.0000
  C   C5016     1.0  0.86570  0.84882  0.37626  1.0000
  P   P168      1.0  0.96882  0.93552  0.48916  1.0000
  C   C5017     1.0  0.54988  0.70849  0.39168  1.0000
  C   C5018     1.0  0.70777  0.49855  0.38976  1.0000
  C   C5019     1.0  0.88235  0.84606  0.38445  1.0000
  C   C5020     1.0  0.58537  0.93307  0.43803  1.0000
  H   H4038     1.0  0.81502  0.56791  0.53647  1.0000
  P   P169      1.0  0.57885  0.95570  0.42420  1.0000
  C   C5021     1.0  0.55728  0.72083  0.37869  1.0000
  C   C5022     1.0  0.50508  0.63768  0.40446  1.0000
  H   H4039     1.0  0.78731  0.94126  0.40015  1.0000
  C   C5023     1.0  0.49177  0.87875  0.38209  1.0000
  C   C5024     1.0  0.60920  0.83745  0.56400  1.0000
  H   H4040     1.0  0.50914  0.82236  0.55910  1.0000
  H   H4041     1.0  0.98021  0.90467  0.46912  1.0000
  C   C5025     1.0  0.92798  0.94684  0.50567  1.0000
  H   H4042     1.0  0.61041  0.52533  0.54038  1.0000
  C   C5026     1.0  0.83606  0.96070  0.39653  1.0000
  C   C5027     1.0  0.79692  0.96203  0.53286  1.0000
  C   C5028     1.0  0.76398  0.76941  0.37573  1.0000
  C   C5029     1.0  0.91331  0.50854  0.55192  1.0000
  H   H4043     1.0  0.61514  0.80848  0.55431  1.0000
  C   C5030     1.0  0.70069  0.86564  0.41149  1.0000
  H   H4044     1.0  0.85964  0.67990  0.37989  1.0000
  H   H4045     1.0  0.57541  0.77205  0.38354  1.0000
  C   C5031     1.0  0.62139  0.49885  0.56467  1.0000
  C   C5032     1.0  0.49669  0.95082  0.49049  1.0000
  C   C5033     1.0  0.49076  0.86603  0.51803  1.0000
  C   C5034     1.0  0.82389  0.53458  0.53227  1.0000
  C   C5035     1.0  0.81595  0.55056  0.54094  1.0000
  H   H4046     1.0  0.88481  0.94814  0.39251  1.0000
  H   H4047     1.0  0.84993  0.85898  0.37926  1.0000
  C   C5036     1.0  0.61846  0.96888  0.42570  1.0000
  C   C5037     1.0  0.95731  0.86400  0.49233  1.0000
  C   C5038     1.0  0.58126  0.93661  0.45204  1.0000
  C   C5039     1.0  0.50356  0.84810  0.51223  1.0000
  C   C5040     1.0  0.63267  0.91278  0.56409  1.0000
  H   H4048     1.0  0.73915  0.84210  0.38688  1.0000
  C   C5041     1.0  0.51529  0.53837  0.46460  1.0000
  C   C5042     1.0  0.50529  0.59825  0.41037  1.0000
  C   C5043     1.0  0.51250  0.77730  0.52074  1.0000
  C   C5044     1.0  0.98562  0.62473  0.39288  1.0000
  C   C5045     1.0  0.52468  0.55403  0.45407  1.0000
  H   H4049     1.0  0.58099  0.80915  0.38499  1.0000
  C   C5046     1.0  0.91387  0.95571  0.51681  1.0000
  C   C5047     1.0  0.82502  0.51217  0.53800  1.0000
  C   C5048     1.0  0.51530  0.77263  0.53491  1.0000
  H   H4050     1.0  0.91356  0.94761  0.40657  1.0000
  C   C5049     1.0  0.49399  0.53428  0.46456  1.0000
  C   C5050     1.0  0.95098  0.87439  0.50416  1.0000
  H   H4051     1.0  0.51353  0.48364  0.46797  1.0000
  H   H4052     1.0  0.78127  0.64564  0.37975  1.0000
  C   C5051     1.0  0.95804  0.51601  0.53743  1.0000
  P   P170      1.0  0.81914  0.47681  0.56010  1.0000
  H   H4053     1.0  0.52437  0.52961  0.47291  1.0000
  H   H4054     1.0  0.92123  0.93831  0.49931  1.0000
  C   C5052     1.0  0.94270  0.78482  0.41184  1.0000
  C   C5053     1.0  0.50687  0.73584  0.53693  1.0000
  C   C5054     1.0  0.54909  0.53245  0.53514  1.0000
  S   S674      1.0  0.75000  0.89250  0.37281  1.0000
  C   C5055     1.0  0.77272  0.48456  0.56179  1.0000
  S   S675      1.0  0.97864  0.48319  0.43897  1.0000
  C   C5056     1.0  0.94920  0.53857  0.53515  1.0000
  C   C5057     1.0  0.56128  0.70610  0.40292  1.0000
  C   C5058     1.0  0.84971  0.69375  0.37437  1.0000
  H   H4055     1.0  0.71682  0.89551  0.52655  1.0000
  C   C5059     1.0  0.94434  0.95558  0.56673  1.0000
  H   H4056     1.0  0.49292  0.91524  0.48086  1.0000
  C   C5060     1.0  0.98629  0.54782  0.52762  1.0000
  C   C5061     1.0  0.72014  0.51587  0.38608  1.0000
  H   H4057     1.0  0.62575  0.95169  0.42583  1.0000
  C   C5062     1.0  0.50297  0.47827  0.55272  1.0000
  H   H4058     1.0  0.81590  0.94324  0.41401  1.0000
  C   C5063     1.0  0.90451  0.69758  0.41533  1.0000
  C   C5064     1.0  0.90581  0.68426  0.40525  1.0000
  C   C5065     1.0  0.90188  0.69388  0.39172  1.0000
  C   C5066     1.0  0.89678  0.71677  0.38820  1.0000
  C   C5067     1.0  0.89576  0.73030  0.39819  1.0000
  C   C5068     1.0  0.89951  0.72052  0.41183  1.0000
  P   P171      1.0  0.89086  0.75999  0.39352  1.0000
  C   C5069     1.0  0.91125  0.77045  0.40020  1.0000
  C   C5070     1.0  0.51354  0.80568  0.56439  1.0000
  H   H4059     1.0  0.55058  0.49799  0.54329  1.0000
  C   C5071     1.0  0.83027  0.73134  0.37320  1.0000
  H   H4060     1.0  0.66539  0.75483  0.39610  1.0000
  H   H4061     1.0  0.64606  0.90502  0.55697  1.0000
  C   C5072     1.0  0.50789  0.76060  0.51458  1.0000
  C   C5073     1.0  0.90541  0.78927  0.40674  1.0000
  C   C5074     1.0  0.92112  0.79644  0.41246  1.0000
  H   H4062     1.0  0.53285  0.49163  0.42317  1.0000
  C   C5075     1.0  0.80382  0.95835  0.38091  1.0000
  C   C5076     1.0  0.93305  0.75895  0.39958  1.0000
  C   C5077     1.0  0.86315  0.77167  0.40089  1.0000
  C   C5078     1.0  0.84983  0.75924  0.41154  1.0000
  C   C5079     1.0  0.82894  0.76909  0.41764  1.0000
  C   C5080     1.0  0.82133  0.79141  0.41324  1.0000
  C   C5081     1.0  0.83446  0.80381  0.40259  1.0000
  C   C5082     1.0  0.85508  0.79388  0.39627  1.0000
  H   H4063     1.0  0.90787  0.69012  0.42577  1.0000
  H   H4064     1.0  0.91024  0.66651  0.40785  1.0000
  H   H4065     1.0  0.90340  0.68369  0.38377  1.0000
  Fe  Fe341     1.0  0.90264  0.86405  0.56318  1.0000
  H   H4066     1.0  0.89906  0.73066  0.41966  1.0000
  H   H4067     1.0  0.60293  0.73506  0.38681  1.0000
  C   C5083     1.0  0.59644  0.92903  0.38217  1.0000
  S   S676      1.0  0.49775  0.50515  0.54311  1.0000
  C   C5084     1.0  0.59532  0.91215  0.43493  1.0000
  C   C5085     1.0  0.95978  0.94358  0.55752  1.0000
  H   H4068     1.0  0.88882  0.79853  0.40756  1.0000
  H   H4069     1.0  0.91661  0.81103  0.41742  1.0000
  C   C5086     1.0  0.57621  0.73092  0.37689  1.0000
  H   H4070     1.0  0.52814  0.61384  0.39363  1.0000
  H   H4071     1.0  0.93799  0.74435  0.39468  1.0000
  H   H4072     1.0  0.85559  0.74208  0.41531  1.0000
  H   H4073     1.0  0.81882  0.75953  0.42598  1.0000
  H   H4074     1.0  0.80534  0.79919  0.41813  1.0000
  H   H4075     1.0  0.82868  0.82119  0.39924  1.0000
  H   H4076     1.0  0.86511  0.80365  0.38805  1.0000
  P   P172      1.0  0.51699  0.80382  0.51044  1.0000
  H   H4077     1.0  0.58114  0.82037  0.52695  1.0000
  C   C5087     1.0  0.81733  0.84540  0.55455  1.0000
  C   C5088     1.0  0.81025  0.52179  0.56111  1.0000
  C   C5089     1.0  0.68275  0.85548  0.41104  1.0000
  C   C5090     1.0  0.68498  0.84059  0.40178  1.0000
  C   C5091     1.0  0.70535  0.83555  0.39299  1.0000
  S   S677      1.0  0.55739  0.81238  0.55699  1.0000
  C   C5092     1.0  0.89418  0.76695  0.37459  1.0000
  C   C5093     1.0  0.73236  0.79581  0.38392  1.0000
  C   C5094     1.0  0.68430  0.80381  0.38322  1.0000
  C   C5095     1.0  0.68454  0.78146  0.38919  1.0000
  C   C5096     1.0  0.66519  0.77201  0.39141  1.0000
  C   C5097     1.0  0.64549  0.78480  0.38778  1.0000
  S   S678      1.0  0.95429  0.91996  0.55238  1.0000
  H   H4078     1.0  0.49995  0.87700  0.47671  1.0000
  C   C5098     1.0  0.73622  0.78810  0.39778  1.0000
  C   C5099     1.0  0.75381  0.77116  0.40057  1.0000
  C   C5100     1.0  0.76762  0.76173  0.38954  1.0000
  H   H4079     1.0  0.62993  0.81711  0.37926  1.0000
  C   C5101     1.0  0.80920  0.54416  0.55535  1.0000
  C   C5102     1.0  0.95161  0.97550  0.44692  1.0000
  H   H4080     1.0  0.73701  0.48996  0.56361  1.0000
  H   H4081     1.0  0.59918  0.90913  0.42421  1.0000
  H   H4082     1.0  0.60355  0.48237  0.38591  1.0000
  H   H4083     1.0  0.78263  0.94393  0.52148  1.0000
  C   C5103     1.0  0.49567  0.81614  0.46682  1.0000
  C   C5104     1.0  0.97200  0.89639  0.47896  1.0000
  H   H4084     1.0  0.80727  0.83701  0.56352  1.0000
  H   H4085     1.0  0.66683  0.85976  0.41750  1.0000
  H   H4086     1.0  0.67059  0.83350  0.40141  1.0000
  C   C5105     1.0  0.80799  0.85080  0.37200  1.0000
  H   H4087     1.0  0.69950  0.77128  0.39220  1.0000
  C   C5106     1.0  0.51447  0.96181  0.48380  1.0000
  H   H4088     1.0  0.50120  0.72723  0.51795  1.0000
  C   C5107     1.0  0.87663  0.52965  0.54988  1.0000
  H   H4089     1.0  0.53200  0.53442  0.53349  1.0000
  H   H4090     1.0  0.72541  0.79497  0.40647  1.0000
  H   H4091     1.0  0.75654  0.76518  0.41130  1.0000
  H   H4092     1.0  0.78109  0.74844  0.39168  1.0000
  P   P173      1.0  0.59494  0.48226  0.55064  1.0000
  C   C5108     1.0  0.96424  0.82000  0.37495  1.0000
  C   C5109     1.0  0.78795  0.82165  0.38533  1.0000
  H   H4093     1.0  0.97057  0.48446  0.51823  1.0000
  C   C5110     1.0  0.53586  0.79698  0.56499  1.0000
  C   C5111     1.0  0.96930  0.97154  0.46732  1.0000
  H   H4094     1.0  0.62785  0.94023  0.37971  1.0000
  C   C5112     1.0  0.84250  0.87980  0.48684  1.0000
  C   C5113     1.0  0.84893  0.89926  0.47886  1.0000
  C   C5114     1.0  0.84282  0.91893  0.48432  1.0000
  C   C5115     1.0  0.83035  0.91915  0.49780  1.0000
  C   C5116     1.0  0.82385  0.89963  0.50592  1.0000
  C   C5117     1.0  0.82987  0.87998  0.50027  1.0000
  P   P174      1.0  0.80861  0.89937  0.52364  1.0000
  C   C5118     1.0  0.81098  0.92393  0.52994  1.0000
  C   C5119     1.0  0.77951  0.89828  0.52436  1.0000
  C   C5120     1.0  0.76370  0.90527  0.53560  1.0000
  C   C5121     1.0  0.74122  0.90428  0.53637  1.0000
  C   C5122     1.0  0.73428  0.89624  0.52595  1.0000
  C   C5123     1.0  0.74986  0.88923  0.51473  1.0000
  C   C5124     1.0  0.77240  0.89023  0.51392  1.0000
  C   C5125     1.0  0.79564  0.94331  0.52749  1.0000
  C   C5126     1.0  0.96790  0.87495  0.47975  1.0000
  C   C5127     1.0  0.81361  0.96159  0.54062  1.0000
  C   C5128     1.0  0.82925  0.94258  0.54277  1.0000
  C   C5129     1.0  0.82814  0.92393  0.53728  1.0000
  C   C5130     1.0  0.82080  0.87531  0.53471  1.0000
  C   C5131     1.0  0.84358  0.86716  0.53160  1.0000
  C   C5132     1.0  0.85303  0.84812  0.53976  1.0000
  H   H4095     1.0  0.52932  0.94615  0.56034  1.0000
  S   S679      1.0  0.96574  0.72296  0.37159  1.0000
  C   C5133     1.0  0.80775  0.86436  0.54634  1.0000
  H   H4096     1.0  0.84784  0.86448  0.48270  1.0000
  H   H4097     1.0  0.85921  0.89894  0.46859  1.0000
  H   H4098     1.0  0.84838  0.93386  0.47825  1.0000
  H   H4099     1.0  0.82642  0.93444  0.50195  1.0000
  H   H4100     1.0  0.82531  0.86466  0.50639  1.0000
  H   H4101     1.0  0.76869  0.91157  0.54378  1.0000
  C   C5134     1.0  0.52595  0.96615  0.52269  1.0000
  C   C5135     1.0  0.55966  0.51181  0.54081  1.0000
  H   H4102     1.0  0.74446  0.88305  0.50663  1.0000
  H   H4103     1.0  0.78412  0.88474  0.50514  1.0000
  H   H4104     1.0  0.92900  0.55744  0.56535  1.0000
  C   C5136     1.0  0.59315  0.52717  0.53932  1.0000
  C   C5137     1.0  0.62019  0.48247  0.55706  1.0000
  C   C5138     1.0  0.57022  0.93633  0.40310  1.0000
  H   H4105     1.0  0.84063  0.90954  0.53885  1.0000
  H   H4106     1.0  0.85415  0.87568  0.52295  1.0000
  H   H4107     1.0  0.87069  0.84211  0.53740  1.0000
  C   C5139     1.0  0.56044  0.55050  0.53163  1.0000
  H   H4108     1.0  0.86421  0.53780  0.54345  1.0000
  H   H4109     1.0  0.79025  0.87038  0.54916  1.0000
  C   C5140     1.0  0.61056  0.91190  0.56325  1.0000
  C   C5141     1.0  0.96332  0.55438  0.53031  1.0000
  C   C5142     1.0  0.58155  0.50915  0.54338  1.0000
  C   C5143     1.0  0.51430  0.61632  0.40209  1.0000
  C   C5144     1.0  0.53516  0.97055  0.53354  1.0000
  H   H4110     1.0  0.60916  0.80151  0.50970  1.0000
  C   C5145     1.0  0.80149  0.94935  0.39518  1.0000
  C   C5146     1.0  0.60621  0.94820  0.39864  1.0000
  C   C5147     1.0  0.90878  0.50875  0.56647  1.0000
  H   H4111     1.0  0.93150  0.54412  0.53707  1.0000
  H   H4112     1.0  0.74941  0.52758  0.37382  1.0000
  H   H4113     1.0  0.54112  0.55735  0.45419  1.0000
  C   C5148     1.0  0.58798  0.72787  0.38811  1.0000
  S   S680      1.0  0.55048  0.87143  0.56611  1.0000
  H   H4114     1.0  0.50335  0.89863  0.43065  1.0000
  C   C5149     1.0  0.54614  0.80410  0.50974  1.0000
  C   C5150     1.0  0.81257  0.65484  0.36868  1.0000
  C   C5151     1.0  0.58036  0.71575  0.40113  1.0000
  C   C5152     1.0  0.94741  0.94433  0.46566  1.0000
  H   H4115     1.0  0.55112  0.96132  0.53563  1.0000
  C   C5153     1.0  0.95072  0.94826  0.50311  1.0000
  H   H4116     1.0  0.65181  0.91345  0.40755  1.0000
  H   H4117     1.0  0.49074  0.81902  0.45655  1.0000
  H   H4118     1.0  0.59142  0.56176  0.53062  1.0000
  C   C5154     1.0  0.98065  0.95010  0.55236  1.0000
  Fe  Fe342     1.0  0.92141  0.90717  0.55661  1.0000
  C   C5155     1.0  0.74642  0.78632  0.37292  1.0000
  H   H4119     1.0  0.58261  0.92180  0.47370  1.0000
  H   H4120     1.0  0.80238  0.78879  0.38171  1.0000
  C   C5156     1.0  0.51103  0.48081  0.45795  1.0000
  C   C5157     1.0  0.96605  0.47850  0.56493  1.0000
  H   H4121     1.0  0.92928  0.61686  0.37439  1.0000
  H   H4122     1.0  0.77159  0.96518  0.56209  1.0000
  H   H4123     1.0  0.97155  0.49434  0.56301  1.0000
  C   C5158     1.0  0.58411  0.78144  0.37439  1.0000
  H   H4124     1.0  0.51412  0.74868  0.55397  1.0000
  H   H4125     1.0  0.89647  0.95390  0.51895  1.0000
  H   H4126     1.0  0.95369  0.84758  0.49285  1.0000
  H   H4127     1.0  0.49828  0.97462  0.51142  1.0000
  H   H4128     1.0  0.81248  0.66651  0.37548  1.0000
  H   H4129     1.0  0.49323  0.95190  0.39646  1.0000
  H   H4130     1.0  0.77356  0.50199  0.55989  1.0000
  H   H4131     1.0  0.95141  0.97601  0.52958  1.0000
  H   H4132     1.0  0.50025  0.95782  0.44768  1.0000
  C   C5159     1.0  0.98051  0.81990  0.39548  1.0000
  C   C5160     1.0  0.49505  0.91481  0.42669  1.0000
  S   S681      1.0  0.49639  0.70556  0.37836  1.0000
  C   C5161     1.0  0.54950  0.96678  0.42669  1.0000
  C   C5162     1.0  0.90666  0.82290  0.36898  1.0000
  C   C5163     1.0  0.79485  0.64300  0.37116  1.0000
  C   C5164     1.0  0.48922  0.94477  0.40741  1.0000
  H   H4133     1.0  0.97622  0.96142  0.50968  1.0000
  C   C5165     1.0  0.98464  0.94655  0.42249  1.0000
  H   H4134     1.0  0.89787  0.59843  0.37325  1.0000
  H   H4135     1.0  0.89627  0.94411  0.36970  1.0000
  H   H4136     1.0  0.71529  0.86271  0.36798  1.0000
  H   H4137     1.0  0.63088  0.47818  0.52646  1.0000
  C   C5166     1.0  0.87217  0.52957  0.56438  1.0000
  C   C5167     1.0  0.59582  0.97585  0.42487  1.0000
  H   H4138     1.0  0.57715  0.97061  0.56641  1.0000
  C   C5168     1.0  0.75192  0.47782  0.56385  1.0000
  C   C5169     1.0  0.89688  0.61608  0.36986  1.0000
  C   C5170     1.0  0.73545  0.47727  0.37459  1.0000
  H   H4139     1.0  0.60745  0.51188  0.56639  1.0000
  C   C5171     1.0  0.66162  0.64382  0.62169  1.0000
  S   S682      1.0  0.90539  0.82715  0.57106  1.0000
  S   S683      1.0  0.84217  0.92161  0.58349  1.0000
  H   H4140     1.0  0.72125  0.50746  0.61234  1.0000
  C   C5172     1.0  0.98419  0.84834  0.62793  1.0000
  C   C5173     1.0  0.49690  0.79258  0.57041  1.0000
  Fe  Fe343     1.0  0.63146  0.76725  0.69554  1.0000
  S   S684      1.0  0.66663  0.76031  0.68416  1.0000
  S   S685      1.0  0.61839  0.77719  0.71728  1.0000
  Fe  Fe344     1.0  0.61137  0.75367  0.67228  1.0000
  S   S686      1.0  0.64504  0.74535  0.65961  1.0000
  S   S687      1.0  0.57750  0.75231  0.66666  1.0000
  Fe  Fe345     1.0  0.65651  0.72978  0.68012  1.0000
  S   S688      1.0  0.67488  0.69507  0.68517  1.0000
  Fe  Fe346     1.0  0.65245  0.77664  0.66451  1.0000
  S   S689      1.0  0.66873  0.79828  0.64541  1.0000
  S   S690      1.0  0.62212  0.73569  0.69260  1.0000
  S   S691      1.0  0.61802  0.78595  0.67609  1.0000
  C   C5174     1.0  0.75930  0.96607  0.62258  1.0000
  S   S692      1.0  0.51918  0.69617  0.59568  1.0000
  S   S693      1.0  0.48998  0.90334  0.57094  1.0000
  C   C5175     1.0  0.96641  0.62137  0.58409  1.0000
  S   S694      1.0  0.49874  0.66904  0.62587  1.0000
  Fe  Fe347     1.0  0.51984  0.69615  0.61862  1.0000
  S   S695      1.0  0.55307  0.69634  0.62553  1.0000
  Fe  Fe348     1.0  0.49527  0.67146  0.60308  1.0000
  H   H4141     1.0  0.61635  0.95524  0.67988  1.0000
  S   S696      1.0  0.76093  0.48891  0.62566  1.0000
  C   C5176     1.0  0.79849  0.96382  0.62308  1.0000
  Fe  Fe349     1.0  0.68382  0.92133  0.62576  1.0000
  S   S697      1.0  0.65834  0.95197  0.62316  1.0000
  S   S698      1.0  0.68002  0.89698  0.64624  1.0000
  Fe  Fe350     1.0  0.71087  0.93361  0.59701  1.0000
  S   S699      1.0  0.68683  0.96470  0.59194  1.0000
  S   S700      1.0  0.74044  0.92189  0.58093  1.0000
  C   C5177     1.0  0.58926  0.64893  0.67172  1.0000
  H   H4142     1.0  0.62996  0.50001  0.61332  1.0000
  Fe  Fe351     1.0  0.65969  0.94461  0.60151  1.0000
  S   S701      1.0  0.71278  0.94015  0.61836  1.0000
  S   S702      1.0  0.68347  0.91290  0.60467  1.0000
  Fe  Fe352     1.0  0.80135  0.57739  0.66908  1.0000
  S   S703      1.0  0.81379  0.60419  0.65200  1.0000
  S   S704      1.0  0.79168  0.54450  0.66591  1.0000
  Fe  Fe353     1.0  0.80662  0.60295  0.69271  1.0000
  S   S705      1.0  0.81913  0.63080  0.67691  1.0000
  S   S706      1.0  0.79781  0.60663  0.71612  1.0000
  Fe  Fe354     1.0  0.79215  0.62819  0.66538  1.0000
  S   S707      1.0  0.77251  0.66034  0.65604  1.0000
  Fe  Fe355     1.0  0.83972  0.60471  0.66505  1.0000
  S   S708      1.0  0.87672  0.60371  0.65597  1.0000
  S   S709      1.0  0.77816  0.60172  0.68173  1.0000
  S   S710      1.0  0.82880  0.57644  0.68157  1.0000
  S   S711      1.0  0.85237  0.62728  0.75982  1.0000
  P   P175      1.0  0.66725  0.66411  0.64335  1.0000
  S   S712      1.0  0.92840  0.68649  0.63562  1.0000
  C   C5178     1.0  0.81332  0.61202  0.72821  1.0000
  C   C5179     1.0  0.83646  0.61042  0.72535  1.0000
  C   C5180     1.0  0.84802  0.61509  0.73516  1.0000
  C   C5181     1.0  0.83669  0.62153  0.74794  1.0000
  C   C5182     1.0  0.81359  0.62267  0.75096  1.0000
  C   C5183     1.0  0.80202  0.61779  0.74121  1.0000
  H   H4143     1.0  0.84546  0.60561  0.71556  1.0000
  H   H4144     1.0  0.86590  0.61384  0.73280  1.0000
  H   H4145     1.0  0.80467  0.62721  0.76083  1.0000
  H   H4146     1.0  0.78417  0.61863  0.74372  1.0000
  C   C5184     1.0  0.89068  0.62699  0.65003  1.0000
  C   C5185     1.0  0.87999  0.64837  0.65149  1.0000
  C   C5186     1.0  0.89179  0.66631  0.64688  1.0000
  C   C5187     1.0  0.91438  0.66318  0.64079  1.0000
  C   C5188     1.0  0.92504  0.64182  0.63922  1.0000
  C   C5189     1.0  0.91326  0.62383  0.64387  1.0000
  H   H4147     1.0  0.86265  0.65110  0.65622  1.0000
  H   H4148     1.0  0.88335  0.68277  0.64804  1.0000
  H   H4149     1.0  0.94239  0.63922  0.63458  1.0000
  H   H4150     1.0  0.92164  0.60734  0.64276  1.0000
  C   C5190     1.0  0.70247  0.68625  0.67743  1.0000
  C   C5191     1.0  0.71246  0.66454  0.68171  1.0000
  C   C5192     1.0  0.73412  0.65659  0.67547  1.0000
  C   C5193     1.0  0.74577  0.67017  0.66466  1.0000
  C   C5194     1.0  0.73584  0.69196  0.66043  1.0000
  C   C5195     1.0  0.71437  0.70008  0.66693  1.0000
  H   H4151     1.0  0.70338  0.65377  0.68986  1.0000
  H   H4152     1.0  0.74157  0.63982  0.67884  1.0000
  H   H4153     1.0  0.74482  0.70259  0.65213  1.0000
  H   H4154     1.0  0.70691  0.71693  0.66372  1.0000
  C   C5196     1.0  0.57093  0.73803  0.65440  1.0000
  C   C5197     1.0  0.54850  0.73769  0.65391  1.0000
  C   C5198     1.0  0.54264  0.72583  0.64472  1.0000
  C   C5199     1.0  0.55920  0.71384  0.63606  1.0000
  C   C5200     1.0  0.58156  0.71470  0.63632  1.0000
  C   C5201     1.0  0.58739  0.72692  0.64527  1.0000
  H   H4155     1.0  0.53557  0.74644  0.66081  1.0000
  H   H4156     1.0  0.52537  0.72539  0.64467  1.0000
  H   H4157     1.0  0.59445  0.70592  0.62948  1.0000
  H   H4158     1.0  0.60458  0.72792  0.64506  1.0000
  C   C5202     1.0  0.67141  0.82571  0.64578  1.0000
  C   C5203     1.0  0.66848  0.83358  0.65845  1.0000
  C   C5204     1.0  0.67164  0.85524  0.65843  1.0000
  C   C5205     1.0  0.67689  0.86954  0.64577  1.0000
  C   C5206     1.0  0.67982  0.86160  0.63308  1.0000
  C   C5207     1.0  0.67724  0.83975  0.63310  1.0000
  H   H4159     1.0  0.66413  0.82281  0.66824  1.0000
  H   H4160     1.0  0.67019  0.86081  0.66828  1.0000
  H   H4161     1.0  0.68432  0.87214  0.62325  1.0000
  H   H4162     1.0  0.67960  0.83376  0.62324  1.0000
  C   C5208     1.0  0.65336  0.79447  0.75016  1.0000
  C   C5209     1.0  0.66515  0.79177  0.73667  1.0000
  C   C5210     1.0  0.65496  0.78580  0.72665  1.0000
  C   C5211     1.0  0.63260  0.78312  0.72984  1.0000
  C   C5212     1.0  0.62078  0.78589  0.74332  1.0000
  C   C5213     1.0  0.63113  0.79126  0.75348  1.0000
  H   H4163     1.0  0.68232  0.79426  0.73396  1.0000
  H   H4164     1.0  0.66433  0.78352  0.71641  1.0000
  H   H4165     1.0  0.60347  0.78389  0.74591  1.0000
  C   C5214     1.0  0.96321  0.78307  0.59102  1.0000
  H   H4166     1.0  0.97013  0.67588  0.57961  1.0000
  C   C5215     1.0  0.54135  0.77527  0.57183  1.0000
  C   C5216     1.0  0.60477  0.80083  0.57672  1.0000
  H   H4167     1.0  0.66965  0.61607  0.64943  1.0000
  C   C5217     1.0  0.60883  0.72745  0.59902  1.0000
  Fe  Fe356     1.0  0.98645  0.72972  0.60763  1.0000
  C   C5218     1.0  0.53492  0.96059  0.59591  1.0000
  C   C5219     1.0  0.61610  0.65972  0.62368  1.0000
  C   C5220     1.0  0.63760  0.92376  0.57402  1.0000
  C   C5221     1.0  0.80400  0.85115  0.59083  1.0000
  C   C5222     1.0  0.62650  0.72004  0.60650  1.0000
  C   C5223     1.0  0.50240  0.77088  0.57730  1.0000
  C   C5224     1.0  0.52469  0.76234  0.57810  1.0000
  C   C5225     1.0  0.82499  0.68381  0.74258  1.0000
  H   H4168     1.0  0.52914  0.74566  0.58337  1.0000
  H   H4169     1.0  0.77439  0.67094  0.76714  1.0000
  C   C5226     1.0  0.76974  0.50388  0.63706  1.0000
  C   C5227     1.0  0.77179  0.52636  0.63244  1.0000
  C   C5228     1.0  0.77851  0.53895  0.64096  1.0000
  C   C5229     1.0  0.78327  0.52938  0.65442  1.0000
  C   C5230     1.0  0.78115  0.50692  0.65904  1.0000
  H   H4170     1.0  0.76819  0.53415  0.62214  1.0000
  H   H4171     1.0  0.77998  0.55609  0.63712  1.0000
  C   C5231     1.0  0.68152  0.70424  0.64203  1.0000
  C   C5232     1.0  0.69019  0.72328  0.63511  1.0000
  C   C5233     1.0  0.81409  0.91926  0.58357  1.0000
  C   C5234     1.0  0.79727  0.92782  0.59381  1.0000
  C   C5235     1.0  0.77467  0.92841  0.59330  1.0000
  C   C5236     1.0  0.76864  0.91997  0.58271  1.0000
  C   C5237     1.0  0.67639  0.48335  0.61275  1.0000
  S   S713      1.0  0.62586  0.95021  0.59461  1.0000
  H   H4172     1.0  0.80170  0.93436  0.60207  1.0000
  H   H4173     1.0  0.76191  0.93594  0.60087  1.0000
  C   C5238     1.0  0.65669  0.97566  0.67245  1.0000
  H   H4174     1.0  0.87616  0.66611  0.74569  1.0000
  H   H4175     1.0  0.50915  0.67125  0.67001  1.0000
  C   C5239     1.0  0.94465  0.77444  0.58984  1.0000
  H   H4176     1.0  0.64636  0.72854  0.61970  1.0000
  C   C5240     1.0  0.63305  0.73433  0.61360  1.0000
  C   C5241     1.0  0.94647  0.81941  0.57997  1.0000
  C   C5242     1.0  0.97565  0.54838  0.58011  1.0000
  H   H4177     1.0  0.94379  0.75714  0.59362  1.0000
  H   H4178     1.0  0.60870  0.82119  0.65230  1.0000
  H   H4179     1.0  0.64038  0.92808  0.66581  1.0000
  C   C5243     1.0  0.59336  0.92195  0.57251  1.0000
  H   H4180     1.0  0.97793  0.75664  0.64509  1.0000
  H   H4181     1.0  0.66851  0.96107  0.65370  1.0000
  H   H4182     1.0  0.83875  0.67038  0.74211  1.0000
  H   H4183     1.0  0.57594  0.80216  0.65534  1.0000
  H   H4184     1.0  0.71795  0.71474  0.72974  1.0000
  H   H4185     1.0  0.80475  0.51712  0.57230  1.0000
  C   C5244     1.0  0.92714  0.78818  0.58372  1.0000
  S   S714      1.0  0.66688  0.80304  0.76208  1.0000
  C   C5245     1.0  0.71868  0.72075  0.73919  1.0000
  C   C5246     1.0  0.71083  0.64618  0.64731  1.0000
  H   H4186     1.0  0.58487  0.94133  0.58925  1.0000
  S   S715      1.0  0.49074  0.72322  0.62097  1.0000
  C   C5247     1.0  0.72433  0.60699  0.65239  1.0000
  S   S716      1.0  0.49713  0.63879  0.59517  1.0000
  H   H4187     1.0  0.95875  0.92197  0.59665  1.0000
  C   C5248     1.0  0.94735  0.57512  0.59109  1.0000
  H   H4188     1.0  0.97300  0.85463  0.63669  1.0000
  P   P176      1.0  0.93925  0.59449  0.60330  1.0000
  H   H4189     1.0  0.54646  0.68833  0.66315  1.0000
  C   C5249     1.0  0.94854  0.62037  0.59531  1.0000
  C   C5250     1.0  0.93849  0.63963  0.60080  1.0000
  C   C5251     1.0  0.94613  0.65961  0.59510  1.0000
  H   H4190     1.0  0.85624  0.53754  0.56922  1.0000
  H   H4191     1.0  0.70829  0.50053  0.63797  1.0000
  H   H4192     1.0  0.91658  0.58277  0.58265  1.0000
  C   C5252     1.0  0.55771  0.48072  0.57213  1.0000
  C   C5253     1.0  0.70132  0.74409  0.75658  1.0000
  H   H4193     1.0  0.77122  0.65321  0.72611  1.0000
  H   H4194     1.0  0.60440  0.50289  0.59652  1.0000
  H   H4195     1.0  0.78471  0.49916  0.66937  1.0000
  C   C5254     1.0  0.90929  0.59943  0.60801  1.0000
  C   C5255     1.0  0.89656  0.61481  0.59907  1.0000
  C   C5256     1.0  0.87341  0.61906  0.60264  1.0000
  C   C5257     1.0  0.86275  0.60785  0.61510  1.0000
  C   C5258     1.0  0.87523  0.59235  0.62394  1.0000
  C   C5259     1.0  0.89840  0.58828  0.62052  1.0000
  H   H4196     1.0  0.94354  0.55061  0.62049  1.0000
  C   C5260     1.0  0.77705  0.93851  0.63961  1.0000
  C   C5261     1.0  0.73656  0.71272  0.74657  1.0000
  C   C5262     1.0  0.53330  0.97199  0.57097  1.0000
  H   H4197     1.0  0.92501  0.63917  0.60968  1.0000
  H   H4198     1.0  0.83352  0.86222  0.57810  1.0000
  C   C5263     1.0  0.77454  0.49430  0.65049  1.0000
  H   H4199     1.0  0.53663  0.96441  0.60587  1.0000
  H   H4200     1.0  0.73119  0.65883  0.74103  1.0000
  C   C5264     1.0  0.95098  0.64244  0.66525  1.0000
  H   H4201     1.0  0.59817  0.94253  0.70423  1.0000
  H   H4202     1.0  0.79327  0.86146  0.58387  1.0000
  S   S717      1.0  0.98576  0.76628  0.59851  1.0000
  S   S718      1.0  0.97723  0.71855  0.63087  1.0000
  H   H4203     1.0  0.90457  0.62374  0.58941  1.0000
  H   H4204     1.0  0.86374  0.63129  0.59588  1.0000
  H   H4205     1.0  0.84485  0.61139  0.61807  1.0000
  H   H4206     1.0  0.86696  0.58400  0.63375  1.0000
  H   H4207     1.0  0.90756  0.57680  0.62787  1.0000
  H   H4208     1.0  0.63431  0.50825  0.64168  1.0000
  C   C5265     1.0  0.94752  0.67859  0.67144  1.0000
  H   H4209     1.0  0.69217  0.73536  0.64111  1.0000
  C   C5266     1.0  0.62040  0.93428  0.58304  1.0000
  C   C5267     1.0  0.96874  0.56269  0.58993  1.0000
  C   C5268     1.0  0.72809  0.62880  0.64994  1.0000
  C   C5269     1.0  0.73939  0.65403  0.75017  1.0000
  C   C5270     1.0  0.68509  0.69207  0.61969  1.0000
  H   H4210     1.0  0.81629  0.66565  0.70144  1.0000
  C   C5271     1.0  0.61259  0.50530  0.66161  1.0000
  H   H4211     1.0  0.68760  0.74294  0.73833  1.0000
  H   H4212     1.0  0.56698  0.78972  0.63521  1.0000
  H   H4213     1.0  0.81350  0.54420  0.75413  1.0000
  H   H4214     1.0  0.71297  0.88623  0.57866  1.0000
  Fe  Fe357     1.0  0.48892  0.72202  0.59860  1.0000
  C   C5272     1.0  0.68965  0.64181  0.64691  1.0000
  H   H4215     1.0  0.53190  0.92656  0.60426  1.0000
  C   C5273     1.0  0.53040  0.93421  0.58214  1.0000
  C   C5274     1.0  0.69509  0.49363  0.60736  1.0000
  C   C5275     1.0  0.70634  0.50010  0.61645  1.0000
  H   H4216     1.0  0.67931  0.63782  0.62060  1.0000
  C   C5276     1.0  0.79091  0.55903  0.73982  1.0000
  H   H4217     1.0  0.77611  0.92480  0.64825  1.0000
  C   C5277     1.0  0.51524  0.66194  0.71934  1.0000
  C   C5278     1.0  0.82683  0.85182  0.58755  1.0000
  H   H4218     1.0  0.98081  0.59721  0.64086  1.0000
  C   C5279     1.0  0.83235  0.82674  0.60909  1.0000
  C   C5280     1.0  0.80947  0.82623  0.61249  1.0000
  C   C5281     1.0  0.79522  0.83770  0.60309  1.0000
  H   H4219     1.0  0.81421  0.96971  0.61935  1.0000
  P   P177      1.0  0.76557  0.83769  0.60768  1.0000
  C   C5282     1.0  0.75307  0.84727  0.59205  1.0000
  C   C5283     1.0  0.75781  0.81064  0.61420  1.0000
  C   C5284     1.0  0.77368  0.79137  0.61423  1.0000
  C   C5285     1.0  0.76715  0.77069  0.61941  1.0000
  C   C5286     1.0  0.74474  0.76906  0.62434  1.0000
  C   C5287     1.0  0.72878  0.78806  0.62381  1.0000
  C   C5288     1.0  0.73524  0.80872  0.61859  1.0000
  C   C5289     1.0  0.73576  0.86526  0.59134  1.0000
  C   C5290     1.0  0.95855  0.66262  0.66331  1.0000
  C   C5291     1.0  0.68031  0.48584  0.63638  1.0000
  C   C5292     1.0  0.98084  0.94507  0.59559  1.0000
  H   H4220     1.0  0.77312  0.47715  0.65435  1.0000
  C   C5293     1.0  0.75553  0.85650  0.62011  1.0000
  C   C5294     1.0  0.74254  0.85030  0.63322  1.0000
  C   C5295     1.0  0.73448  0.86555  0.64238  1.0000
  C   C5296     1.0  0.73964  0.88689  0.63868  1.0000
  C   C5297     1.0  0.75316  0.89293  0.62588  1.0000
  C   C5298     1.0  0.76100  0.87785  0.61661  1.0000
  H   H4221     1.0  0.85959  0.48352  0.56876  1.0000
  C   C5299     1.0  0.96384  0.66051  0.58387  1.0000
  H   H4222     1.0  0.84339  0.81752  0.61622  1.0000
  H   H4223     1.0  0.80292  0.81692  0.62244  1.0000
  H   H4224     1.0  0.95919  0.63033  0.65866  1.0000
  H   H4225     1.0  0.79103  0.79208  0.61017  1.0000
  H   H4226     1.0  0.77948  0.75589  0.61963  1.0000
  H   H4227     1.0  0.73973  0.75307  0.62852  1.0000
  H   H4228     1.0  0.71135  0.78686  0.62755  1.0000
  H   H4229     1.0  0.72259  0.82327  0.61816  1.0000
  H   H4230     1.0  0.72962  0.87417  0.60007  1.0000
  H   H4231     1.0  0.77342  0.82189  0.58102  1.0000
  H   H4232     1.0  0.55260  0.49809  0.56860  1.0000
  H   H4233     1.0  0.97498  0.60670  0.57993  1.0000
  C   C5300     1.0  0.94003  0.55883  0.57228  1.0000
  H   H4234     1.0  0.73837  0.83389  0.63647  1.0000
  H   H4235     1.0  0.72375  0.86097  0.65224  1.0000
  H   H4236     1.0  0.73283  0.89880  0.64566  1.0000
  H   H4237     1.0  0.75728  0.90941  0.62298  1.0000
  H   H4238     1.0  0.77112  0.88296  0.60661  1.0000
  H   H4239     1.0  0.74918  0.71326  0.76556  1.0000
  H   H4240     1.0  0.60526  0.78359  0.57644  1.0000
  C   C5301     1.0  0.95206  0.58309  0.61869  1.0000
  C   C5302     1.0  0.96404  0.80563  0.58607  1.0000
  C   C5303     1.0  0.62261  0.48579  0.61305  1.0000
  C   C5304     1.0  0.97566  0.92531  0.59356  1.0000
  H   H4241     1.0  0.63479  0.70312  0.60703  1.0000
  C   C5305     1.0  0.69630  0.72674  0.62050  1.0000
  H   H4242     1.0  0.96669  0.86976  0.61226  1.0000
  H   H4243     1.0  0.61724  0.64312  0.60631  1.0000
  C   C5306     1.0  0.67860  0.68863  0.63437  1.0000
  C   C5307     1.0  0.92792  0.81070  0.57875  1.0000
  H   H4244     1.0  0.52838  0.91767  0.58143  1.0000
  C   C5308     1.0  0.57601  0.66468  0.66348  1.0000
  H   H4245     1.0  0.85880  0.83981  0.59391  1.0000
  C   C5309     1.0  0.53091  0.95049  0.57016  1.0000
  H   H4246     1.0  0.88494  0.51940  0.58388  1.0000
  C   C5310     1.0  0.70324  0.60250  0.65217  1.0000
  H   H4247     1.0  0.95314  0.69440  0.66967  1.0000
  H   H4248     1.0  0.96799  0.95714  0.60016  1.0000
  C   C5311     1.0  0.66879  0.47942  0.62729  1.0000
  C   C5312     1.0  0.58243  0.64430  0.68626  1.0000
  Fe  Fe358     1.0  0.68710  0.97019  0.61392  1.0000
  H   H4249     1.0  0.58114  0.66843  0.65219  1.0000
  C   C5313     1.0  0.96147  0.55199  0.63678  1.0000
  C   C5314     1.0  0.75393  0.66698  0.75257  1.0000
  C   C5315     1.0  0.68594  0.61982  0.64946  1.0000
  C   C5316     1.0  0.73550  0.63467  0.75950  1.0000
  H   H4250     1.0  0.85965  0.57954  0.76447  1.0000
  C   C5317     1.0  0.65690  0.97384  0.65849  1.0000
  Fe  Fe359     1.0  0.87187  0.90668  0.56864  1.0000
  C   C5318     1.0  0.53233  0.93925  0.59502  1.0000
  C   C5319     1.0  0.64944  0.63888  0.61248  1.0000
  C   C5320     1.0  0.54888  0.67123  0.68432  1.0000
  H   H4251     1.0  0.69879  0.71369  0.60147  1.0000
  H   H4252     1.0  0.74443  0.63225  0.65023  1.0000
  H   H4253     1.0  0.91289  0.78129  0.58283  1.0000
  C   C5321     1.0  0.96299  0.59599  0.62444  1.0000
  H   H4254     1.0  0.70299  0.74153  0.61518  1.0000
  H   H4255     1.0  0.64135  0.51087  0.57626  1.0000
  H   H4256     1.0  0.70037  0.58555  0.65417  1.0000
  H   H4257     1.0  0.62463  0.81384  0.60897  1.0000
  C   C5322     1.0  0.62822  0.66463  0.63292  1.0000
  C   C5323     1.0  0.64964  0.66946  0.65972  1.0000
  C   C5324     1.0  0.65128  0.65457  0.67231  1.0000
  C   C5325     1.0  0.63747  0.65908  0.68483  1.0000
  C   C5326     1.0  0.62189  0.67839  0.68485  1.0000
  C   C5327     1.0  0.62017  0.69326  0.67238  1.0000
  C   C5328     1.0  0.63421  0.68897  0.65993  1.0000
  H   H4258     1.0  0.59846  0.66607  0.62435  1.0000
  H   H4259     1.0  0.61958  0.67480  0.64058  1.0000
  H   H4260     1.0  0.66359  0.63984  0.67267  1.0000
  H   H4261     1.0  0.63941  0.64801  0.69460  1.0000
  H   H4262     1.0  0.61159  0.68215  0.69459  1.0000
  H   H4263     1.0  0.60834  0.70840  0.67242  1.0000
  H   H4264     1.0  0.63327  0.70099  0.65045  1.0000
  H   H4265     1.0  0.67716  0.70173  0.65339  1.0000
  H   H4266     1.0  0.71411  0.66295  0.64575  1.0000
  C   C5329     1.0  0.63237  0.92268  0.67647  1.0000
  C   C5330     1.0  0.61889  0.93791  0.68438  1.0000
  C   C5331     1.0  0.60860  0.93072  0.69807  1.0000
  C   C5332     1.0  0.61159  0.90826  0.70379  1.0000
  C   C5333     1.0  0.62509  0.89281  0.69589  1.0000
  C   C5334     1.0  0.63543  0.90028  0.68218  1.0000
  P   P178      1.0  0.62781  0.86356  0.70278  1.0000
  C   C5335     1.0  0.62084  0.85919  0.72177  1.0000
  C   C5336     1.0  0.60953  0.85117  0.69554  1.0000
  C   C5337     1.0  0.60076  0.83250  0.70327  1.0000
  C   C5338     1.0  0.58663  0.82283  0.69776  1.0000
  C   C5339     1.0  0.58130  0.83153  0.68441  1.0000
  C   C5340     1.0  0.59029  0.84983  0.67651  1.0000
  C   C5341     1.0  0.60440  0.85959  0.68201  1.0000
  C   C5342     1.0  0.63761  0.85398  0.73014  1.0000
  C   C5343     1.0  0.63209  0.85019  0.74480  1.0000
  C   C5344     1.0  0.60988  0.85125  0.75123  1.0000
  C   C5345     1.0  0.59307  0.85659  0.74301  1.0000
  C   C5346     1.0  0.59850  0.86070  0.72833  1.0000
  C   C5347     1.0  0.65605  0.85026  0.69817  1.0000
  C   C5348     1.0  0.67387  0.86196  0.69635  1.0000
  C   C5349     1.0  0.69573  0.85151  0.69291  1.0000
  C   C5350     1.0  0.69998  0.82928  0.69146  1.0000
  C   C5351     1.0  0.68238  0.81743  0.69356  1.0000
  C   C5352     1.0  0.66050  0.82782  0.69697  1.0000
  C   C5353     1.0  0.79694  0.55295  0.75317  1.0000
  H   H4267     1.0  0.80255  0.66518  0.73800  1.0000
  H   H4268     1.0  0.92104  0.50086  0.57308  1.0000
  H   H4269     1.0  0.60330  0.90308  0.71435  1.0000
  H   H4270     1.0  0.64560  0.88880  0.67575  1.0000
  H   H4271     1.0  0.60517  0.82506  0.71347  1.0000
  H   H4272     1.0  0.58039  0.80813  0.70372  1.0000
  H   H4273     1.0  0.57071  0.82370  0.68007  1.0000
  H   H4274     1.0  0.58660  0.85627  0.66602  1.0000
  H   H4275     1.0  0.61142  0.87346  0.67557  1.0000
  H   H4276     1.0  0.65499  0.85245  0.72549  1.0000
  H   H4277     1.0  0.64513  0.84584  0.75119  1.0000
  C   C5354     1.0  0.80806  0.90995  0.57334  1.0000
  H   H4278     1.0  0.57586  0.85723  0.74801  1.0000
  H   H4279     1.0  0.58529  0.86469  0.72210  1.0000
  H   H4280     1.0  0.67091  0.87912  0.69758  1.0000
  H   H4281     1.0  0.70940  0.86066  0.69136  1.0000
  H   H4282     1.0  0.68565  0.80017  0.69249  1.0000
  H   H4283     1.0  0.64714  0.81823  0.69865  1.0000
  C   C5355     1.0  0.90011  0.58274  0.71333  1.0000
  C   C5356     1.0  0.88970  0.57539  0.70416  1.0000
  C   C5357     1.0  0.88212  0.59014  0.69285  1.0000
  C   C5358     1.0  0.88466  0.61230  0.69078  1.0000
  C   C5359     1.0  0.89484  0.61988  0.70005  1.0000
  C   C5360     1.0  0.90287  0.60487  0.71123  1.0000
  P   P179      1.0  0.89794  0.64857  0.69727  1.0000
  C   C5361     1.0  0.87231  0.66454  0.69235  1.0000
  C   C5362     1.0  0.90301  0.65482  0.71348  1.0000
  C   C5363     1.0  0.88541  0.65953  0.72438  1.0000
  C   C5364     1.0  0.88971  0.66299  0.73716  1.0000
  H   H4284     1.0  0.94728  0.83671  0.57620  1.0000
  C   C5365     1.0  0.92915  0.65707  0.72843  1.0000
  C   C5366     1.0  0.92496  0.65339  0.71569  1.0000
  C   C5367     1.0  0.87244  0.68124  0.68048  1.0000
  C   C5368     1.0  0.85243  0.69236  0.67630  1.0000
  C   C5369     1.0  0.83217  0.68689  0.68389  1.0000
  C   C5370     1.0  0.83191  0.67029  0.69568  1.0000
  C   C5371     1.0  0.85185  0.65910  0.69981  1.0000
  C   C5372     1.0  0.92130  0.65407  0.68365  1.0000
  C   C5373     1.0  0.93231  0.63820  0.67530  1.0000
  C   C5374     1.0  0.60171  0.49114  0.67246  1.0000
  C   C5375     1.0  0.60808  0.48752  0.60354  1.0000
  C   C5376     1.0  0.84791  0.47895  0.57815  1.0000
  C   C5377     1.0  0.92902  0.67432  0.68162  1.0000
  H   H4285     1.0  0.90594  0.57131  0.72213  1.0000
  H   H4286     1.0  0.88747  0.55828  0.70578  1.0000
  H   H4287     1.0  0.87422  0.58444  0.68564  1.0000
  H   H4288     1.0  0.87864  0.62349  0.68193  1.0000
  H   H4289     1.0  0.91091  0.61020  0.71849  1.0000
  H   H4290     1.0  0.86841  0.66010  0.72323  1.0000
  H   H4291     1.0  0.72459  0.62456  0.75743  1.0000
  C   C5378     1.0  0.65826  0.48101  0.56880  1.0000
  H   H4292     1.0  0.94609  0.65596  0.73006  1.0000
  H   H4293     1.0  0.93893  0.64907  0.70769  1.0000
  H   H4294     1.0  0.88785  0.68536  0.67413  1.0000
  H   H4295     1.0  0.85270  0.70490  0.66698  1.0000
  H   H4296     1.0  0.81670  0.69520  0.68050  1.0000
  H   H4297     1.0  0.71690  0.82119  0.68875  1.0000
  H   H4298     1.0  0.85131  0.64584  0.70866  1.0000
  H   H4299     1.0  0.92647  0.62265  0.67638  1.0000
  S   S719      1.0  0.97122  0.70380  0.60168  1.0000
  C   C5379     1.0  0.96137  0.54650  0.57124  1.0000
  C   C5380     1.0  0.88831  0.51928  0.57264  1.0000
  H   H4300     1.0  0.92061  0.68687  0.68785  1.0000
  C   C5381     1.0  0.95160  0.56093  0.62487  1.0000
  S   S720      1.0  0.90352  0.88908  0.57649  1.0000
  C   C5382     1.0  0.50634  0.70032  0.67949  1.0000
  C   C5383     1.0  0.76026  0.70500  0.69796  1.0000
  C   C5384     1.0  0.76617  0.68406  0.69414  1.0000
  C   C5385     1.0  0.76981  0.66550  0.70439  1.0000
  C   C5386     1.0  0.76748  0.66781  0.71848  1.0000
  C   C5387     1.0  0.76073  0.68872  0.72252  1.0000
  C   C5388     1.0  0.75785  0.70737  0.71207  1.0000
  C   C5389     1.0  0.78594  0.69754  0.74183  1.0000
  C   C5390     1.0  0.78883  0.71792  0.74453  1.0000
  C   C5391     1.0  0.80961  0.72093  0.74660  1.0000
  H   H4301     1.0  0.60492  0.64052  0.66686  1.0000
  H   H4302     1.0  0.68787  0.75640  0.76036  1.0000
  C   C5392     1.0  0.80433  0.68079  0.74043  1.0000
  H   H4303     1.0  0.75761  0.71937  0.68995  1.0000
  H   H4304     1.0  0.76820  0.68221  0.68321  1.0000
  H   H4305     1.0  0.77476  0.64928  0.70137  1.0000
  H   H4306     1.0  0.75382  0.72376  0.71480  1.0000
  P   P180      1.0  0.75904  0.69198  0.74059  1.0000
  H   H4307     1.0  0.77515  0.73138  0.74531  1.0000
  H   H4308     1.0  0.72570  0.83861  0.76568  1.0000
  H   H4309     1.0  0.96406  0.61296  0.61977  1.0000
  C   C5393     1.0  0.79725  0.94611  0.63422  1.0000
  H   H4310     1.0  0.84352  0.70595  0.74783  1.0000
  C   C5394     1.0  0.69894  0.49624  0.63095  1.0000
  H   H4311     1.0  0.66851  0.47763  0.60557  1.0000
  H   H4312     1.0  0.97832  0.81246  0.58697  1.0000
  C   C5395     1.0  0.76364  0.66088  0.76479  1.0000
  H   H4313     1.0  0.49848  0.78424  0.60801  1.0000
  P   P181      1.0  0.52364  0.68674  0.69249  1.0000
  H   H4314     1.0  0.74229  0.94304  0.63827  1.0000
  C   C5396     1.0  0.84106  0.83937  0.59656  1.0000
  H   H4315     1.0  0.60329  0.71625  0.59381  1.0000
  H   H4316     1.0  0.67538  0.48217  0.64766  1.0000
  C   C5397     1.0  0.97389  0.64144  0.57835  1.0000
  C   C5398     1.0  0.56233  0.65541  0.69256  1.0000
  C   C5399     1.0  0.62621  0.49702  0.65009  1.0000
  C   C5400     1.0  0.49015  0.66060  0.70367  1.0000
  H   H4317     1.0  0.81929  0.96494  0.59292  1.0000
  C   C5401     1.0  0.49716  0.72275  0.67881  1.0000
  C   C5402     1.0  0.53119  0.70725  0.70049  1.0000
  C   C5403     1.0  0.51688  0.71542  0.71192  1.0000
  C   C5404     1.0  0.52287  0.73110  0.71822  1.0000
  C   C5405     1.0  0.54304  0.73889  0.71307  1.0000
  C   C5406     1.0  0.55713  0.73114  0.70155  1.0000
  C   C5407     1.0  0.55124  0.71546  0.69522  1.0000
  H   H4318     1.0  0.93851  0.67432  0.59956  1.0000
  C   C5408     1.0  0.78172  0.55822  0.76509  1.0000
  H   H4319     1.0  0.49532  0.59612  0.58920  1.0000
  H   H4320     1.0  0.60582  0.84763  0.76260  1.0000
  H   H4321     1.0  0.55758  0.65184  0.70384  1.0000
  H   H4322     1.0  0.59285  0.63228  0.69268  1.0000
  C   C5409     1.0  0.72613  0.87212  0.57918  1.0000
  C   C5410     1.0  0.73605  0.71982  0.75936  1.0000
  C   C5411     1.0  0.82763  0.70381  0.74578  1.0000
  H   H4323     1.0  0.50107  0.70977  0.71593  1.0000
  H   H4324     1.0  0.51187  0.73730  0.72708  1.0000
  H   H4325     1.0  0.54775  0.75109  0.71788  1.0000
  H   H4326     1.0  0.57253  0.73757  0.69736  1.0000
  H   H4327     1.0  0.56226  0.71008  0.68611  1.0000
  C   C5412     1.0  0.91152  0.66185  0.73917  1.0000
  H   H4328     1.0  0.68349  0.68012  0.61354  1.0000
  C   C5413     1.0  0.70127  0.73656  0.74412  1.0000
  H   H4329     1.0  0.52204  0.75617  0.62260  1.0000
  H   H4330     1.0  0.50045  0.73249  0.68589  1.0000
  C   C5414     1.0  0.75804  0.94868  0.63392  1.0000
  H   H4331     1.0  0.70138  0.49580  0.59618  1.0000
  H   H4332     1.0  0.52843  0.47859  0.58794  1.0000
  C   C5415     1.0  0.77961  0.97365  0.61696  1.0000
  C   C5416     1.0  0.59828  0.93325  0.58230  1.0000
  C   C5417     1.0  0.55606  0.67589  0.66975  1.0000
  C   C5418     1.0  0.97195  0.56506  0.64257  1.0000
  H   H4333     1.0  0.91472  0.66439  0.74914  1.0000
  Fe  Fe360     1.0  0.96384  0.69112  0.62500  1.0000
  H   H4334     1.0  0.80287  0.55556  0.73057  1.0000
  C   C5419     1.0  0.76965  0.57026  0.73825  1.0000
  C   C5420     1.0  0.75439  0.57553  0.75002  1.0000
  C   C5421     1.0  0.76034  0.56949  0.76341  1.0000
  C   C5422     1.0  0.69386  0.71109  0.61280  1.0000
  C   C5423     1.0  0.95010  0.97364  0.57104  1.0000
  C   C5424     1.0  0.62670  0.64683  0.61348  1.0000
  C   C5425     1.0  0.65107  0.65660  0.63209  1.0000
  H   H4335     1.0  0.86984  0.48138  0.59205  1.0000
  H   H4336     1.0  0.81199  0.93829  0.63868  1.0000
  C   C5426     1.0  0.76035  0.83606  0.58053  1.0000
  H   H4337     1.0  0.63293  0.82666  0.62920  1.0000
  H   H4338     1.0  0.61041  0.52273  0.66210  1.0000
  H   H4339     1.0  0.65768  0.62899  0.60450  1.0000
  H   H4340     1.0  0.76526  0.57534  0.72782  1.0000
  H   H4341     1.0  0.73802  0.58445  0.74869  1.0000
  H   H4342     1.0  0.79348  0.97366  0.57789  1.0000
  C   C5427     1.0  0.52421  0.80421  0.59958  1.0000
  C   C5428     1.0  0.51543  0.78618  0.60804  1.0000
  C   C5429     1.0  0.52873  0.77031  0.61620  1.0000
  C   C5430     1.0  0.55087  0.77233  0.61580  1.0000
  C   C5431     1.0  0.56002  0.79006  0.60702  1.0000
  C   C5432     1.0  0.54643  0.80615  0.59901  1.0000
  P   P182      1.0  0.58919  0.79139  0.60564  1.0000
  C   C5433     1.0  0.60439  0.76372  0.60556  1.0000
  C   C5434     1.0  0.59776  0.80922  0.58937  1.0000
  H   H4343     1.0  0.97264  0.66614  0.65529  1.0000
  H   H4344     1.0  0.73777  0.59361  0.65457  1.0000
  H   H4345     1.0  0.52932  0.66780  0.72153  1.0000
  C   C5435     1.0  0.50203  0.68846  0.66986  1.0000
  C   C5436     1.0  0.59607  0.83201  0.58911  1.0000
  C   C5437     1.0  0.59782  0.74919  0.59853  1.0000
  C   C5438     1.0  0.62212  0.75608  0.61311  1.0000
  C   C5439     1.0  0.59454  0.80173  0.62036  1.0000
  C   C5440     1.0  0.58106  0.79830  0.63359  1.0000
  C   C5441     1.0  0.58608  0.80539  0.64507  1.0000
  C   C5442     1.0  0.60457  0.81592  0.64342  1.0000
  C   C5443     1.0  0.61824  0.81908  0.63035  1.0000
  C   C5444     1.0  0.61339  0.81186  0.61889  1.0000
  H   H4346     1.0  0.51404  0.81629  0.59302  1.0000
  C   C5445     1.0  0.76361  0.97541  0.56992  1.0000
  C   C5446     1.0  0.50850  0.66854  0.70611  1.0000
  H   H4347     1.0  0.56103  0.75973  0.62206  1.0000
  H   H4348     1.0  0.55298  0.81986  0.59196  1.0000
  H   H4349     1.0  0.60071  0.86355  0.57634  1.0000
  H   H4350     1.0  0.81966  0.57952  0.76592  1.0000
  C   C5447     1.0  0.85363  0.47818  0.59132  1.0000
  H   H4351     1.0  0.58977  0.83912  0.59857  1.0000
  H   H4352     1.0  0.58393  0.75455  0.59285  1.0000
  H   H4353     1.0  0.62737  0.76668  0.61886  1.0000
  C   C5448     1.0  0.71862  0.73559  0.76424  1.0000
  H   H4354     1.0  0.59114  0.49759  0.68138  1.0000
  H   H4355     1.0  0.65469  0.92450  0.57446  1.0000
  H   H4356     1.0  0.96092  0.53492  0.64154  1.0000
  H   H4357     1.0  0.57633  0.92136  0.57192  1.0000
  H   H4358     1.0  0.81156  0.73629  0.74936  1.0000
  C   C5449     1.0  0.98061  0.85686  0.61418  1.0000
  C   C5450     1.0  0.64048  0.49823  0.57038  1.0000
  H   H4359     1.0  0.67281  0.48010  0.57356  1.0000
  H   H4360     1.0  0.75957  0.81027  0.76582  1.0000
  H   H4361     1.0  0.85774  0.96838  0.58216  1.0000
  H   H4362     1.0  0.66810  0.96425  0.67851  1.0000
  H   H4363     1.0  0.55857  0.76846  0.57234  1.0000
  C   C5451     1.0  0.60207  0.84597  0.57651  1.0000
  H   H4364     1.0  0.98029  0.56428  0.59648  1.0000
  H   H4365     1.0  0.50904  0.64292  0.74012  1.0000
  C   C5452     1.0  0.48861  0.69878  0.65985  1.0000
  H   H4366     1.0  0.97947  0.55814  0.65185  1.0000
  C   C5453     1.0  0.93304  0.57318  0.58213  1.0000
  H   H4367     1.0  0.92820  0.95068  0.57074  1.0000
  C   C5454     1.0  0.97273  0.58703  0.63639  1.0000
  H   H4368     1.0  0.74435  0.97376  0.61834  1.0000
  H   H4369     1.0  0.62178  0.79343  0.76375  1.0000
  C   C5455     1.0  0.78547  0.91027  0.57295  1.0000
  C   C5456     1.0  0.50375  0.64787  0.72993  1.0000
  C   C5457     1.0  0.73364  0.86106  0.56769  1.0000
  C   C5458     1.0  0.75075  0.84303  0.56836  1.0000
  Fe  Fe361     1.0  0.57442  0.54462  0.92788  1.0000
  S   S721      1.0  0.54330  0.55527  0.91833  1.0000
  S   S722      1.0  0.57661  0.56035  0.94636  1.0000
  Fe  Fe362     1.0  0.59611  0.51527  0.90605  1.0000
  S   S723      1.0  0.56625  0.52326  0.89510  1.0000
  H   H4370     1.0  0.77841  0.61316  0.80757  1.0000
  Fe  Fe363     1.0  0.56585  0.55834  0.89751  1.0000
  S   S724      1.0  0.56280  0.58566  0.87859  1.0000
  C   C5459     1.0  0.86379  0.52679  0.85064  1.0000
  S   S725      1.0  0.59709  0.55052  0.90704  1.0000
  H   H4371     1.0  0.65724  0.56264  0.95509  1.0000
  C   C5460     1.0  0.90231  0.52256  0.87555  1.0000
  Fe  Fe364     1.0  0.54590  0.51943  0.91679  1.0000
  C   C5461     1.0  0.57810  0.71678  0.85654  1.0000
  C   C5462     1.0  0.86444  0.54970  0.77950  1.0000
  C   C5463     1.0  0.60995  0.72035  0.79336  1.0000
  Fe  Fe365     1.0  0.73000  0.93751  0.85159  1.0000
  S   S726      1.0  0.72647  0.90305  0.84754  1.0000
  S   S727      1.0  0.73569  0.94123  0.87308  1.0000
  Fe  Fe366     1.0  0.66636  0.82654  0.80909  1.0000
  S   S728      1.0  0.65949  0.79769  0.82600  1.0000
  S   S729      1.0  0.67250  0.86046  0.81247  1.0000
  Fe  Fe367     1.0  0.65940  0.80168  0.78602  1.0000
  S   S730      1.0  0.65224  0.77129  0.80158  1.0000
  Fe  Fe368     1.0  0.63149  0.79476  0.81542  1.0000
  S   S731      1.0  0.60119  0.78654  0.83154  1.0000
  Fe  Fe369     1.0  0.68059  0.77618  0.81102  1.0000
  S   S732      1.0  0.70346  0.74584  0.81932  1.0000
  S   S733      1.0  0.63653  0.82533  0.79926  1.0000
  S   S734      1.0  0.68942  0.80493  0.79473  1.0000
  Fe  Fe370     1.0  0.86179  0.66384  0.80028  1.0000
  S   S735      1.0  0.82794  0.67509  0.81199  1.0000
  S   S736      1.0  0.89544  0.66700  0.80553  1.0000
  H   H4372     1.0  0.89282  0.52281  0.81232  1.0000
  S   S737      1.0  0.80676  0.65354  0.79010  1.0000
  Fe  Fe371     1.0  0.81752  0.68554  0.79072  1.0000
  S   S738      1.0  0.79755  0.71836  0.78324  1.0000
  Fe  Fe372     1.0  0.82022  0.64205  0.81042  1.0000
  S   S739      1.0  0.80121  0.62339  0.82973  1.0000
  H   H4373     1.0  0.56177  0.73347  0.87384  1.0000
  S   S740      1.0  0.85468  0.62988  0.79995  1.0000
  Fe  Fe373     1.0  0.93665  0.55787  0.92098  1.0000
  S   S741      1.0  0.90550  0.54821  0.93483  1.0000
  S   S742      1.0  0.93634  0.59485  0.91701  1.0000
  Fe  Fe374     1.0  0.95410  0.51053  0.91708  1.0000
  S   S743      1.0  0.92431  0.49741  0.93062  1.0000
  Fe  Fe375     1.0  0.90440  0.52682  0.91928  1.0000
  S   S744      1.0  0.87102  0.53041  0.91208  1.0000
  Fe  Fe376     1.0  0.92771  0.51988  0.94518  1.0000
  S   S745      1.0  0.93392  0.53863  0.90462  1.0000
  S   S746      1.0  0.95919  0.53076  0.93246  1.0000
  S   S747      1.0  0.80919  0.52115  0.83020  1.0000
  S   S748      1.0  0.78806  0.50306  0.87184  1.0000
  Fe  Fe377     1.0  0.84180  0.64390  0.77950  1.0000
  H   H4374     1.0  0.59268  0.72453  0.85509  1.0000
  S   S749      1.0  0.96409  0.70906  0.87710  1.0000
  H   H4375     1.0  0.55457  0.71908  0.79743  1.0000
  Fe  Fe378     1.0  0.95939  0.71646  0.85428  1.0000
  S   S750      1.0  0.92497  0.71670  0.84864  1.0000
  S   S751      1.0  0.85195  0.67679  0.77890  1.0000
  H   H4376     1.0  0.85562  0.52745  0.86140  1.0000
  H   H4377     1.0  0.61782  0.66240  0.81494  1.0000
  Fe  Fe379     1.0  0.79468  0.49875  0.84928  1.0000
  H   H4378     1.0  0.53851  0.76638  0.89205  1.0000
  H   H4379     1.0  0.64711  0.52615  0.90179  1.0000
  C   C5464     1.0  0.79494  0.74551  0.81593  1.0000
  C   C5465     1.0  0.85738  0.51302  0.84314  1.0000
  H   H4380     1.0  0.60950  0.58355  0.92584  1.0000
  C   C5466     1.0  0.64084  0.50030  0.93350  1.0000
  S   S752      1.0  0.52271  0.74403  0.81986  1.0000
  C   C5467     1.0  0.92402  0.58628  0.95373  1.0000
  C   C5468     1.0  0.74593  0.51820  0.93327  1.0000
  C   C5469     1.0  0.59563  0.70507  0.81748  1.0000
  H   H4381     1.0  0.79073  0.72909  0.81950  1.0000
  H   H4382     1.0  0.61614  0.73525  0.83045  1.0000
  H   H4383     1.0  0.91224  0.49632  0.89194  1.0000
  C   C5470     1.0  0.86098  0.50996  0.90598  1.0000
  C   C5471     1.0  0.84281  0.51638  0.89876  1.0000
  C   C5472     1.0  0.83437  0.50087  0.89356  1.0000
  C   C5473     1.0  0.88477  0.52389  0.82303  1.0000
  H   H4384     1.0  0.83519  0.53348  0.89713  1.0000
  H   H4385     1.0  0.82044  0.50618  0.88803  1.0000
  C   C5474     1.0  0.95638  0.61018  0.90625  1.0000
  C   C5475     1.0  0.95049  0.63314  0.90294  1.0000
  C   C5476     1.0  0.96572  0.64618  0.89442  1.0000
  H   H4386     1.0  0.92488  0.80108  0.89703  1.0000
  C   C5477     1.0  0.57114  0.71653  0.80002  1.0000
  C   C5478     1.0  0.69267  0.48239  0.88532  1.0000
  H   H4387     1.0  0.93401  0.64088  0.90695  1.0000
  H   H4388     1.0  0.96093  0.66381  0.89194  1.0000
  H   H4389     1.0  0.87317  0.93727  0.89917  1.0000
  C   C5479     1.0  0.61404  0.62995  0.82623  1.0000
  C   C5480     1.0  0.80476  0.59469  0.83045  1.0000
  C   C5481     1.0  0.81855  0.58474  0.81965  1.0000
  C   C5482     1.0  0.82023  0.56204  0.81993  1.0000
  C   C5483     1.0  0.80829  0.54910  0.83103  1.0000
  C   C5484     1.0  0.79514  0.55885  0.84214  1.0000
  C   C5485     1.0  0.79316  0.58169  0.84175  1.0000
  H   H4390     1.0  0.82750  0.59459  0.81088  1.0000
  H   H4391     1.0  0.83067  0.55457  0.81143  1.0000
  H   H4392     1.0  0.78612  0.54890  0.85083  1.0000
  H   H4393     1.0  0.78245  0.58933  0.85013  1.0000
  C   C5486     1.0  0.90309  0.68109  0.81762  1.0000
  C   C5487     1.0  0.92575  0.67933  0.81846  1.0000
  C   C5488     1.0  0.93273  0.69003  0.82784  1.0000
  C   C5489     1.0  0.91712  0.70276  0.83657  1.0000
  C   C5490     1.0  0.89442  0.70434  0.83584  1.0000
  C   C5491     1.0  0.88743  0.69363  0.82645  1.0000
  H   H4394     1.0  0.93809  0.66980  0.81169  1.0000
  H   H4395     1.0  0.95022  0.68863  0.82820  1.0000
  H   H4396     1.0  0.88215  0.71403  0.84256  1.0000
  H   H4397     1.0  0.86994  0.69515  0.82603  1.0000
  C   C5492     1.0  0.95920  0.94616  0.91499  1.0000
  C   C5493     1.0  0.65350  0.49539  0.89398  1.0000
  C   C5494     1.0  0.95682  0.92854  0.93942  1.0000
  C   C5495     1.0  0.93381  0.81433  0.89146  1.0000
  H   H4398     1.0  0.88478  0.52225  0.87928  1.0000
  H   H4399     1.0  0.62363  0.72556  0.78548  1.0000
  H   H4400     1.0  0.94906  0.92825  0.95031  1.0000
  P   P183      1.0  0.60026  0.69286  0.83516  1.0000
  H   H4401     1.0  0.98490  0.62052  0.85747  1.0000
  C   C5496     1.0  0.72936  0.73831  0.80899  1.0000
  C   C5497     1.0  0.73736  0.75223  0.79684  1.0000
  C   C5498     1.0  0.75825  0.74588  0.78894  1.0000
  C   C5499     1.0  0.77120  0.72558  0.79313  1.0000
  C   C5500     1.0  0.76314  0.71158  0.80521  1.0000
  C   C5501     1.0  0.74232  0.71801  0.81317  1.0000
  H   H4402     1.0  0.72756  0.76793  0.79356  1.0000
  H   H4403     1.0  0.76446  0.75678  0.77962  1.0000
  H   H4404     1.0  0.77308  0.69594  0.80851  1.0000
  H   H4405     1.0  0.73627  0.70725  0.82260  1.0000
  C   C5502     1.0  0.57922  0.77523  0.82805  1.0000
  C   C5503     1.0  0.56300  0.76808  0.83930  1.0000
  C   C5504     1.0  0.54561  0.75843  0.83699  1.0000
  C   C5505     1.0  0.54401  0.75635  0.82335  1.0000
  C   C5506     1.0  0.55982  0.76419  0.81208  1.0000
  C   C5507     1.0  0.57754  0.77328  0.81441  1.0000
  H   H4406     1.0  0.56408  0.76973  0.84988  1.0000
  H   H4407     1.0  0.53353  0.75249  0.84573  1.0000
  H   H4408     1.0  0.55852  0.76297  0.80146  1.0000
  H   H4409     1.0  0.58981  0.77887  0.80566  1.0000
  C   C5508     1.0  0.92617  0.91255  0.90205  1.0000
  C   C5509     1.0  0.71048  0.89172  0.83811  1.0000
  C   C5510     1.0  0.69702  0.90483  0.82876  1.0000
  C   C5511     1.0  0.68554  0.89498  0.82115  1.0000
  C   C5512     1.0  0.68703  0.87187  0.82280  1.0000
  C   C5513     1.0  0.69999  0.85878  0.83245  1.0000
  C   C5514     1.0  0.71171  0.86862  0.83992  1.0000
  H   H4410     1.0  0.69577  0.92257  0.82719  1.0000
  H   H4411     1.0  0.67552  0.90539  0.81383  1.0000
  H   H4412     1.0  0.70118  0.84105  0.83405  1.0000
  H   H4413     1.0  0.72194  0.85821  0.84712  1.0000
  C   C5515     1.0  0.55901  0.92867  0.89664  1.0000
  H   H4414     1.0  0.81165  0.59040  0.88998  1.0000
  H   H4415     1.0  0.63336  0.60068  0.90483  1.0000
  H   H4416     1.0  0.58955  0.51345  0.95679  1.0000
  C   C5516     1.0  0.69938  0.52212  0.93772  1.0000
  H   H4417     1.0  0.84451  0.57639  0.84935  1.0000
  H   H4418     1.0  0.52713  0.55695  0.94938  1.0000
  C   C5517     1.0  0.94054  0.50752  0.87790  1.0000
  H   H4419     1.0  0.76391  0.51650  0.93159  1.0000
  C   C5518     1.0  0.54118  0.60859  0.87916  1.0000
  C   C5519     1.0  0.52729  0.61247  0.89175  1.0000
  C   C5520     1.0  0.51097  0.63143  0.89196  1.0000
  C   C5521     1.0  0.50825  0.64658  0.87960  1.0000
  C   C5522     1.0  0.52172  0.64238  0.86692  1.0000
  C   C5523     1.0  0.53819  0.62353  0.86673  1.0000
  H   H4420     1.0  0.52937  0.60109  0.90137  1.0000
  H   H4421     1.0  0.95254  0.49620  0.88357  1.0000
  H   H4422     1.0  0.51965  0.65377  0.85729  1.0000
  H   H4423     1.0  0.54872  0.62055  0.85692  1.0000
  H   H4424     1.0  0.56035  0.70336  0.82149  1.0000
  C   C5524     1.0  0.89147  0.53747  0.83061  1.0000
  C   C5525     1.0  0.93468  0.83190  0.89806  1.0000
  C   C5526     1.0  0.84667  0.55031  0.94840  1.0000
  H   H4425     1.0  0.63000  0.95837  0.95349  1.0000
  Fe  Fe380     1.0  0.75765  0.48712  0.87381  1.0000
  C   C5527     1.0  0.58559  0.52229  0.96559  1.0000
  H   H4426     1.0  0.62081  0.62204  0.81711  1.0000
  H   H4427     1.0  0.51865  0.54045  0.89670  1.0000
  C   C5528     1.0  0.48779  0.81862  0.84030  1.0000
  C   C5529     1.0  0.65308  0.54821  0.96252  1.0000
  C   C5530     1.0  0.49644  0.89627  0.95511  1.0000
  H   H4428     1.0  0.74398  0.55354  0.79807  1.0000
  C   C5531     1.0  0.77707  0.47847  0.80023  1.0000
  P   P184      1.0  0.78941  0.54973  0.78238  1.0000
  H   H4429     1.0  0.62496  0.55056  0.94111  1.0000
  C   C5532     1.0  0.71001  0.52837  0.94732  1.0000
  H   H4430     1.0  0.85213  0.61847  0.95499  1.0000
  H   H4431     1.0  0.94139  0.91636  0.90403  1.0000
  H   H4432     1.0  0.96466  0.83459  0.95594  1.0000
  C   C5533     1.0  0.52936  0.93287  0.96312  1.0000
  H   H4433     1.0  0.50799  0.91370  0.91972  1.0000
  C   C5534     1.0  0.97247  0.89957  0.87991  1.0000
  C   C5535     1.0  0.78357  0.50739  0.78022  1.0000
  H   H4434     1.0  0.88437  0.48248  0.91377  1.0000
  C   C5536     1.0  0.86562  0.52230  0.96454  1.0000
  C   C5537     1.0  0.64035  0.58625  0.91155  1.0000
  H   H4435     1.0  0.59649  0.89102  0.88015  1.0000
  C   C5538     1.0  0.63496  0.48113  0.93101  1.0000
  H   H4436     1.0  0.52106  0.47718  0.95138  1.0000
  P   P185      1.0  0.94952  0.87028  0.90010  1.0000
  S   S753      1.0  0.76287  0.48602  0.85071  1.0000
  C   C5539     1.0  0.80553  0.78781  0.80594  1.0000
  C   C5540     1.0  0.78434  0.78532  0.81371  1.0000
  C   C5541     1.0  0.77909  0.76396  0.81854  1.0000
  P   P186      1.0  0.76344  0.80942  0.81584  1.0000
  C   C5542     1.0  0.74173  0.80276  0.83042  1.0000
  C   C5543     1.0  0.77523  0.83128  0.81991  1.0000
  C   C5544     1.0  0.79420  0.82619  0.82644  1.0000
  C   C5545     1.0  0.80200  0.84270  0.83095  1.0000
  C   C5546     1.0  0.79068  0.86432  0.82929  1.0000
  C   C5547     1.0  0.77166  0.86950  0.82301  1.0000
  C   C5548     1.0  0.76401  0.85312  0.81829  1.0000
  C   C5549     1.0  0.72555  0.79100  0.82884  1.0000
  C   C5550     1.0  0.70924  0.78511  0.84026  1.0000
  C   C5551     1.0  0.70848  0.79150  0.85318  1.0000
  C   C5552     1.0  0.72431  0.80348  0.85480  1.0000
  C   C5553     1.0  0.74100  0.80893  0.84353  1.0000
  C   C5554     1.0  0.75144  0.81837  0.79991  1.0000
  H   H4437     1.0  0.51385  0.94403  0.96226  1.0000
  C   C5555     1.0  0.97477  0.91224  0.93583  1.0000
  C   C5556     1.0  0.86757  0.51183  0.82926  1.0000
  C   C5557     1.0  0.84370  0.47858  0.89576  1.0000
  C   C5558     1.0  0.73186  0.83381  0.79981  1.0000
  C   C5559     1.0  0.92519  0.89138  0.89971  1.0000
  H   H4438     1.0  0.50772  0.87606  0.83414  1.0000
  H   H4439     1.0  0.85510  0.51602  0.94627  1.0000
  H   H4440     1.0  0.80972  0.80409  0.80167  1.0000
  H   H4441     1.0  0.76274  0.76134  0.82408  1.0000
  H   H4442     1.0  0.80265  0.80939  0.82846  1.0000
  H   H4443     1.0  0.81656  0.83864  0.83604  1.0000
  H   H4444     1.0  0.79634  0.87703  0.83311  1.0000
  H   H4445     1.0  0.76244  0.88613  0.82215  1.0000
  H   H4446     1.0  0.74890  0.85762  0.81387  1.0000
  H   H4447     1.0  0.72578  0.78598  0.81886  1.0000
  H   H4448     1.0  0.69725  0.77542  0.83910  1.0000
  H   H4449     1.0  0.69565  0.78708  0.86193  1.0000
  H   H4450     1.0  0.72372  0.80854  0.86481  1.0000
  H   H4451     1.0  0.75315  0.81805  0.84514  1.0000
  C   C5560     1.0  0.78316  0.58575  0.79647  1.0000
  H   H4452     1.0  0.94416  0.87249  0.95073  1.0000
  S   S754      1.0  0.72694  0.50443  0.88659  1.0000
  H   H4453     1.0  0.94080  0.61453  0.94730  1.0000
  H   H4454     1.0  0.72317  0.83974  0.80932  1.0000
  H   H4455     1.0  0.70503  0.90323  0.87656  1.0000
  C   C5561     1.0  0.49149  0.58208  0.87542  1.0000
  H   H4456     1.0  0.82802  0.73377  0.80602  1.0000
  H   H4457     1.0  0.51162  0.79782  0.82726  1.0000
  H   H4458     1.0  0.87095  0.89991  0.89518  1.0000
  H   H4459     1.0  0.82114  0.64949  0.95362  1.0000
  P   P187      1.0  0.50883  0.82881  0.84639  1.0000
  C   C5562     1.0  0.51902  0.80860  0.86045  1.0000
  C   C5563     1.0  0.53069  0.83435  0.83164  1.0000
  C   C5564     1.0  0.55301  0.83090  0.83343  1.0000
  C   C5565     1.0  0.56959  0.83580  0.82195  1.0000
  C   C5566     1.0  0.56416  0.84365  0.80856  1.0000
  C   C5567     1.0  0.54201  0.84705  0.80666  1.0000
  C   C5568     1.0  0.52532  0.84257  0.81815  1.0000
  C   C5569     1.0  0.53170  0.81450  0.86905  1.0000
  C   C5570     1.0  0.53886  0.79926  0.88033  1.0000
  C   C5571     1.0  0.53316  0.77811  0.88322  1.0000
  C   C5572     1.0  0.52036  0.77218  0.87480  1.0000
  C   C5573     1.0  0.51339  0.78729  0.86343  1.0000
  H   H4460     1.0  0.97216  0.97556  0.93185  1.0000
  C   C5574     1.0  0.66272  0.57716  0.90838  1.0000
  C   C5575     1.0  0.96104  0.84112  0.94544  1.0000
  S   S755      1.0  0.98471  0.89201  0.94928  1.0000
  H   H4461     1.0  0.50340  0.78225  0.85716  1.0000
  H   H4462     1.0  0.70452  0.50913  0.91824  1.0000
  C   C5576     1.0  0.78039  0.48561  0.78569  1.0000
  H   H4463     1.0  0.70050  0.53466  0.95656  1.0000
  C   C5577     1.0  0.71231  0.51402  0.92583  1.0000
  C   C5578     1.0  0.66192  0.49990  0.93675  1.0000
  H   H4464     1.0  0.50061  0.63450  0.90180  1.0000
  H   H4465     1.0  0.55787  0.82412  0.84356  1.0000
  H   H4466     1.0  0.58682  0.83291  0.82339  1.0000
  H   H4467     1.0  0.57720  0.84685  0.79968  1.0000
  H   H4468     1.0  0.53780  0.85300  0.79625  1.0000
  H   H4469     1.0  0.50822  0.84541  0.81649  1.0000
  C   C5579     1.0  0.94509  0.81338  0.87777  1.0000
  C   C5580     1.0  0.59656  0.97179  0.96182  1.0000
  H   H4470     1.0  0.89884  0.48117  0.85349  1.0000
  H   H4471     1.0  0.51562  0.75594  0.87709  1.0000
  C   C5581     1.0  0.75207  0.81717  0.77524  1.0000
  C   C5582     1.0  0.94943  0.86245  0.94251  1.0000
  H   H4472     1.0  0.51687  0.91941  0.94179  1.0000
  H   H4473     1.0  0.66476  0.94300  0.85000  1.0000
  C   C5583     1.0  0.59777  0.62751  0.85084  1.0000
  C   C5584     1.0  0.60662  0.61732  0.83910  1.0000
  C   C5585     1.0  0.56865  0.90860  0.89221  1.0000
  C   C5586     1.0  0.61226  0.65284  0.82503  1.0000
  C   C5587     1.0  0.60300  0.66324  0.83673  1.0000
  C   C5588     1.0  0.59635  0.65030  0.84975  1.0000
  C   C5589     1.0  0.62533  0.70042  0.83823  1.0000
  C   C5590     1.0  0.61344  0.71118  0.80706  1.0000
  C   C5591     1.0  0.82143  0.63740  0.96316  1.0000
  C   C5592     1.0  0.62868  0.72253  0.83472  1.0000
  C   C5593     1.0  0.64838  0.72843  0.83652  1.0000
  C   C5594     1.0  0.66487  0.71237  0.84186  1.0000
  C   C5595     1.0  0.66159  0.69036  0.84554  1.0000
  C   C5596     1.0  0.64188  0.68436  0.84375  1.0000
  H   H4474     1.0  0.59169  0.61772  0.86076  1.0000
  H   H4475     1.0  0.60751  0.59964  0.84001  1.0000
  H   H4476     1.0  0.96542  0.52205  0.86232  1.0000
  P   P188      1.0  0.66944  0.52444  0.94042  1.0000
  C   C5597     1.0  0.53972  0.69762  0.86087  1.0000
  H   H4477     1.0  0.63006  0.70902  0.80943  1.0000
  S   S756      1.0  0.75755  0.95713  0.84091  1.0000
  H   H4478     1.0  0.65098  0.74550  0.83362  1.0000
  H   H4479     1.0  0.68025  0.71704  0.84303  1.0000
  H   H4480     1.0  0.67445  0.67799  0.84967  1.0000
  H   H4481     1.0  0.63971  0.66724  0.84659  1.0000
  H   H4482     1.0  0.69272  0.47877  0.94092  1.0000
  H   H4483     1.0  0.64431  0.84628  0.84178  1.0000
  C   C5598     1.0  0.73321  0.52640  0.94508  1.0000
  C   C5599     1.0  0.57667  0.70184  0.84792  1.0000
  C   C5600     1.0  0.63574  0.55783  0.93202  1.0000
  H   H4484     1.0  0.80013  0.58779  0.79197  1.0000
  C   C5601     1.0  0.72303  0.84155  0.78741  1.0000
  C   C5602     1.0  0.50758  0.48079  0.92142  1.0000
  H   H4485     1.0  0.90510  0.54637  0.82575  1.0000
  C   C5603     1.0  0.54936  0.94125  0.95900  1.0000
  C   C5604     1.0  0.54142  0.71217  0.86952  1.0000
  C   C5605     1.0  0.82606  0.58432  0.86904  1.0000
  C   C5606     1.0  0.58938  0.90671  0.88343  1.0000
  S   S757      1.0  0.62543  0.49096  0.89746  1.0000
  H   H4486     1.0  0.77480  0.48741  0.82053  1.0000
  H   H4487     1.0  0.54299  0.93017  0.90346  1.0000
  C   C5607     1.0  0.50513  0.55230  0.89293  1.0000
  C   C5608     1.0  0.50899  0.56678  0.88027  1.0000
  H   H4488     1.0  0.93734  0.88815  0.92676  1.0000
  H   H4489     1.0  0.58957  0.65778  0.85904  1.0000
  H   H4490     1.0  0.52787  0.71581  0.87794  1.0000
  C   C5609     1.0  0.50113  0.90438  0.92958  1.0000
  C   C5610     1.0  0.68216  0.51667  0.89442  1.0000
  H   H4491     1.0  0.83941  0.55494  0.93887  1.0000
  Fe  Fe381     1.0  0.76078  0.96361  0.86229  1.0000
  C   C5611     1.0  0.94778  0.52220  0.86596  1.0000
  Fe  Fe382     1.0  0.49565  0.72927  0.83605  1.0000
  C   C5612     1.0  0.77963  0.51497  0.80387  1.0000
  C   C5613     1.0  0.50599  0.90767  0.94222  1.0000
  H   H4492     1.0  0.88197  0.54998  0.77892  1.0000
  H   H4493     1.0  0.55560  0.68074  0.84377  1.0000
  H   H4494     1.0  0.92606  0.83221  0.90874  1.0000
  H   H4495     1.0  0.52565  0.56627  0.87428  1.0000
  H   H4496     1.0  0.56003  0.89448  0.89559  1.0000
  C   C5614     1.0  0.56052  0.72191  0.86728  1.0000
  C   C5615     1.0  0.86941  0.71185  0.87582  1.0000
  C   C5616     1.0  0.88527  0.71992  0.88084  1.0000
  C   C5617     1.0  0.90326  0.70544  0.88564  1.0000
  C   C5618     1.0  0.90565  0.68294  0.88520  1.0000
  C   C5619     1.0  0.88987  0.67469  0.88009  1.0000
  C   C5620     1.0  0.87159  0.68930  0.87551  1.0000
  P   P189      1.0  0.89347  0.64563  0.87925  1.0000
  C   C5621     1.0  0.87576  0.64186  0.86764  1.0000
  C   C5622     1.0  0.92216  0.63700  0.87190  1.0000
  C   C5623     1.0  0.93376  0.65182  0.86185  1.0000
  C   C5624     1.0  0.95619  0.64577  0.85654  1.0000
  C   C5625     1.0  0.96728  0.62483  0.86118  1.0000
  C   C5626     1.0  0.95581  0.60979  0.87098  1.0000
  C   C5627     1.0  0.93337  0.61584  0.87638  1.0000
  C   C5628     1.0  0.85439  0.63666  0.87310  1.0000
  C   C5629     1.0  0.84019  0.63509  0.86405  1.0000
  C   C5630     1.0  0.84720  0.63862  0.84951  1.0000
  C   C5631     1.0  0.86824  0.64420  0.84401  1.0000
  C   C5632     1.0  0.88243  0.64600  0.85300  1.0000
  C   C5633     1.0  0.88666  0.62975  0.89657  1.0000
  C   C5634     1.0  0.88576  0.63865  0.90875  1.0000
  C   C5635     1.0  0.88176  0.62576  0.92205  1.0000
  C   C5636     1.0  0.87853  0.60395  0.92330  1.0000
  C   C5637     1.0  0.87916  0.59502  0.91126  1.0000
  C   C5638     1.0  0.88318  0.60787  0.89795  1.0000
  H   H4497     1.0  0.85576  0.72317  0.87180  1.0000
  H   H4498     1.0  0.88400  0.73745  0.88065  1.0000
  H   H4499     1.0  0.91579  0.71178  0.88924  1.0000
  H   H4500     1.0  0.92009  0.67206  0.88853  1.0000
  H   H4501     1.0  0.85932  0.68353  0.87134  1.0000
  H   H4502     1.0  0.92563  0.66829  0.85832  1.0000
  H   H4503     1.0  0.96509  0.65755  0.84906  1.0000
  C   C5639     1.0  0.82131  0.76929  0.80334  1.0000
  H   H4504     1.0  0.96456  0.59377  0.87487  1.0000
  H   H4505     1.0  0.92527  0.60419  0.88440  1.0000
  H   H4506     1.0  0.84848  0.63425  0.88432  1.0000
  H   H4507     1.0  0.82364  0.63136  0.86826  1.0000
  H   H4508     1.0  0.83622  0.63739  0.84248  1.0000
  H   H4509     1.0  0.87345  0.64748  0.83272  1.0000
  H   H4510     1.0  0.89838  0.65102  0.84843  1.0000
  H   H4511     1.0  0.88882  0.65526  0.90807  1.0000
  H   H4512     1.0  0.88220  0.63236  0.93135  1.0000
  H   H4513     1.0  0.87650  0.59369  0.93356  1.0000
  H   H4514     1.0  0.87746  0.57786  0.91223  1.0000
  H   H4515     1.0  0.88439  0.60056  0.88869  1.0000
  C   C5640     1.0  0.88046  0.53961  0.84429  1.0000
  P   P190      1.0  0.88922  0.55645  0.85442  1.0000
  C   C5641     1.0  0.86495  0.56763  0.86574  1.0000
  C   C5642     1.0  0.90941  0.53785  0.86382  1.0000
  C   C5643     1.0  0.93230  0.53712  0.85882  1.0000
  C   C5644     1.0  0.86549  0.56815  0.87986  1.0000
  C   C5645     1.0  0.84628  0.57634  0.88856  1.0000
  C   C5646     1.0  0.82654  0.58427  0.88319  1.0000
  C   C5647     1.0  0.90024  0.58022  0.84387  1.0000
  C   C5648     1.0  0.89313  0.59002  0.83105  1.0000
  C   C5649     1.0  0.90215  0.60814  0.82285  1.0000
  C   C5650     1.0  0.91785  0.61693  0.82754  1.0000
  C   C5651     1.0  0.92421  0.60794  0.84057  1.0000
  C   C5652     1.0  0.91520  0.58987  0.84883  1.0000
  C   C5653     1.0  0.69879  0.50083  0.88865  1.0000
  H   H4516     1.0  0.93829  0.54795  0.84939  1.0000
  H   H4517     1.0  0.88057  0.56199  0.88427  1.0000
  H   H4518     1.0  0.84663  0.57600  0.89956  1.0000
  C   C5654     1.0  0.84521  0.57617  0.86031  1.0000
  H   H4519     1.0  0.88052  0.58386  0.82740  1.0000
  H   H4520     1.0  0.89678  0.61573  0.81293  1.0000
  H   H4521     1.0  0.92463  0.63111  0.82120  1.0000
  H   H4522     1.0  0.93591  0.61523  0.84432  1.0000
  H   H4523     1.0  0.91994  0.58345  0.85906  1.0000
  H   H4524     1.0  0.74136  0.53109  0.95257  1.0000
  C   C5655     1.0  0.85433  0.53285  0.78846  1.0000
  C   C5656     1.0  0.96422  0.83706  0.92115  1.0000
  H   H4525     1.0  0.73950  0.60941  0.81821  1.0000
  H   H4526     1.0  0.64330  0.87634  0.87759  1.0000
  C   C5657     1.0  0.77083  0.60029  0.80531  1.0000
  S   S758      1.0  0.97663  0.74621  0.85041  1.0000
  H   H4527     1.0  0.67311  0.58448  0.89914  1.0000
  C   C5658     1.0  0.81599  0.74814  0.80831  1.0000
  H   H4528     1.0  0.52490  0.69012  0.86261  1.0000
  H   H4529     1.0  0.98358  0.52476  0.95949  1.0000
  H   H4530     1.0  0.84416  0.50355  0.84801  1.0000
  C   C5659     1.0  0.55717  0.69248  0.85012  1.0000
  C   C5660     1.0  0.61670  0.95758  0.96247  1.0000
  C   C5661     1.0  0.65965  0.51399  0.89712  1.0000
  H   H4531     1.0  0.84146  0.58329  0.95251  1.0000
  H   H4532     1.0  0.59905  0.95930  0.88022  1.0000
  H   H4533     1.0  0.77980  0.52599  0.81103  1.0000
  H   H4534     1.0  0.81089  0.59077  0.86477  1.0000
  H   H4535     1.0  0.69760  0.92115  0.89772  1.0000
  H   H4536     1.0  0.94497  0.79938  0.87282  1.0000
  C   C5662     1.0  0.73546  0.51201  0.92366  1.0000
  C   C5663     1.0  0.60926  0.95945  0.84975  1.0000
  H   H4537     1.0  0.58602  0.73044  0.77927  1.0000
  C   C5664     1.0  0.67168  0.55853  0.91712  1.0000
  H   H4538     1.0  0.63016  0.88245  0.82873  1.0000
  C   C5665     1.0  0.95291  0.85863  0.91804  1.0000
  H   H4539     1.0  0.52316  0.85525  0.96513  1.0000
  C   C5666     1.0  0.75162  0.56662  0.79995  1.0000
  C   C5667     1.0  0.73304  0.83314  0.77514  1.0000
  C   C5668     1.0  0.77368  0.56870  0.79377  1.0000
  H   H4540     1.0  0.65961  0.93929  0.90604  1.0000
  H   H4541     1.0  0.49499  0.59320  0.86566  1.0000
  H   H4542     1.0  0.93510  0.95788  0.93193  1.0000
  H   H4543     1.0  0.68906  0.55198  0.91448  1.0000
  C   C5669     1.0  0.67011  0.47968  0.88801  1.0000
  H   H4544     1.0  0.77597  0.79738  0.78728  1.0000
  H   H4545     1.0  0.93696  0.57583  0.94785  1.0000
  H   H4546     1.0  0.62913  0.93993  0.89341  1.0000
  C   C5670     1.0  0.62691  0.57663  0.92339  1.0000
  S   S759      1.0  0.79554  0.96329  0.86768  1.0000
  S   S760      1.0  0.70307  0.96712  0.85011  1.0000
  H   H4547     1.0  0.49154  0.91004  0.84389  1.0000
  C   C5671     1.0  0.96843  0.82841  0.93476  1.0000
  C   C5672     1.0  0.75957  0.64163  0.77415  1.0000
  C   C5673     1.0  0.56955  0.92703  0.95941  1.0000
  C   C5674     1.0  0.92621  0.60812  0.95346  1.0000
  H   H4548     1.0  0.53591  0.83097  0.86709  1.0000
  H   H4549     1.0  0.90385  0.56092  0.96157  1.0000
  S   S761      1.0  0.51319  0.50600  0.92442  1.0000
  C   C5675     1.0  0.65823  0.54864  0.92901  1.0000
  C   C5676     1.0  0.73925  0.58143  0.80859  1.0000
  C   C5677     1.0  0.94890  0.94533  0.92903  1.0000
  H   H4550     1.0  0.84057  0.96227  0.87144  1.0000
  C   C5678     1.0  0.56977  0.90446  0.96410  1.0000
  H   H4551     1.0  0.67501  0.90399  0.86348  1.0000
  C   C5679     1.0  0.94558  0.87130  0.92884  1.0000
  H   H4552     1.0  0.68677  0.53108  0.89682  1.0000
  H   H4553     1.0  0.70789  0.85350  0.78749  1.0000
  C   C5680     1.0  0.57449  0.70767  0.81379  1.0000
  C   C5681     1.0  0.91782  0.50761  0.88263  1.0000
  C   C5682     1.0  0.90506  0.57798  0.96134  1.0000
  H   H4554     1.0  0.65082  0.84321  0.86623  1.0000
  C   C5683     1.0  0.77675  0.49314  0.80929  1.0000
  S   S762      1.0  0.49986  0.97094  0.93543  1.0000
  C   C5684     1.0  0.65756  0.52734  0.95841  1.0000
  H   H4555     1.0  0.59316  0.95492  0.85448  1.0000
  C   C5685     1.0  0.78307  0.52228  0.78929  1.0000
  C   C5686     1.0  0.58880  0.72304  0.78984  1.0000
  S   S763      1.0  0.57567  0.50866  0.92774  1.0000
  C   C5687     1.0  0.74891  0.59816  0.81134  1.0000
  C   C5688     1.0  0.76132  0.80987  0.78753  1.0000
  C   C5689     1.0  0.97389  0.88234  0.89138  1.0000
  H   H4556     1.0  0.97776  0.81195  0.93694  1.0000
  H   H4557     1.0  0.54866  0.80393  0.88691  1.0000
  C   C5690     1.0  0.67668  0.47984  0.93790  1.0000
  C   C5691     1.0  0.49420  0.80319  0.83106  1.0000
  H   H4558     1.0  0.62890  0.51531  0.93279  1.0000
  H   H4559     1.0  0.62264  0.91578  0.83975  1.0000
  C   C5692     1.0  0.90963  0.62158  0.96111  1.0000
  H   H4560     1.0  0.86397  0.52004  0.79490  1.0000
  H   H4561     1.0  0.74524  0.50553  0.91450  1.0000
  C   C5693     1.0  0.85551  0.52830  0.95257  1.0000
  C   C5694     1.0  0.88763  0.92446  0.89935  1.0000
  C   C5695     1.0  0.69849  0.64613  0.82934  1.0000
  C   C5696     1.0  0.71884  0.65289  0.82889  1.0000
  C   C5697     1.0  0.73385  0.64034  0.83737  1.0000
  C   C5698     1.0  0.72836  0.62130  0.84650  1.0000
  C   C5699     1.0  0.70762  0.61482  0.84737  1.0000
  C   C5700     1.0  0.69301  0.62699  0.83839  1.0000
  P   P191      1.0  0.70125  0.58947  0.85855  1.0000
  C   C5701     1.0  0.67210  0.58994  0.86572  1.0000
  C   C5702     1.0  0.71195  0.56786  0.84811  1.0000
  C   C5703     1.0  0.69770  0.55871  0.84223  1.0000
  C   C5704     1.0  0.70621  0.54145  0.83459  1.0000
  C   C5705     1.0  0.72901  0.53361  0.83247  1.0000
  C   C5706     1.0  0.74336  0.54324  0.83781  1.0000
  C   C5707     1.0  0.73491  0.56037  0.84554  1.0000
  C   C5708     1.0  0.65787  0.60994  0.86722  1.0000
  C   C5709     1.0  0.63544  0.60997  0.87310  1.0000
  C   C5710     1.0  0.62714  0.59007  0.87766  1.0000
  C   C5711     1.0  0.64139  0.57010  0.87670  1.0000
  C   C5712     1.0  0.66385  0.57000  0.87097  1.0000
  C   C5713     1.0  0.71425  0.58460  0.87396  1.0000
  C   C5714     1.0  0.71455  0.60212  0.88086  1.0000
  C   C5715     1.0  0.72369  0.59813  0.89321  1.0000
  C   C5716     1.0  0.73238  0.57663  0.89880  1.0000
  C   C5717     1.0  0.73184  0.55914  0.89207  1.0000
  C   C5718     1.0  0.72264  0.56307  0.87977  1.0000
  H   H4562     1.0  0.68706  0.65571  0.82256  1.0000
  H   H4563     1.0  0.72315  0.66766  0.82183  1.0000
  H   H4564     1.0  0.74997  0.64517  0.83669  1.0000
  H   H4565     1.0  0.74051  0.61154  0.85269  1.0000
  H   H4566     1.0  0.67746  0.62166  0.83831  1.0000
  H   H4567     1.0  0.68002  0.56465  0.84362  1.0000
  H   H4568     1.0  0.69509  0.53396  0.83044  1.0000
  H   H4569     1.0  0.73560  0.52005  0.82672  1.0000
  H   H4570     1.0  0.76106  0.53730  0.83604  1.0000
  H   H4571     1.0  0.74626  0.56756  0.84966  1.0000
  H   H4572     1.0  0.66404  0.62550  0.86403  1.0000
  H   H4573     1.0  0.62443  0.62540  0.87418  1.0000
  H   H4574     1.0  0.60970  0.59006  0.88212  1.0000
  H   H4575     1.0  0.63503  0.55464  0.88050  1.0000
  H   H4576     1.0  0.67473  0.55429  0.87068  1.0000
  H   H4577     1.0  0.70762  0.61882  0.87676  1.0000
  H   H4578     1.0  0.72399  0.61170  0.89848  1.0000
  H   H4579     1.0  0.73946  0.57348  0.90837  1.0000
  H   H4580     1.0  0.73846  0.54241  0.89636  1.0000
  H   H4581     1.0  0.72195  0.54924  0.87488  1.0000
  C   C5719     1.0  0.63255  0.88120  0.83950  1.0000
  C   C5720     1.0  0.64057  0.86073  0.84687  1.0000
  C   C5721     1.0  0.64435  0.85906  0.86061  1.0000
  C   C5722     1.0  0.64020  0.87788  0.86695  1.0000
  C   C5723     1.0  0.63256  0.89859  0.85949  1.0000
  C   C5724     1.0  0.62851  0.90008  0.84576  1.0000
  P   P192      1.0  0.62749  0.92289  0.86768  1.0000
  C   C5725     1.0  0.60063  0.92497  0.87900  1.0000
  C   C5726     1.0  0.64945  0.92148  0.87764  1.0000
  C   C5727     1.0  0.64537  0.93134  0.88974  1.0000
  C   C5728     1.0  0.66265  0.93093  0.89703  1.0000
  C   C5729     1.0  0.68410  0.92078  0.89231  1.0000
  C   C5730     1.0  0.68830  0.91083  0.88035  1.0000
  C   C5731     1.0  0.67112  0.91124  0.87299  1.0000
  C   C5732     1.0  0.87051  0.48769  0.90810  1.0000
  H   H4582     1.0  0.83757  0.77127  0.79728  1.0000
  H   H4583     1.0  0.72228  0.57973  0.81335  1.0000
  C   C5733     1.0  0.57009  0.94688  0.89228  1.0000
  C   C5734     1.0  0.59074  0.94504  0.88350  1.0000
  C   C5735     1.0  0.62877  0.94688  0.85404  1.0000
  C   C5736     1.0  0.64941  0.95274  0.84725  1.0000
  C   C5737     1.0  0.90752  0.92901  0.90185  1.0000
  H   H4584     1.0  0.98470  0.92991  0.90048  1.0000
  H   H4585     1.0  0.90854  0.94531  0.90364  1.0000
  S   S764      1.0  0.48835  0.67079  0.88060  1.0000
  C   C5738     1.0  0.97784  0.60031  0.90113  1.0000
  H   H4586     1.0  0.98259  0.58266  0.90368  1.0000
  C   C5739     1.0  0.88641  0.90340  0.89710  1.0000
  C   C5740     1.0  0.49912  0.87476  0.84488  1.0000
  C   C5741     1.0  0.94713  0.84855  0.89107  1.0000
  H   H4587     1.0  0.66652  0.97576  0.83162  1.0000
  H   H4588     1.0  0.82408  0.51982  0.79663  1.0000
  C   C5742     1.0  0.98450  0.91255  0.92171  1.0000
  H   H4589     1.0  0.58504  0.93347  0.95591  1.0000
  C   C5743     1.0  0.97693  0.92964  0.91134  1.0000
  C   C5744     1.0  0.84799  0.56635  0.95617  1.0000
  S   S765      1.0  0.49274  0.69326  0.83876  1.0000
  C   C5745     1.0  0.57860  0.54511  0.96338  1.0000
  C   C5746     1.0  0.95824  0.84758  0.87724  1.0000
  S   S766      1.0  0.95019  0.96760  0.90185  1.0000
  C   C5747     1.0  0.81885  0.54948  0.78119  1.0000
  C   C5748     1.0  0.90508  0.88687  0.89733  1.0000
  H   H4590     1.0  0.90371  0.87071  0.89557  1.0000
  C   C5749     1.0  0.95721  0.83002  0.87065  1.0000
  C   C5750     1.0  0.48996  0.89412  0.85037  1.0000
  C   C5751     1.0  0.83161  0.53274  0.78934  1.0000
  C   C5752     1.0  0.52385  0.54843  0.96010  1.0000
  H   H4591     1.0  0.54913  0.95874  0.95516  1.0000
  C   C5753     1.0  0.83014  0.97345  0.87803  1.0000
  H   H4592     1.0  0.95679  0.90589  0.87623  1.0000
  H   H4593     1.0  0.56273  0.96249  0.89572  1.0000
  H   H4594     1.0  0.96804  0.86004  0.87158  1.0000
  H   H4595     1.0  0.96627  0.82892  0.86014  1.0000
  H   H4596     1.0  0.65495  0.49271  0.96546  1.0000
  C   C5754     1.0  0.49710  0.85406  0.85324  1.0000
  H   H4597     1.0  0.76734  0.63697  0.78345  1.0000
  H   H4598     1.0  0.91156  0.63841  0.96109  1.0000
  H   H4599     1.0  0.86194  0.50164  0.82339  1.0000
  Fe  Fe383     1.0  0.71014  0.97185  0.87078  1.0000
  H   H4600     1.0  0.97020  0.82702  0.91300  1.0000
  S   S767      1.0  0.98145  0.48872  0.90502  1.0000
  C   C5755     1.0  0.52393  0.52567  0.96274  1.0000
  H   H4601     1.0  0.52679  0.51698  0.95390  1.0000
  C   C5756     1.0  0.83899  0.61979  0.96398  1.0000
  H   H4602     1.0  0.61891  0.48160  0.92817  1.0000
  H   H4603     1.0  0.74278  0.61340  0.77868  1.0000
  Fe  Fe384     1.0  0.98463  0.73675  0.87243  1.0000
  S   S768      1.0  0.98307  0.76654  0.88339  1.0000
  H   H4604     1.0  0.78667  0.51239  0.76892  1.0000
  C   C5757     1.0  0.65049  0.97132  0.83674  1.0000
  H   H4605     1.0  0.58547  0.89347  0.96434  1.0000
  C   C5758     1.0  0.74569  0.62840  0.77145  1.0000
  H   H4606     1.0  0.71849  0.74124  0.77401  1.0000
  H   H4607     1.0  0.87314  0.50535  0.96754  1.0000
  H   H4608     1.0  0.74819  0.57367  0.77234  1.0000
  C   C5759     1.0  0.82917  0.56631  0.77220  1.0000
  C   C5760     1.0  0.85186  0.56638  0.77136  1.0000
