data_image0
_chemical_formula_structural       SHSHSCFeSFeSC2FeS2HSFeSFeSCHC6H3C7SH3C6H4C5H5C2HC2HCPCHC3HC4HC2H4CPCHC2HC2HC2PC10FeC3HC3H4FeHC4H3C5PC4H2C3H4CH2C3H4CH5C4HFeH3SHC2H4C2H5C3HSH5CHCHCHCH3CH4C4FeSHFeS2FeSFeS3FeS2FeS2Fe2S3FeS2FeSCFeSFeS3FeS2FeS2FeSFeS3HC7H4C6H4C6H4C6H4C3H2C6H4C6H4C3H3C2H2C2H11C3HCPC4SHC6HC2HC3HCHC8HC2H4C6PC2HC11SHC2H3CHCSHC2H7CHC4HCHC7PC18H20C6HC2H7C2HC4H3CHCH3C2H5C4HCHCH2CHC3HC2HCHC2H2CPSCH4CH3SCHCHC2H4CHCH2CHC6PHC4H2CH2CHC2HCH2C3HPC2HC2H4FeC2HC4HC2HCHC2H2C5HC2HC3H2CH2PCFeHSHCHCHC2H3C2H5CH2C2HC2HSHSFeSFeSC2FeS2HCFeSCSCHC4H5C6H4C7H3C7H8CH6CH4CHFeCH2CHC4HPC10HC3SH2C2H9CH3CHC6HC6HC2HC2H2CSC2HCH2CSCHFePCH5SCHCH3CH2C2HCHCHC6HC4SHCH4CH2C2PC3HC3HC3H2CHCHCHCFeS2FeS2FeSFeS2FeS2FeSHFeSFeS3FeS2FeS2FeSFeS3HCFeS2FeSHFeSFeS3C6H3C7H4C6H4C6H4C6H4C6H4C3H2C10PC18H20CSC4H6CH4PC9HSHC2HC4H8CH2C2H3C6PC18H20PC18H16C5SC2HCH2C3H3CHC2PC2HCH2C2HC2H3CHC2H2CHCHCH3C5H2CH3CH3C2H2CH2CHC6HCHC2HCH3C5H2CFeHC4SHC2H4C2HC5H3C2PHC2SHPH2C2H3C3HFeH2CHCHCHC2HC2HCHC2HC5H2SH2CHCH3C3H2C2PCHC2HCH2C3H2CH2C2HFeS2FeS2Fe2S3FeS2FeSCFeSFeS3HFeS2FeS2FeCFeS3FeS2FeS2FeSFeCS2C6H4C5H2C7H3C6H4C6H4C6H4C6H4C6HCH2PC18H2CH13C3HPC7PH2C3HC5SH6PC2H2C4HSC2H3C5HC3SH5C2H3PCHC5SH5CSC2H2C2HC4H5CHC6PC18H16C6H3CHCHCSC2HC2HCHCHPC2H7C2HC3H2CH2C2HCHC7H4CH2CH6C2H3CHCHCHC2H3C3H2CHC2HC3HCHC5HPC3H2SC7H5C6PH2C3HCHC2HCH2PCH3CHCH3C3HC2HC2H3C4HCHCHCH2CFeH6CHC3HCHC2H2PH2C2H4C2SC2H2C4H2CHCH2C2HFeSC2SCFeSFeSHCFeHSFeCSCH2S3C7H5C6H4PH3C6H3C7H3CH2C2H3CSC3HCHC2HPH6SHC2HC3HC3H2C6HC2HC5H4CH2CH2C2H3C2HCHCH2CHC3H5CHC4H2CHC2PHC3HCH2CHC2H4CH3C2FeHCH3C3H3C4FeSCFeS2FeSFeS3CHFeS2FeS2Fe2S3FeS2FeS2FeSFeCS2FeSCFeS2FeSFeS3C5H3C6H4C6H2CHC6H4C6H3C6H4C6H4C6H3C6HC2SCH8CHSC2HC4HC4H2C4H6CH3CH3C2H2C2HC2HCHC3H3CSHSH2C7PC18H12CH7C6PC18H20C2H2C2P2HCH2C2H5C3HCHCPH2C2HC2H2CHC2HCHCH2C4H3CHCH2CPCHC3HC3H5C2H3C6H2CH2C2HC2HC2HCHC2HC3HCH2CH2CHC4HSHCH3C2H3C2H4CH2PC2FeC3HC7H3C2H2C3SC3SCSH4FeHCH3C2HCH5SHC2FeCSFeCSHC3S2HSHCSFeSFeSH2C6H2PHC3H2CH2CH3CP2C2H2C7H3C7H4CHC4FeCFeHCH2C2HC5H2CH2C3HCH4CH6C6H2CSHC2HCHCHCH2C2H4CSC2HC3HCHCPHCHC3HCSHC2HCH3C2H2C2H4CHC2HC2HC4HC2H3C5HCHC5H2CHCH2CHCH3C3PC3HC2H3C2HFeHSFeHSC2HCS2HSH2SHFeSFeSH2CH2CHC6H3C6H4PCH2CH2C6H3SHC5H3C2SHC3HCHC10HCHC3HCHC2H2CHC2SH2CHFeH4CHC2HC3HCHC9SH3CHC3HCH6C3HCHCHC3HC2SH2CHCHCHC3HCH2CH3CH4C4H3C3HC2HCH2FeC3H3CH2CHSC3H2FeSHFeS2FeSFeS3FeS2FeS2FeSFeS3FeS2FeS2FeSFeHS2FeS2FeS2FeHFeS3C7H2C6H4C6H2C8H4C6H3C6H4C6H4C6H5CH2CH2C2PCHCHCH3CSPC2HCPCHC6HC5H2SHC3HCH2SCHCH4C2FeHCHC2H4C7PC18H20SHC2H3SH2C3HCHC7PC18H20CH2CHCHC3HCHC7HPH3C2HCH2CHC2H7CH2C4HC2H4CHCHC4H2C3HCH4PCHC3HCH2C2HCHC4HPC9HC10HCH8C3H2C3HCH2C4H2CHCH2CH3C8FeHCH3C2H2CHC3H3CH2C3SH4C6HC3HCSH2SCFeSFeSH3SH2SHFeSFeSCH2C6H2C7H4CSCH2CHC6H3C7H3CHCH2PC3H2CP2HC2H2C2H2C2HCHCPH4CHCHCHC4HCH2C2HSC2H2CH3C2HC4HCHC4HCH2CHCHPC2PHCFeHCHCH2FeHC2H2C2H3CHCH2SHC3H2C3HC2HC2SC5HC2HC3FeC3H2C2HC2H2C2HC2HC2HC3SHCH2C2HC5H2CHC2SH3CHC5HCSFeS2FeS2FeSFeS3HFeS2FeSCFeSFeS3FeS2FeS2FeSFeCS2FeS2FeS2FeSFePS2C6H4C6H3C6FeCHC6H4C6SH3C6H4C6H4C6H3CHC6HC2HCHCH4C2HPC11SH10C3HPC15HCFeH2CH5C2H6C9PC19H18C9H3C2H2CHC2HC3HPHC3H2C5HCH2CH3C2H3C2H3CHC2HC3H5PC3HC12H2CPHCH3CH3CH6CH3SHCHCHCHCH2C4H3CH2CSH3C2H4C2PC2HCHC2H4C2HCSC2H2CHCHCH4CHC4HC3H2CH2C2HCH3CHCH2CH3CHC5HC4H4C2H3SCHC2HCH3C4HCH2CH2SCFeS2FeS2FeSFeHS2FeS2FeSCFeSFeS3FeS2FeS2Fe2S3FeS2FeS2FeHFeS3C5HC6H4C4H2C6H4C6H4C6H4C6H4C6H3C6PC15H17C4HSCH2C3HCH2C2H2CH2CHC2HC3S2C3HCH4PH5C8PC11H14C3H2CHCHCH2C4PC18HCH23CPC6HC7HC4HCH6CH10C9H3CH7CHC5HC3H2CH3PC2H2CHCH2CHCHCH2CH2CHC6HC2HC4HC2HC2HCHC3SCHC2HFeHCH2PHC3H2C5H2CHCSCHCHSH3C4H2CHPC3H2SH3C2HCHSHFeS2H3FeSCSHFeCSFeHSH2FeCS2C7H4C6H4C6HCH2C7H2CHC2H3PC2H2C2HC16HSCHSH3C2HCH3C2HC3H4CH3CH2CHC2HCH4CH3PHCHCH2C9HC2PCHCH2CHC2H2PC5H2CH9C3H2C4HPHC4H3C2HC2H5CHSCPCFeCHFeSCFeS2FeSFeS3HSFeS2FeSHFeSFeS3FeS2FeS2FeSFeS3FeS2FeS2Fe2S3C4H3C6H4C4H2C6H4C6H4C6H4C6H4C6H2CH2C8H7C6PC18HCH18C3H4C2H4CHSHCHC2HC3H2C4H3C3HSHC6PC9HC8H12C2H6C2H3C6PC17HCH17PCHCHCH2CHC2HC3HCHC3H2CPCH2C3H3CHC6HC3H2CPSCH2CH4C4H2CHC2H2CH3C3H2CH2C9H2CHCH2C3HPC10HC6HC3H6CHC3H12C3SC4HC2HSC2HCH3FeHCH4C2FeS2FeSHSH2FeS2FeS2FeC3S2C8H5C5H3C7H4C6H6C3HC2HCHC5H3FeH3C4HCH6CH3C4H6PCH2CHCHC9HCH2CH2CH2C3H3CH3C2H2PCHCH4C2H2CHC2H3CP2C3HCHC12HCHCH5C2HC5SH2CH2CHC3H3C4HC2H3C2
_chemical_formula_sum              "S384 H2304 C2880 Fe192 P96"
_cell_length_a       103.057
_cell_length_b       30.7046
_cell_length_c       68.6287
_cell_angle_alpha    82.7243
_cell_angle_beta     83.9487
_cell_angle_gamma    83.2209

_space_group_name_H-M_alt    "P 1"
_space_group_IT_number       1

loop_
  _space_group_symop_operation_xyz
  'x, y, z'

loop_
  _atom_site_type_symbol
  _atom_site_label
  _atom_site_symmetry_multiplicity
  _atom_site_fract_x
  _atom_site_fract_y
  _atom_site_fract_z
  _atom_site_occupancy
  S   S1        1.0  0.99848  0.15278  0.08756  1.0000
  H   H1        1.0  0.23745  0.28670  0.18420  1.0000
  S   S2        1.0  0.21533  0.10375  0.10997  1.0000
  H   H2        1.0  0.02583  0.32133  0.20516  1.0000
  S   S3        1.0  0.22025  0.20629  0.09752  1.0000
  C   C1        1.0  0.23582  0.18275  0.00419  1.0000
  Fe  Fe1       1.0  0.21890  0.16030  0.12626  1.0000
  S   S4        1.0  0.20631  0.16143  0.15634  1.0000
  Fe  Fe2       1.0  0.21864  0.14735  0.08121  1.0000
  S   S5        1.0  0.20619  0.15641  0.05437  1.0000
  C   C2        1.0  0.19582  0.13092  0.00093  1.0000
  C   C3        1.0  0.99985  0.32440  0.14843  1.0000
  Fe  Fe3       1.0  0.01983  0.15555  0.09059  1.0000
  S   S6        1.0  0.02126  0.09834  0.11474  1.0000
  S   S7        1.0  0.03575  0.15654  0.06451  1.0000
  H   H3        1.0  0.21816  0.07550  0.22667  1.0000
  S   S8        1.0  0.24076  0.14119  0.12525  1.0000
  Fe  Fe4       1.0  0.01562  0.14770  0.13672  1.0000
  S   S9        1.0  0.02354  0.15963  0.16570  1.0000
  Fe  Fe5       1.0  0.99462  0.19831  0.11149  1.0000
  S   S10       1.0  0.01597  0.20526  0.11261  1.0000
  C   C4        1.0  0.22803  0.32342  0.01385  1.0000
  H   H4        1.0  0.02911  0.26040  0.14597  1.0000
  C   C5        1.0  0.04715  0.08663  0.21646  1.0000
  C   C6        1.0  0.04146  0.13023  0.21698  1.0000
  C   C7        1.0  0.03422  0.15163  0.20145  1.0000
  C   C8        1.0  0.03251  0.12996  0.18511  1.0000
  C   C9        1.0  0.03811  0.08622  0.18465  1.0000
  C   C10       1.0  0.04538  0.06482  0.20019  1.0000
  H   H5        1.0  0.04274  0.14754  0.22929  1.0000
  H   H6        1.0  0.02995  0.18529  0.20211  1.0000
  H   H7        1.0  0.03693  0.06896  0.17226  1.0000
  C   C11       1.0  0.04043  0.48189  0.22934  1.0000
  C   C12       1.0  0.04198  0.17884  0.00460  1.0000
  C   C13       1.0  0.01967  0.20844  0.01339  1.0000
  C   C14       1.0  0.02103  0.19365  0.03348  1.0000
  C   C15       1.0  0.03296  0.17193  0.03927  1.0000
  C   C16       1.0  0.04327  0.16363  0.02463  1.0000
  C   C17       1.0  0.14944  0.30243  0.24295  1.0000
  S   S11       1.0  0.24032  0.12683  0.07859  1.0000
  H   H8        1.0  0.01294  0.19991  0.04452  1.0000
  H   H9        1.0  0.05237  0.14577  0.02877  1.0000
  H   H10       1.0  0.20939  0.29639  0.01696  1.0000
  C   C18       1.0  0.20152  0.22699  0.21458  1.0000
  C   C19       1.0  0.19748  0.18515  0.21405  1.0000
  C   C20       1.0  0.19934  0.16523  0.19629  1.0000
  C   C21       1.0  0.20552  0.18618  0.17885  1.0000
  C   C22       1.0  0.21003  0.22711  0.17960  1.0000
  C   C23       1.0  0.20794  0.24742  0.19724  1.0000
  H   H11       1.0  0.19264  0.16857  0.22719  1.0000
  H   H12       1.0  0.19573  0.13370  0.19595  1.0000
  H   H13       1.0  0.21469  0.24396  0.16638  1.0000
  H   H14       1.0  0.21113  0.27970  0.19737  1.0000
  C   C24       1.0  0.10729  0.09675  0.99596  1.0000
  C   C25       1.0  0.21413  0.07761  0.00904  1.0000
  C   C26       1.0  0.21476  0.09570  0.02689  1.0000
  C   C27       1.0  0.20596  0.13182  0.03192  1.0000
  C   C28       1.0  0.19655  0.14934  0.01868  1.0000
  H   H15       1.0  0.13023  0.22775  0.23230  1.0000
  H   H16       1.0  0.06633  0.20961  0.03390  1.0000
  H   H17       1.0  0.22203  0.08152  0.03679  1.0000
  H   H18       1.0  0.18966  0.17717  0.02228  1.0000
  H   H19       1.0  0.06351  0.00974  0.03164  1.0000
  C   C29       1.0  0.06191  0.26043  0.01070  1.0000
  C   C30       1.0  0.18233  0.06793  0.24218  1.0000
  H   H20       1.0  0.00867  0.87549  0.02977  1.0000
  C   C31       1.0  0.06184  0.03920  0.00169  1.0000
  C   C32       1.0  0.10263  0.13724  0.00303  1.0000
  H   H21       1.0  0.23153  0.92064  0.21352  1.0000
  C   C33       1.0  0.15751  0.12872  0.18769  1.0000
  P   P1        1.0  0.00096  0.28279  0.20743  1.0000
  C   C34       1.0  0.09011  0.13882  0.08326  1.0000
  H   H22       1.0  0.99665  0.51638  0.08523  1.0000
  C   C35       1.0  0.01746  0.27406  0.17284  1.0000
  C   C36       1.0  0.06609  0.03644  0.02053  1.0000
  C   C37       1.0  0.22195  0.26412  0.03869  1.0000
  H   H23       1.0  0.21414  0.96580  0.19562  1.0000
  C   C38       1.0  0.21495  0.02329  0.21024  1.0000
  C   C39       1.0  0.99691  0.31983  0.16890  1.0000
  C   C40       1.0  0.99758  0.43531  0.10722  1.0000
  C   C41       1.0  0.11564  0.14030  0.21538  1.0000
  H   H24       1.0  0.22852  0.21108  0.00432  1.0000
  C   C42       1.0  0.01598  0.23247  0.23572  1.0000
  C   C43       1.0  0.00920  0.94610  0.02679  1.0000
  H   H25       1.0  0.17233  0.21709  0.23340  1.0000
  H   H26       1.0  0.10903  0.14889  0.20389  1.0000
  H   H27       1.0  0.03550  0.06807  0.02964  1.0000
  H   H28       1.0  0.07716  0.06446  0.03956  1.0000
  C   C44       1.0  0.02062  0.04450  0.00074  1.0000
  P   P2        1.0  0.01007  0.03713  0.02355  1.0000
  C   C45       1.0  0.07856  0.19814  0.00687  1.0000
  H   H29       1.0  0.23151  0.42913  0.00089  1.0000
  C   C46       1.0  0.01535  0.26853  0.22090  1.0000
  C   C47       1.0  0.23903  0.15941  0.02218  1.0000
  H   H30       1.0  0.10443  0.81905  0.23889  1.0000
  C   C48       1.0  0.02605  0.29371  0.21667  1.0000
  C   C49       1.0  0.16273  0.23545  0.23507  1.0000
  H   H31       1.0  0.10709  0.20382  0.00461  1.0000
  C   C50       1.0  0.99648  0.35975  0.22639  1.0000
  C   C51       1.0  0.03714  0.28318  0.22720  1.0000
  P   P3        1.0  0.08653  0.14493  0.01626  1.0000
  C   C52       1.0  0.16689  0.19680  0.18928  1.0000
  C   C53       1.0  0.01959  0.03236  0.04456  1.0000
  C   C54       1.0  0.01474  0.01130  0.06283  1.0000
  C   C55       1.0  0.02178  0.00843  0.07936  1.0000
  C   C56       1.0  0.03371  0.02647  0.07784  1.0000
  C   C57       1.0  0.03863  0.04734  0.05976  1.0000
  C   C58       1.0  0.03161  0.05047  0.04319  1.0000
  C   C59       1.0  0.16173  0.27836  0.24023  1.0000
  C   C60       1.0  0.23421  0.26152  0.04593  1.0000
  C   C61       1.0  0.00180  0.98768  0.02585  1.0000
  Fe  Fe6       1.0  0.99955  0.09808  0.11252  1.0000
  C   C62       1.0  0.21867  0.97955  0.20669  1.0000
  C   C63       1.0  0.24033  0.32147  0.02123  1.0000
  C   C64       1.0  0.23544  0.09802  0.17505  1.0000
  H   H32       1.0  0.22716  0.16362  0.21225  1.0000
  C   C65       1.0  0.00568  0.29464  0.18131  1.0000
  C   C66       1.0  0.16316  0.12760  0.16828  1.0000
  C   C67       1.0  0.11125  0.11790  0.23343  1.0000
  H   H33       1.0  0.02333  0.11199  0.00405  1.0000
  H   H34       1.0  0.00532  0.99813  0.06457  1.0000
  H   H35       1.0  0.01776  0.99336  0.09352  1.0000
  H   H36       1.0  0.03894  0.02543  0.09081  1.0000
  Fe  Fe7       1.0  0.23721  0.08693  0.10819  1.0000
  H   H37       1.0  0.22226  0.07638  0.15674  1.0000
  C   C68       1.0  0.03021  0.20189  0.99889  1.0000
  C   C69       1.0  0.21889  0.29483  0.02258  1.0000
  C   C70       1.0  0.02034  0.27842  0.15237  1.0000
  C   C71       1.0  0.99829  0.08553  0.02435  1.0000
  H   H38       1.0  0.99582  0.08196  0.05630  1.0000
  H   H39       1.0  0.01981  0.94357  0.02590  1.0000
  H   H40       1.0  0.10123  0.10944  0.23601  1.0000
  C   C72       1.0  0.08797  0.14246  0.04253  1.0000
  C   C73       1.0  0.01152  0.30341  0.14016  1.0000
  C   C74       1.0  0.23092  0.01613  0.23427  1.0000
  C   C75       1.0  0.23453  0.97187  0.23110  1.0000
  C   C76       1.0  0.15147  0.21685  0.23176  1.0000
  P   P4        1.0  0.15297  0.16223  0.22402  1.0000
  C   C77       1.0  0.06889  0.22156  0.01869  1.0000
  C   C78       1.0  0.07681  0.13976  0.05616  1.0000
  C   C79       1.0  0.07788  0.13812  0.07637  1.0000
  C   C80       1.0  0.10026  0.14294  0.04964  1.0000
  H   H41       1.0  0.00669  0.35453  0.22922  1.0000
  H   H42       1.0  0.00156  0.45857  0.11498  1.0000
  C   C81       1.0  0.03150  0.45113  0.22902  1.0000
  C   C82       1.0  0.00562  0.39797  0.10181  1.0000
  C   C83       1.0  0.07685  0.10327  0.01084  1.0000
  H   H43       1.0  0.05414  0.27731  0.01975  1.0000
  H   H44       1.0  0.16878  0.22344  0.19711  1.0000
  H   H45       1.0  0.17053  0.29278  0.24229  1.0000
  H   H46       1.0  0.04760  0.06295  0.05881  1.0000
  C   C84       1.0  0.12841  0.15266  0.21238  1.0000
  H   H47       1.0  0.01045  0.22573  0.00911  1.0000
  H   H48       1.0  0.13149  0.17134  0.19855  1.0000
  C   C85       1.0  0.23653  0.02341  0.16657  1.0000
  C   C86       1.0  0.15938  0.16326  0.19839  1.0000
  C   C87       1.0  0.20460  0.09471  0.99594  1.0000
  H   H49       1.0  0.23302  0.99974  0.15846  1.0000
  H   H50       1.0  0.06721  0.13881  0.05131  1.0000
  H   H51       1.0  0.15194  0.10211  0.19450  1.0000
  H   H52       1.0  0.10909  0.14454  0.03969  1.0000
  C   C88       1.0  0.22102  0.04148  0.22408  1.0000
  H   H53       1.0  0.04971  0.03113  0.19957  1.0000
  H   H54       1.0  0.02410  0.25241  0.18185  1.0000
  H   H55       1.0  0.11080  0.14148  0.07528  1.0000
  H   H56       1.0  0.05592  0.01484  0.99819  1.0000
  H   H57       1.0  0.17865  0.22073  0.16313  1.0000
  C   C89       1.0  0.17250  0.19556  0.16988  1.0000
  C   C90       1.0  0.07372  0.06798  0.02504  1.0000
  C   C91       1.0  0.00294  0.90749  0.02915  1.0000
  C   C92       1.0  0.17073  0.16088  0.15943  1.0000
  H   H58       1.0  0.23080  0.13165  0.17371  1.0000
  Fe  Fe8       1.0  0.24193  0.18356  0.09586  1.0000
  H   H59       1.0  0.09091  0.13751  0.09896  1.0000
  H   H60       1.0  0.23606  0.88434  0.06198  1.0000
  H   H61       1.0  0.16188  0.10058  0.16018  1.0000
  S   S12       1.0  0.05662  0.05823  0.23556  1.0000
  H   H62       1.0  0.06915  0.13640  0.08667  1.0000
  C   C93       1.0  0.22850  0.95402  0.21693  1.0000
  C   C94       1.0  0.16424  0.12621  0.23888  1.0000
  H   H63       1.0  0.01351  0.30504  0.12430  1.0000
  H   H64       1.0  0.22100  0.04970  0.00546  1.0000
  H   H65       1.0  0.12858  0.30228  0.24246  1.0000
  H   H66       1.0  0.20756  0.04346  0.20195  1.0000
  C   C95       1.0  0.13697  0.14209  0.22735  1.0000
  C   C96       1.0  0.10130  0.14112  0.06991  1.0000
  H   H67       1.0  0.17547  0.15947  0.14460  1.0000
  H   H68       1.0  0.21483  0.24221  0.04554  1.0000
  H   H69       1.0  0.17494  0.09417  0.21466  1.0000
  H   H70       1.0  0.18975  0.04496  0.23554  1.0000
  H   H71       1.0  0.22540  0.34685  0.00142  1.0000
  C   C97       1.0  0.23053  0.06674  0.16546  1.0000
  C   C98       1.0  0.13913  0.24136  0.23439  1.0000
  C   C99       1.0  0.17385  0.09603  0.23037  1.0000
  H   H72       1.0  0.00802  0.21196  0.23914  1.0000
  S   S13       1.0  0.19854  0.25601  0.23605  1.0000
  H   H73       1.0  0.04542  0.30244  0.22380  1.0000
  H   H74       1.0  0.00657  0.33709  0.08875  1.0000
  H   H75       1.0  0.02626  0.45156  0.21609  1.0000
  H   H76       1.0  0.23945  0.96208  0.06441  1.0000
  H   H77       1.0  0.23408  0.16950  0.03588  1.0000
  C   C100      1.0  0.24220  0.25765  0.17784  1.0000
  H   H78       1.0  0.01577  0.39277  0.10516  1.0000
  C   C101      1.0  0.23242  0.14810  0.22462  1.0000
  H   H79       1.0  0.00074  0.20844  0.18425  1.0000
  C   C102      1.0  0.11051  0.17228  0.99936  1.0000
  H   H80       1.0  0.00183  0.58951  0.06922  1.0000
  C   C103      1.0  0.24338  0.28991  0.03725  1.0000
  H   H81       1.0  0.04209  0.50620  0.21668  1.0000
  H   H82       1.0  0.24281  0.28957  0.14796  1.0000
  H   H83       1.0  0.12812  0.82846  0.23703  1.0000
  C   C104      1.0  0.13814  0.28386  0.24011  1.0000
  H   H84       1.0  0.10146  0.06915  0.99853  1.0000
  H   H85       1.0  0.24316  0.83249  0.15389  1.0000
  H   H86       1.0  0.24280  0.21834  0.20580  1.0000
  H   H87       1.0  0.23661  0.23755  0.05837  1.0000
  C   C105      1.0  0.22625  0.14938  0.24374  1.0000
  C   C106      1.0  0.00048  0.36666  0.09255  1.0000
  C   C107      1.0  0.03765  0.24740  0.24197  1.0000
  C   C108      1.0  0.02558  0.08531  0.99488  1.0000
  Fe  Fe9       1.0  0.19720  0.55188  0.45262  1.0000
  S   S14       1.0  0.18498  0.61528  0.44347  1.0000
  H   H88       1.0  0.09788  0.90182  0.34241  1.0000
  Fe  Fe10      1.0  0.19096  0.50842  0.41514  1.0000
  S   S15       1.0  0.17866  0.57055  0.40433  1.0000
  S   S16       1.0  0.19250  0.44212  0.40101  1.0000
  Fe  Fe11      1.0  0.19460  0.60733  0.41288  1.0000
  S   S17       1.0  0.20061  0.66750  0.39242  1.0000
  Fe  Fe12      1.0  0.17021  0.57312  0.43577  1.0000
  S   S18       1.0  0.14849  0.57969  0.44712  1.0000
  S   S19       1.0  0.20758  0.54537  0.42198  1.0000
  S   S20       1.0  0.18182  0.50944  0.44663  1.0000
  Fe  Fe13      1.0  0.20099  0.19157  0.30713  1.0000
  S   S21       1.0  0.20363  0.25938  0.29149  1.0000
  S   S22       1.0  0.22024  0.15310  0.31581  1.0000
  Fe  Fe14      1.0  0.17156  0.20314  0.30176  1.0000
  S   S23       1.0  0.17263  0.27183  0.28587  1.0000
  S   S24       1.0  0.15373  0.16315  0.30965  1.0000
  Fe  Fe15      1.0  0.19112  0.24190  0.26913  1.0000
  Fe  Fe16      1.0  0.18523  0.28343  0.30978  1.0000
  S   S25       1.0  0.18285  0.35010  0.32395  1.0000
  S   S26       1.0  0.18945  0.17323  0.28401  1.0000
  S   S27       1.0  0.18321  0.21596  0.32642  1.0000
  Fe  Fe17      1.0  0.07909  0.12913  0.28585  1.0000
  S   S28       1.0  0.06686  0.11900  0.31498  1.0000
  S   S29       1.0  0.09657  0.17078  0.27881  1.0000
  Fe  Fe18      1.0  0.06062  0.08218  0.26454  1.0000
  S   S30       1.0  0.04767  0.06661  0.29248  1.0000
  C   C109      1.0  0.22699  0.67888  0.32821  1.0000
  Fe  Fe19      1.0  0.04918  0.13673  0.29780  1.0000
  S   S31       1.0  0.02992  0.18007  0.30383  1.0000
  Fe  Fe20      1.0  0.06610  0.04917  0.30788  1.0000
  S   S32       1.0  0.07100  0.99233  0.33225  1.0000
  S   S33       1.0  0.06130  0.15280  0.26907  1.0000
  S   S34       1.0  0.07926  0.05894  0.27940  1.0000
  Fe  Fe21      1.0  0.07928  0.69943  0.41416  1.0000
  S   S35       1.0  0.06859  0.76246  0.42405  1.0000
  S   S36       1.0  0.10136  0.69441  0.40521  1.0000
  Fe  Fe22      1.0  0.05353  0.65918  0.41206  1.0000
  S   S37       1.0  0.04117  0.71993  0.42135  1.0000
  S   S38       1.0  0.04635  0.59202  0.40995  1.0000
  Fe  Fe23      1.0  0.05521  0.75973  0.40046  1.0000
  S   S39       1.0  0.04766  0.81815  0.37826  1.0000
  Fe  Fe24      1.0  0.05549  0.71815  0.44421  1.0000
  S   S40       1.0  0.04877  0.73401  0.47586  1.0000
  S   S41       1.0  0.06647  0.69835  0.38959  1.0000
  S   S42       1.0  0.06731  0.65577  0.43595  1.0000
  H   H89       1.0  0.07691  0.30713  0.26009  1.0000
  C   C110      1.0  0.21222  0.80710  0.43968  1.0000
  C   C111      1.0  0.03451  0.57822  0.39526  1.0000
  C   C112      1.0  0.03100  0.53477  0.39791  1.0000
  C   C113      1.0  0.02181  0.52189  0.38648  1.0000
  C   C114      1.0  0.01624  0.55214  0.37185  1.0000
  C   C115      1.0  0.01972  0.59562  0.36923  1.0000
  C   C116      1.0  0.02872  0.60874  0.38096  1.0000
  H   H90       1.0  0.03553  0.51080  0.40876  1.0000
  H   H91       1.0  0.01926  0.48835  0.38869  1.0000
  H   H92       1.0  0.01549  0.61931  0.35797  1.0000
  H   H93       1.0  0.03131  0.64226  0.37869  1.0000
  C   C117      1.0  0.06400  0.94481  0.34505  1.0000
  C   C118      1.0  0.05266  0.92997  0.33977  1.0000
  C   C119      1.0  0.04780  0.89145  0.35013  1.0000
  C   C120      1.0  0.05421  0.86692  0.36584  1.0000
  C   C121      1.0  0.06542  0.88226  0.37132  1.0000
  C   C122      1.0  0.07022  0.92089  0.36104  1.0000
  H   H94       1.0  0.04769  0.94792  0.32760  1.0000
  H   H95       1.0  0.03908  0.88026  0.34579  1.0000
  H   H96       1.0  0.07042  0.86429  0.38345  1.0000
  H   H97       1.0  0.07887  0.93224  0.36551  1.0000
  C   C123      1.0  0.02586  0.21562  0.32249  1.0000
  C   C124      1.0  0.01496  0.24752  0.32076  1.0000
  C   C125      1.0  0.01159  0.27784  0.33470  1.0000
  C   C126      1.0  0.01889  0.27567  0.35089  1.0000
  C   C127      1.0  0.02969  0.24331  0.35284  1.0000
  C   C128      1.0  0.03327  0.21367  0.33859  1.0000
  H   H98       1.0  0.00927  0.24948  0.30827  1.0000
  H   H99       1.0  0.00336  0.30288  0.33295  1.0000
  H   H100      1.0  0.03540  0.24146  0.36533  1.0000
  H   H101      1.0  0.04170  0.18932  0.34008  1.0000
  C   C129      1.0  0.13791  0.16594  0.30069  1.0000
  C   C130      1.0  0.12953  0.13355  0.30843  1.0000
  C   C131      1.0  0.11689  0.13439  0.30198  1.0000
  C   C132      1.0  0.11242  0.16779  0.28764  1.0000
  C   C133      1.0  0.12085  0.19992  0.27977  1.0000
  C   C134      1.0  0.13349  0.19906  0.28620  1.0000
  H   H102      1.0  0.13281  0.10772  0.31962  1.0000
  H   H103      1.0  0.11058  0.10944  0.30819  1.0000
  H   H104      1.0  0.11753  0.22587  0.26867  1.0000
  H   H105      1.0  0.13977  0.22421  0.28008  1.0000
  C   C135      1.0  0.21479  0.02919  0.34231  1.0000
  C   C136      1.0  0.21242  0.07211  0.33250  1.0000
  C   C137      1.0  0.22267  0.09877  0.32790  1.0000
  H   H106      1.0  0.20680  0.00885  0.34593  1.0000
  H   H107      1.0  0.20266  0.08463  0.32858  1.0000
  C   C138      1.0  0.18945  0.41764  0.37942  1.0000
  C   C139      1.0  0.19161  0.37130  0.37953  1.0000
  C   C140      1.0  0.18961  0.35024  0.36296  1.0000
  C   C141      1.0  0.18545  0.37497  0.34568  1.0000
  C   C142      1.0  0.18315  0.42133  0.34564  1.0000
  C   C143      1.0  0.18507  0.44243  0.36227  1.0000
  H   H108      1.0  0.19483  0.35139  0.39261  1.0000
  H   H109      1.0  0.19121  0.31478  0.36364  1.0000
  H   H110      1.0  0.17993  0.44124  0.33253  1.0000
  H   H111      1.0  0.18331  0.47796  0.36169  1.0000
  C   C144      1.0  0.13558  0.61060  0.43468  1.0000
  C   C145      1.0  0.13794  0.64139  0.41826  1.0000
  C   C146      1.0  0.12734  0.66673  0.40942  1.0000
  C   C147      1.0  0.11430  0.66177  0.41699  1.0000
  C   C148      1.0  0.11194  0.63040  0.43321  1.0000
  C   C149      1.0  0.12256  0.60498  0.44199  1.0000
  H   H112      1.0  0.14792  0.64604  0.41252  1.0000
  H   H113      1.0  0.12925  0.69053  0.39671  1.0000
  H   H114      1.0  0.10195  0.62616  0.43904  1.0000
  H   H115      1.0  0.12072  0.58091  0.45458  1.0000
  C   C150      1.0  0.21516  0.69186  0.39435  1.0000
  C   C151      1.0  0.21686  0.73377  0.38412  1.0000
  C   C152      1.0  0.22815  0.75455  0.38561  1.0000
  H   H116      1.0  0.20931  0.75052  0.37521  1.0000
  H   H117      1.0  0.22925  0.78713  0.37798  1.0000
  H   H118      1.0  0.11492  0.80904  0.31546  1.0000
  C   C153      1.0  0.19737  0.77810  0.42071  1.0000
  C   C154      1.0  0.15618  0.69459  0.45538  1.0000
  H   H119      1.0  0.17079  0.10056  0.28691  1.0000
  H   H120      1.0  0.01100  0.01624  0.30897  1.0000
  C   C155      1.0  0.12658  0.85520  0.26485  1.0000
  C   C156      1.0  0.06647  0.26390  0.28165  1.0000
  H   H121      1.0  0.08956  0.84031  0.26735  1.0000
  H   H122      1.0  0.18775  0.04773  0.27176  1.0000
  H   H123      1.0  0.21573  0.19615  0.45665  1.0000
  H   H124      1.0  0.00561  0.04660  0.40975  1.0000
  H   H125      1.0  0.01381  0.56769  0.43187  1.0000
  H   H126      1.0  0.14870  0.33533  0.24739  1.0000
  H   H127      1.0  0.02753  0.19424  0.25768  1.0000
  H   H128      1.0  0.04229  0.91856  0.27860  1.0000
  H   H129      1.0  0.04435  0.90342  0.40130  1.0000
  H   H130      1.0  0.99878  0.19810  0.37481  1.0000
  H   H131      1.0  0.07258  0.65227  0.48256  1.0000
  C   C157      1.0  0.23559  0.82536  0.48480  1.0000
  C   C158      1.0  0.22165  0.62313  0.35519  1.0000
  C   C159      1.0  0.23806  0.73297  0.39682  1.0000
  H   H132      1.0  0.19094  0.78255  0.40893  1.0000
  C   C160      1.0  0.10828  0.83250  0.25069  1.0000
  P   P5        1.0  0.22553  0.75664  0.46984  1.0000
  C   C161      1.0  0.04505  0.45005  0.26234  1.0000
  C   C162      1.0  0.24288  0.81541  0.45077  1.0000
  C   C163      1.0  0.24312  0.86079  0.48354  1.0000
  C   C164      1.0  0.03739  0.97108  0.39187  1.0000
  S   S43       1.0  0.01468  0.31227  0.36910  1.0000
  H   H133      1.0  0.15631  0.15170  0.26617  1.0000
  C   C165      1.0  0.20365  0.81335  0.42483  1.0000
  C   C166      1.0  0.23546  0.70417  0.46826  1.0000
  C   C167      1.0  0.23669  0.22932  0.33728  1.0000
  C   C168      1.0  0.13240  0.11996  0.24552  1.0000
  C   C169      1.0  0.23543  0.80215  0.46842  1.0000
  C   C170      1.0  0.23389  0.77938  0.33349  1.0000
  H   H134      1.0  0.03307  0.98601  0.44755  1.0000
  C   C171      1.0  0.09286  0.62602  0.48551  1.0000
  C   C172      1.0  0.01752  0.00446  0.35709  1.0000
  H   H135      1.0  0.05370  0.03271  0.36102  1.0000
  C   C173      1.0  0.10080  0.92802  0.33132  1.0000
  C   C174      1.0  0.10591  0.63624  0.48271  1.0000
  C   C175      1.0  0.07259  0.93504  0.28979  1.0000
  H   H136      1.0  0.05046  0.44975  0.27508  1.0000
  C   C176      1.0  0.23770  0.03900  0.34272  1.0000
  H   H137      1.0  0.07283  0.82346  0.30046  1.0000
  C   C177      1.0  0.21197  0.27933  0.41929  1.0000
  C   C178      1.0  0.21273  0.25426  0.40347  1.0000
  C   C179      1.0  0.19955  0.15717  0.38478  1.0000
  C   C180      1.0  0.00036  0.16526  0.38269  1.0000
  C   C181      1.0  0.17777  0.14211  0.39941  1.0000
  C   C182      1.0  0.17489  0.12974  0.38156  1.0000
  C   C183      1.0  0.18431  0.13082  0.36537  1.0000
  C   C184      1.0  0.19657  0.14461  0.36694  1.0000
  H   H138      1.0  0.22094  0.83245  0.34498  1.0000
  C   C185      1.0  0.17437  0.71754  0.46971  1.0000
  C   C186      1.0  0.11963  0.10767  0.24844  1.0000
  H   H139      1.0  0.17044  0.14138  0.41194  1.0000
  H   H140      1.0  0.16534  0.11958  0.38019  1.0000
  H   H141      1.0  0.18206  0.12156  0.35146  1.0000
  H   H142      1.0  0.20370  0.14582  0.35418  1.0000
  C   C187      1.0  0.05497  0.25908  0.29405  1.0000
  C   C188      1.0  0.01386  0.09499  0.38755  1.0000
  C   C189      1.0  0.03596  0.41941  0.26225  1.0000
  C   C190      1.0  0.09985  0.84472  0.26689  1.0000
  C   C191      1.0  0.04627  0.33394  0.28249  1.0000
  C   C192      1.0  0.04495  0.29393  0.29448  1.0000
  P   P6        1.0  0.03323  0.37896  0.28341  1.0000
  C   C193      1.0  0.03263  0.40439  0.30598  1.0000
  C   C194      1.0  0.06386  0.54783  0.45339  1.0000
  H   H143      1.0  0.22788  0.13010  0.27477  1.0000
  C   C195      1.0  0.23197  0.85483  0.31790  1.0000
  C   C196      1.0  0.08247  0.55462  0.47141  1.0000
  C   C197      1.0  0.01342  0.57042  0.44754  1.0000
  C   C198      1.0  0.23200  0.82256  0.25458  1.0000
  C   C199      1.0  0.03523  0.37869  0.32388  1.0000
  C   C200      1.0  0.03421  0.39825  0.34139  1.0000
  C   C201      1.0  0.03061  0.44359  0.34123  1.0000
  C   C202      1.0  0.02787  0.46935  0.32359  1.0000
  C   C203      1.0  0.02873  0.44986  0.30608  1.0000
  C   C204      1.0  0.01737  0.36021  0.28231  1.0000
  C   C205      1.0  0.00594  0.38755  0.28744  1.0000
  S   S44       1.0  0.99833  0.42161  0.33840  1.0000
  H   H144      1.0  0.16941  0.73939  0.44003  1.0000
  C   C206      1.0  0.00383  0.30750  0.27328  1.0000
  C   C207      1.0  0.01622  0.32018  0.27506  1.0000
  H   H145      1.0  0.05383  0.22822  0.30333  1.0000
  H   H146      1.0  0.24265  0.79921  0.43765  1.0000
  H   H147      1.0  0.07840  0.96195  0.28992  1.0000
  C   C208      1.0  0.22742  0.26114  0.32886  1.0000
  H   H148      1.0  0.03611  0.28965  0.30412  1.0000
  C   C209      1.0  0.23054  0.66496  0.47729  1.0000
  S   S45       1.0  0.20820  0.54086  0.48114  1.0000
  H   H149      1.0  0.01830  0.14899  0.36514  1.0000
  C   C210      1.0  0.16342  0.12809  0.25930  1.0000
  C   C211      1.0  0.06003  0.94463  0.28335  1.0000
  H   H150      1.0  0.03772  0.34342  0.32463  1.0000
  H   H151      1.0  0.03585  0.37794  0.35520  1.0000
  H   H152      1.0  0.02954  0.45868  0.35485  1.0000
  H   H153      1.0  0.02466  0.50429  0.32368  1.0000
  H   H154      1.0  0.02602  0.47031  0.29280  1.0000
  H   H155      1.0  0.00649  0.41887  0.29282  1.0000
  H   H156      1.0  0.07425  0.23687  0.28138  1.0000
  C   C212      1.0  0.23357  0.86765  0.25195  1.0000
  H   H157      1.0  0.02483  0.29863  0.27079  1.0000
  C   C213      1.0  0.04722  0.48126  0.24597  1.0000
  C   C214      1.0  0.10785  0.99789  0.30342  1.0000
  C   C215      1.0  0.00436  0.55225  0.48123  1.0000
  C   C216      1.0  0.16683  0.71947  0.45378  1.0000
  H   H158      1.0  0.22247  0.81167  0.25966  1.0000
  C   C217      1.0  0.21309  0.25842  0.43842  1.0000
  H   H159      1.0  0.19494  0.70911  0.42807  1.0000
  C   C218      1.0  0.23800  0.97379  0.29899  1.0000
  C   C219      1.0  0.09440  0.58220  0.38904  1.0000
  C   C220      1.0  0.08697  0.55140  0.38346  1.0000
  C   C221      1.0  0.09327  0.51293  0.37628  1.0000
  C   C222      1.0  0.10701  0.50541  0.37449  1.0000
  C   C223      1.0  0.11452  0.53656  0.37982  1.0000
  C   C224      1.0  0.10809  0.57470  0.38734  1.0000
  P   P7        1.0  0.13227  0.52800  0.37764  1.0000
  C   C225      1.0  0.13819  0.50562  0.40112  1.0000
  C   C226      1.0  0.13853  0.48923  0.36022  1.0000
  C   C227      1.0  0.14411  0.50382  0.34129  1.0000
  C   C228      1.0  0.15004  0.47325  0.32870  1.0000
  C   C229      1.0  0.15047  0.42800  0.33488  1.0000
  C   C230      1.0  0.14481  0.41321  0.35358  1.0000
  C   C231      1.0  0.13881  0.44362  0.36618  1.0000
  C   C232      1.0  0.15103  0.48444  0.40177  1.0000
  C   C233      1.0  0.15574  0.46703  0.41981  1.0000
  C   C234      1.0  0.14768  0.47054  0.43734  1.0000
  C   C235      1.0  0.13487  0.49126  0.43684  1.0000
  C   C236      1.0  0.13014  0.50896  0.41881  1.0000
  C   C237      1.0  0.13831  0.58077  0.36930  1.0000
  C   C238      1.0  0.13183  0.61070  0.35535  1.0000
  C   C239      1.0  0.13640  0.65172  0.34898  1.0000
  C   C240      1.0  0.14752  0.66304  0.35637  1.0000
  C   C241      1.0  0.15409  0.63329  0.37009  1.0000
  C   C242      1.0  0.14948  0.59238  0.37659  1.0000
  H   H160      1.0  0.08956  0.61205  0.39467  1.0000
  H   H161      1.0  0.07633  0.55747  0.38472  1.0000
  H   H162      1.0  0.08749  0.48910  0.37195  1.0000
  H   H163      1.0  0.11169  0.47561  0.36879  1.0000
  H   H164      1.0  0.11368  0.59896  0.39174  1.0000
  H   H165      1.0  0.14423  0.53862  0.33632  1.0000
  H   H166      1.0  0.15463  0.48452  0.31429  1.0000
  H   H167      1.0  0.15546  0.40434  0.32537  1.0000
  H   H168      1.0  0.14540  0.37809  0.35843  1.0000
  H   H169      1.0  0.13476  0.43152  0.38080  1.0000
  H   H170      1.0  0.15754  0.48182  0.38837  1.0000
  H   H171      1.0  0.16573  0.45145  0.42018  1.0000
  H   H172      1.0  0.15152  0.45824  0.45131  1.0000
  H   H173      1.0  0.12881  0.49523  0.45049  1.0000
  H   H174      1.0  0.12035  0.52600  0.41883  1.0000
  H   H175      1.0  0.12320  0.60241  0.34946  1.0000
  H   H176      1.0  0.13127  0.67477  0.33837  1.0000
  H   H177      1.0  0.15104  0.69489  0.35154  1.0000
  H   H178      1.0  0.16270  0.64206  0.37592  1.0000
  H   H179      1.0  0.15456  0.57019  0.38746  1.0000
  C   C243      1.0  0.07740  0.89136  0.29607  1.0000
  C   C244      1.0  0.09458  0.83286  0.32292  1.0000
  C   C245      1.0  0.08357  0.82678  0.33646  1.0000
  C   C246      1.0  0.08405  0.79254  0.35195  1.0000
  C   C247      1.0  0.09560  0.76448  0.35427  1.0000
  C   C248      1.0  0.10669  0.77060  0.34105  1.0000
  H   H180      1.0  0.10265  0.95997  0.28176  1.0000
  C   C249      1.0  0.16437  0.49223  0.49185  1.0000
  C   C250      1.0  0.24376  0.64431  0.34913  1.0000
  H   H181      1.0  0.24156  0.75656  0.25289  1.0000
  H   H182      1.0  0.13844  0.11312  0.25772  1.0000
  H   H183      1.0  0.07460  0.84871  0.33517  1.0000
  H   H184      1.0  0.07547  0.78807  0.36232  1.0000
  H   H185      1.0  0.09597  0.73829  0.36645  1.0000
  H   H186      1.0  0.05936  0.36886  0.26065  1.0000
  H   H187      1.0  0.11034  0.02536  0.29268  1.0000
  C   C251      1.0  0.02707  0.22217  0.24626  1.0000
  C   C252      1.0  0.05669  0.86732  0.28982  1.0000
  H   H188      1.0  0.11886  0.68604  0.47204  1.0000
  C   C253      1.0  0.05519  0.14682  0.37876  1.0000
  C   C254      1.0  0.09098  0.54288  0.45510  1.0000
  C   C255      1.0  0.08597  0.53256  0.43830  1.0000
  C   C256      1.0  0.07241  0.53502  0.43744  1.0000
  H   H189      1.0  0.05649  0.97837  0.27824  1.0000
  H   H190      1.0  0.03926  0.96652  0.37639  1.0000
  H   H191      1.0  0.04131  0.91271  0.43682  1.0000
  C   C257      1.0  0.23773  0.62400  0.47524  1.0000
  H   H192      1.0  0.04827  0.63863  0.48762  1.0000
  C   C258      1.0  0.23745  0.96813  0.27919  1.0000
  H   H193      1.0  0.10149  0.54228  0.45524  1.0000
  H   H194      1.0  0.09258  0.52369  0.42575  1.0000
  H   H195      1.0  0.06849  0.52850  0.42416  1.0000
  C   C259      1.0  0.03204  0.01211  0.39782  1.0000
  C   C260      1.0  0.02123  0.42146  0.43061  1.0000
  H   H196      1.0  0.02097  0.48730  0.43794  1.0000
  H   H197      1.0  0.07542  0.14057  0.36664  1.0000
  H   H198      1.0  0.23737  0.59630  0.37286  1.0000
  H   H199      1.0  0.13693  0.85928  0.26406  1.0000
  H   H200      1.0  0.22520  0.89133  0.25514  1.0000
  C   C261      1.0  0.24274  0.79149  0.25082  1.0000
  C   C262      1.0  0.06634  0.12530  0.36925  1.0000
  C   C263      1.0  0.03881  0.94055  0.42599  1.0000
  C   C264      1.0  0.10597  0.49144  0.49355  1.0000
  H   H201      1.0  0.01584  0.98249  0.37051  1.0000
  C   C265      1.0  0.09860  0.71168  0.47040  1.0000
  H   H202      1.0  0.00863  0.96442  0.33970  1.0000
  C   C266      1.0  0.23265  0.12870  0.25993  1.0000
  H   H203      1.0  0.22781  0.88894  0.31804  1.0000
  H   H204      1.0  0.04285  0.48838  0.47445  1.0000
  C   C267      1.0  0.02056  0.60455  0.47389  1.0000
  H   H205      1.0  0.21699  0.15146  0.42889  1.0000
  C   C268      1.0  0.23636  0.69109  0.40709  1.0000
  C   C269      1.0  0.99452  0.42838  0.44356  1.0000
  C   C270      1.0  0.19007  0.15571  0.40106  1.0000
  H   H206      1.0  0.02241  0.39618  0.24476  1.0000
  C   C271      1.0  0.18121  0.06940  0.26255  1.0000
  C   C272      1.0  0.22493  0.67076  0.40601  1.0000
  H   H207      1.0  0.11567  0.74913  0.34310  1.0000
  C   C273      1.0  0.23530  0.08203  0.33304  1.0000
  H   H208      1.0  0.22373  0.63862  0.41405  1.0000
  C   C274      1.0  0.10620  0.80463  0.32540  1.0000
  C   C275      1.0  0.22744  0.01238  0.34740  1.0000
  H   H209      1.0  0.20087  0.24221  0.36116  1.0000
  H   H210      1.0  0.10080  0.74440  0.46398  1.0000
  C   C276      1.0  0.17168  0.09920  0.27110  1.0000
  P   P8        1.0  0.09397  0.87812  0.30328  1.0000
  S   S46       1.0  0.22987  0.95802  0.35953  1.0000
  C   C277      1.0  0.02017  0.06270  0.32253  1.0000
  H   H211      1.0  0.22099  0.66575  0.48556  1.0000
  H   H212      1.0  0.14486  0.64844  0.47380  1.0000
  H   H213      1.0  0.02769  0.61750  0.44328  1.0000
  H   H214      1.0  0.21683  0.83506  0.44277  1.0000
  C   C278      1.0  0.01316  0.99451  0.33970  1.0000
  H   H215      1.0  0.03149  0.41924  0.42504  1.0000
  H   H216      1.0  0.23370  0.59391  0.48186  1.0000
  H   H217      1.0  0.10021  0.48092  0.48306  1.0000
  S   S47       1.0  0.00543  0.53673  0.35589  1.0000
  C   C279      1.0  0.01519  0.46017  0.43788  1.0000
  H   H218      1.0  0.22381  0.70287  0.31623  1.0000
  C   C280      1.0  0.06886  0.55777  0.47030  1.0000
  H   H219      1.0  0.05418  0.50503  0.24620  1.0000
  C   C281      1.0  0.21457  0.26594  0.33767  1.0000
  C   C282      1.0  0.09975  0.92579  0.31125  1.0000
  H   H220      1.0  0.23010  0.28155  0.31530  1.0000
  H   H221      1.0  0.14405  0.50000  0.48612  1.0000
  H   H222      1.0  0.02473  0.44086  0.47733  1.0000
  H   H223      1.0  0.01850  0.35672  0.42369  1.0000
  C   C283      1.0  0.10344  0.96085  0.29732  1.0000
  H   H224      1.0  0.11189  0.02910  0.32820  1.0000
  C   C284      1.0  0.21786  0.65318  0.33925  1.0000
  H   H225      1.0  0.02952  0.10218  0.33931  1.0000
  H   H226      1.0  0.24041  0.65911  0.29317  1.0000
  C   C285      1.0  0.21094  0.23868  0.35476  1.0000
  H   H227      1.0  0.00301  0.27629  0.26798  1.0000
  C   C286      1.0  0.05205  0.91087  0.28347  1.0000
  C   C287      1.0  0.10875  0.67886  0.47506  1.0000
  C   C288      1.0  0.23315  0.20256  0.35464  1.0000
  C   C289      1.0  0.05791  0.33854  0.27006  1.0000
  C   C290      1.0  0.01447  0.02366  0.32242  1.0000
  C   C291      1.0  0.22811  0.82300  0.33312  1.0000
  P   P9        1.0  0.21548  0.17473  0.38649  1.0000
  H   H228      1.0  0.24151  0.16478  0.40085  1.0000
  C   C292      1.0  0.04052  0.93530  0.40594  1.0000
  C   C293      1.0  0.02387  0.04256  0.35704  1.0000
  C   C294      1.0  0.10471  0.86274  0.28213  1.0000
  C   C295      1.0  0.02506  0.07181  0.33964  1.0000
  H   H229      1.0  0.20736  0.29048  0.33110  1.0000
  H   H230      1.0  0.02086  0.08601  0.30929  1.0000
  C   C296      1.0  0.00447  0.08002  0.40245  1.0000
  H   H231      1.0  0.22932  0.98691  0.30762  1.0000
  H   H232      1.0  0.05048  0.84114  0.29000  1.0000
  C   C297      1.0  0.22025  0.20736  0.36361  1.0000
  H   H233      1.0  0.20199  0.84544  0.41635  1.0000
  C   C298      1.0  0.04275  0.08616  0.37528  1.0000
  C   C299      1.0  0.24147  0.84284  0.30291  1.0000
  H   H234      1.0  0.21052  0.31511  0.41669  1.0000
  C   C300      1.0  0.20843  0.72996  0.44598  1.0000
  H   H235      1.0  0.18279  0.73601  0.46830  1.0000
  H   H236      1.0  0.07441  0.06696  0.35580  1.0000
  C   C301      1.0  0.05401  0.06466  0.36596  1.0000
  C   C302      1.0  0.08272  0.65932  0.48087  1.0000
  C   C303      1.0  0.10872  0.00004  0.32345  1.0000
  H   H237      1.0  0.21597  0.08005  0.38155  1.0000
  P   P10       1.0  0.02801  0.05872  0.37979  1.0000
  C   C304      1.0  0.08559  0.70200  0.47349  1.0000
  C   C305      1.0  0.22743  0.12734  0.39092  1.0000
  H   H238      1.0  0.21178  0.27145  0.38885  1.0000
  C   C306      1.0  0.06578  0.08396  0.36311  1.0000
  C   C307      1.0  0.00483  0.54698  0.46113  1.0000
  H   H239      1.0  0.15057  0.69486  0.44286  1.0000
  H   H240      1.0  0.21250  0.27801  0.45063  1.0000
  H   H241      1.0  0.21448  0.60414  0.36410  1.0000
  H   H242      1.0  0.02751  0.04951  0.42285  1.0000
  Fe  Fe25      1.0  0.99930  0.37189  0.36536  1.0000
  C   C308      1.0  0.03086  0.01756  0.41798  1.0000
  C   C309      1.0  0.21491  0.21235  0.44179  1.0000
  H   H243      1.0  0.21020  0.69726  0.45381  1.0000
  C   C310      1.0  0.03411  0.98179  0.43200  1.0000
  C   C311      1.0  0.01218  0.58103  0.48756  1.0000
  C   C312      1.0  0.10525  0.96505  0.33737  1.0000
  C   C313      1.0  0.02127  0.59892  0.45393  1.0000
  H   H244      1.0  0.10566  0.96710  0.35293  1.0000
  C   C314      1.0  0.06793  0.30357  0.26964  1.0000
  C   C315      1.0  0.00180  0.46383  0.44453  1.0000
  H   H245      1.0  0.03511  0.14373  0.38998  1.0000
  C   C316      1.0  0.04347  0.12706  0.38206  1.0000
  H   H246      1.0  0.12219  0.88075  0.29277  1.0000
  C   C317      1.0  0.01392  0.38620  0.42987  1.0000
  C   C318      1.0  0.22492  0.08510  0.38751  1.0000
  H   H247      1.0  0.07770  0.72734  0.46970  1.0000
  H   H248      1.0  0.22817  0.97616  0.27286  1.0000
  C   C319      1.0  0.19967  0.73661  0.43143  1.0000
  C   C320      1.0  0.21481  0.76515  0.45022  1.0000
  C   C321      1.0  0.02930  0.41986  0.24536  1.0000
  C   C322      1.0  0.15297  0.66822  0.47297  1.0000
  C   C323      1.0  0.06935  0.85751  0.29590  1.0000
  H   H249      1.0  0.19207  0.16524  0.41499  1.0000
  C   C324      1.0  0.21472  0.20790  0.40667  1.0000
  C   C325      1.0  0.21568  0.18715  0.42601  1.0000
  H   H250      1.0  0.05565  0.17877  0.38364  1.0000
  C   C326      1.0  0.12162  0.83781  0.24964  1.0000
  C   C327      1.0  0.23407  0.04854  0.39169  1.0000
  C   C328      1.0  0.01151  0.13738  0.37732  1.0000
  H   H251      1.0  0.20772  0.65727  0.33586  1.0000
  H   H252      1.0  0.11603  0.09175  0.26266  1.0000
  C   C329      1.0  0.11818  0.86747  0.28107  1.0000
  H   H253      1.0  0.23102  0.75542  0.34563  1.0000
  H   H254      1.0  0.23576  0.03114  0.24454  1.0000
  P   P11       1.0  0.08899  0.57001  0.49267  1.0000
  C   C330      1.0  0.16033  0.66677  0.48918  1.0000
  Fe  Fe26      1.0  0.99577  0.47246  0.36008  1.0000
  H   H255      1.0  0.05336  0.55199  0.45218  1.0000
  S   S48       1.0  0.99839  0.42289  0.38652  1.0000
  H   H256      1.0  0.23207  0.01600  0.38909  1.0000
  C   C331      1.0  0.24004  0.67465  0.33304  1.0000
  H   H257      1.0  0.21650  0.16677  0.24604  1.0000
  C   C332      1.0  0.15171  0.51430  0.49197  1.0000
  H   H258      1.0  0.16647  0.46030  0.48640  1.0000
  C   C333      1.0  0.00058  0.38965  0.43640  1.0000
  C   C334      1.0  0.23458  0.61873  0.36013  1.0000
  H   H259      1.0  0.24326  0.10256  0.32961  1.0000
  H   H260      1.0  0.02633  0.62777  0.47867  1.0000
  H   H261      1.0  0.19756  0.78427  0.48132  1.0000
  C   C335      1.0  0.23933  0.13244  0.39825  1.0000
  C   C336      1.0  0.17125  0.69090  0.48728  1.0000
  H   H262      1.0  0.00086  0.26974  0.40459  1.0000
  H   H263      1.0  0.04625  0.23907  0.25010  1.0000
  H   H264      1.0  0.99475  0.36305  0.43525  1.0000
  H   H265      1.0  0.11399  0.61118  0.48552  1.0000
  H   H266      1.0  0.24045  0.17785  0.36071  1.0000
  C   C337      1.0  0.24352  0.76709  0.31858  1.0000
  H   H267      1.0  0.24395  0.67418  0.41587  1.0000
  H   H268      1.0  0.06210  0.56952  0.48211  1.0000
  C   C338      1.0  0.21554  0.75338  0.49315  1.0000
  C   C339      1.0  0.02620  0.45818  0.48960  1.0000
  H   H269      1.0  0.99782  0.53487  0.49197  1.0000
  C   C340      1.0  0.03642  0.48495  0.48798  1.0000
  C   C341      1.0  0.23650  0.36922  0.63570  1.0000
  H   H270      1.0  0.19488  0.74801  0.54404  1.0000
  S   S49       1.0  0.21811  0.58630  0.61802  1.0000
  H   H271      1.0  0.18022  0.54611  0.70141  1.0000
  S   S50       1.0  0.22495  0.68583  0.60267  1.0000
  Fe  Fe27      1.0  0.22122  0.64585  0.63265  1.0000
  S   S51       1.0  0.20668  0.65420  0.66050  1.0000
  Fe  Fe28      1.0  0.22359  0.62385  0.58833  1.0000
  S   S52       1.0  0.21248  0.63254  0.55994  1.0000
  C   C342      1.0  0.01557  0.47280  0.56700  1.0000
  C   C343      1.0  0.99885  0.42814  0.54773  1.0000
  Fe  Fe29      1.0  0.01798  0.63833  0.58611  1.0000
  S   S53       1.0  0.01551  0.58039  0.60952  1.0000
  S   S54       1.0  0.02989  0.62122  0.55714  1.0000
  H   H272      1.0  0.00956  0.43499  0.50752  1.0000
  C   C344      1.0  0.00187  0.56575  0.54617  1.0000
  Fe  Fe30      1.0  0.01682  0.62551  0.63255  1.0000
  S   S55       1.0  0.02460  0.59366  0.66189  1.0000
  C   C345      1.0  0.22584  0.56262  0.69371  1.0000
  S   S56       1.0  0.02127  0.68194  0.60908  1.0000
  C   C346      1.0  0.13138  0.68107  0.51253  1.0000
  H   H273      1.0  0.04044  0.77245  0.71259  1.0000
  C   C347      1.0  0.03759  0.72368  0.51437  1.0000
  C   C348      1.0  0.03321  0.69977  0.53238  1.0000
  C   C349      1.0  0.03431  0.65360  0.53437  1.0000
  C   C350      1.0  0.03966  0.63191  0.51796  1.0000
  H   H274      1.0  0.19650  0.62608  0.49478  1.0000
  H   H275      1.0  0.03680  0.75936  0.51313  1.0000
  H   H276      1.0  0.02918  0.71711  0.54480  1.0000
  H   H277      1.0  0.04060  0.59633  0.51929  1.0000
  H   H278      1.0  0.21839  0.72025  0.54200  1.0000
  C   C351      1.0  0.04915  0.61872  0.71144  1.0000
  C   C352      1.0  0.05011  0.64460  0.69295  1.0000
  C   C353      1.0  0.04233  0.63878  0.67786  1.0000
  C   C354      1.0  0.03361  0.60639  0.68096  1.0000
  C   C355      1.0  0.03249  0.58107  0.69957  1.0000
  C   C356      1.0  0.04008  0.58746  0.71477  1.0000
  H   H279      1.0  0.05712  0.66874  0.69012  1.0000
  H   H280      1.0  0.04341  0.65828  0.66363  1.0000
  H   H281      1.0  0.02590  0.55560  0.70210  1.0000
  H   H282      1.0  0.03929  0.56699  0.72878  1.0000
  C   C357      1.0  0.10902  0.62034  0.71564  1.0000
  C   C358      1.0  0.99483  0.71360  0.67984  1.0000
  C   C359      1.0  0.21757  0.54682  0.51716  1.0000
  C   C360      1.0  0.21879  0.56618  0.53451  1.0000
  C   C361      1.0  0.21180  0.60697  0.53783  1.0000
  C   C362      1.0  0.20378  0.62820  0.52320  1.0000
  C   C363      1.0  0.01123  0.70509  0.70326  1.0000
  H   H283      1.0  0.22293  0.51505  0.51503  1.0000
  H   H284      1.0  0.22500  0.54913  0.54544  1.0000
  H   H285      1.0  0.19826  0.65958  0.52544  1.0000
  C   C364      1.0  0.16397  0.58302  0.71659  1.0000
  C   C365      1.0  0.20170  0.72448  0.71756  1.0000
  C   C366      1.0  0.19593  0.68574  0.71679  1.0000
  C   C367      1.0  0.19772  0.66460  0.69937  1.0000
  C   C368      1.0  0.20561  0.68085  0.68257  1.0000
  C   C369      1.0  0.21178  0.71867  0.68360  1.0000
  C   C370      1.0  0.20968  0.74055  0.70083  1.0000
  H   H286      1.0  0.18996  0.67239  0.72952  1.0000
  H   H287      1.0  0.19300  0.63523  0.69897  1.0000
  H   H288      1.0  0.21779  0.73203  0.67088  1.0000
  H   H289      1.0  0.21419  0.77049  0.70113  1.0000
  H   H290      1.0  0.01462  0.69317  0.71756  1.0000
  H   H291      1.0  0.21649  0.37015  0.62921  1.0000
  H   H292      1.0  0.99853  0.63646  0.54497  1.0000
  H   H293      1.0  0.07810  0.63268  0.52132  1.0000
  C   C371      1.0  0.15460  0.62022  0.71537  1.0000
  H   H294      1.0  0.03076  0.45891  0.61724  1.0000
  H   H295      1.0  0.16346  0.66302  0.66807  1.0000
  H   H296      1.0  0.02100  0.82617  0.71845  1.0000
  H   H297      1.0  0.99718  0.55868  0.66912  1.0000
  H   H298      1.0  0.14759  0.67845  0.69654  1.0000
  H   H299      1.0  0.02997  0.72661  0.69173  1.0000
  C   C372      1.0  0.12693  0.62825  0.73488  1.0000
  H   H300      1.0  0.10755  0.57516  0.52106  1.0000
  H   H301      1.0  0.01165  0.58564  0.50304  1.0000
  H   H302      1.0  0.16697  0.68215  0.73452  1.0000
  H   H303      1.0  0.03084  0.52374  0.53272  1.0000
  C   C373      1.0  0.14929  0.78159  0.73841  1.0000
  H   H304      1.0  0.21980  0.61251  0.71302  1.0000
  Fe  Fe31      1.0  0.99924  0.69839  0.61066  1.0000
  C   C374      1.0  0.03430  0.45173  0.58618  1.0000
  H   H305      1.0  0.00308  0.31728  0.54435  1.0000
  H   H306      1.0  0.12586  0.52321  0.53360  1.0000
  C   C375      1.0  0.23426  0.56275  0.72550  1.0000
  H   H307      1.0  0.18448  0.49631  0.49681  1.0000
  C   C376      1.0  0.11285  0.66143  0.53542  1.0000
  C   C377      1.0  0.12053  0.62426  0.54348  1.0000
  C   C378      1.0  0.13357  0.61506  0.53587  1.0000
  C   C379      1.0  0.13903  0.64306  0.52016  1.0000
  H   H308      1.0  0.24149  0.64986  0.71334  1.0000
  P   P12       1.0  0.15612  0.63175  0.51158  1.0000
  C   C380      1.0  0.03352  0.76640  0.72541  1.0000
  C   C381      1.0  0.16502  0.64188  0.53161  1.0000
  C   C382      1.0  0.16469  0.68526  0.53631  1.0000
  C   C383      1.0  0.17134  0.69396  0.55190  1.0000
  C   C384      1.0  0.17829  0.65939  0.56300  1.0000
  C   C385      1.0  0.17832  0.61603  0.55884  1.0000
  C   C386      1.0  0.17156  0.60713  0.54341  1.0000
  C   C387      1.0  0.22726  0.30593  0.62724  1.0000
  C   C388      1.0  0.03812  0.50809  0.50364  1.0000
  C   C389      1.0  0.02880  0.45631  0.56813  1.0000
  H   H309      1.0  0.23205  0.77494  0.73574  1.0000
  C   C390      1.0  0.14576  0.69256  0.73773  1.0000
  C   C391      1.0  0.15923  0.57631  0.50477  1.0000
  C   C392      1.0  0.11009  0.54400  0.51506  1.0000
  S   S57       1.0  0.06003  0.62505  0.72930  1.0000
  H   H310      1.0  0.07397  0.49913  0.51124  1.0000
  H   H311      1.0  0.05853  0.49177  0.54133  1.0000
  C   C393      1.0  0.17452  0.51250  0.49770  1.0000
  C   C394      1.0  0.19472  0.76754  0.51268  1.0000
  H   H312      1.0  0.10273  0.66857  0.54128  1.0000
  H   H313      1.0  0.11639  0.60271  0.55571  1.0000
  H   H314      1.0  0.13948  0.58645  0.54239  1.0000
  H   H315      1.0  0.13938  0.57337  0.49763  1.0000
  H   H316      1.0  0.15932  0.71237  0.52785  1.0000
  H   H317      1.0  0.17118  0.72748  0.55535  1.0000
  H   H318      1.0  0.18379  0.66607  0.57474  1.0000
  H   H319      1.0  0.23548  0.40381  0.63811  1.0000
  H   H320      1.0  0.17155  0.57315  0.54083  1.0000
  C   C395      1.0  0.20058  0.74987  0.52983  1.0000
  H   H321      1.0  0.01533  0.38295  0.53799  1.0000
  H   H322      1.0  0.11864  0.43022  0.49530  1.0000
  H   H323      1.0  0.17754  0.68866  0.49911  1.0000
  C   C396      1.0  0.12350  0.47369  0.51508  1.0000
  H   H324      1.0  0.23360  0.50842  0.67734  1.0000
  C   C397      1.0  0.21389  0.73419  0.52870  1.0000
  C   C398      1.0  0.15843  0.70602  0.73600  1.0000
  C   C399      1.0  0.24156  0.50282  0.70554  1.0000
  C   C400      1.0  0.16019  0.75031  0.73636  1.0000
  C   C401      1.0  0.20944  0.56780  0.50266  1.0000
  C   C402      1.0  0.12037  0.51455  0.52230  1.0000
  H   H325      1.0  0.13147  0.45089  0.52070  1.0000
  C   C403      1.0  0.23269  0.73921  0.73807  1.0000
  C   C404      1.0  0.15442  0.64877  0.69766  1.0000
  C   C405      1.0  0.99852  0.69961  0.69895  1.0000
  C   C406      1.0  0.02250  0.79667  0.72878  1.0000
  C   C407      1.0  0.03563  0.72813  0.73851  1.0000
  C   C408      1.0  0.11829  0.68987  0.52001  1.0000
  H   H326      1.0  0.22985  0.81683  0.49856  1.0000
  C   C409      1.0  0.01618  0.73867  0.66979  1.0000
  C   C410      1.0  0.11632  0.46217  0.50070  1.0000
  H   H327      1.0  0.03484  0.44666  0.55521  1.0000
  C   C411      1.0  0.00779  0.48268  0.58425  1.0000
  C   C412      1.0  0.05973  0.55752  0.54818  1.0000
  H   H328      1.0  0.18441  0.77988  0.51358  1.0000
  H   H329      1.0  0.04456  0.43967  0.58702  1.0000
  C   C413      1.0  0.01952  0.47694  0.52283  1.0000
  S   S58       1.0  0.99499  0.64503  0.63512  1.0000
  C   C414      1.0  0.00511  0.38663  0.54372  1.0000
  C   C415      1.0  0.02652  0.46226  0.60325  1.0000
  H   H330      1.0  0.10540  0.61807  0.70157  1.0000
  C   C416      1.0  0.23769  0.66841  0.72543  1.0000
  H   H331      1.0  0.00240  0.61833  0.68665  1.0000
  H   H332      1.0  0.00714  0.48519  0.61552  1.0000
  C   C417      1.0  0.02000  0.72438  0.68866  1.0000
  S   S59       1.0  0.99618  0.65786  0.58658  1.0000
  C   C418      1.0  0.17285  0.57435  0.70031  1.0000
  H   H333      1.0  0.24163  0.69542  0.56080  1.0000
  Fe  Fe32      1.0  0.23974  0.56647  0.61995  1.0000
  P   P13       1.0  0.00790  0.47568  0.54442  1.0000
  C   C419      1.0  0.06526  0.59711  0.54245  1.0000
  H   H334      1.0  0.06253  0.62464  0.55105  1.0000
  H   H335      1.0  0.99894  0.79389  0.71304  1.0000
  H   H336      1.0  0.02308  0.75271  0.65837  1.0000
  H   H337      1.0  0.17981  0.59720  0.67042  1.0000
  H   H338      1.0  0.18386  0.58940  0.56738  1.0000
  S   S60       1.0  0.24268  0.62436  0.63531  1.0000
  C   C420      1.0  0.14912  0.55611  0.49847  1.0000
  H   H339      1.0  0.24031  0.24640  0.62588  1.0000
  C   C421      1.0  0.22133  0.73580  0.51045  1.0000
  H   H340      1.0  0.12497  0.71475  0.74127  1.0000
  H   H341      1.0  0.11237  0.71902  0.51394  1.0000
  H   H342      1.0  0.23164  0.72379  0.50981  1.0000
  C   C422      1.0  0.22602  0.58212  0.71102  1.0000
  H   H343      1.0  0.21964  0.57821  0.68241  1.0000
  H   H344      1.0  0.12878  0.62660  0.70321  1.0000
  C   C423      1.0  0.16338  0.64019  0.68149  1.0000
  C   C424      1.0  0.04304  0.70197  0.49802  1.0000
  H   H345      1.0  0.17003  0.76030  0.73527  1.0000
  C   C425      1.0  0.07700  0.56666  0.51380  1.0000
  H   H346      1.0  0.04579  0.52976  0.50220  1.0000
  C   C426      1.0  0.00474  0.60955  0.73846  1.0000
  H   H347      1.0  0.05285  0.55452  0.56126  1.0000
  C   C427      1.0  0.12227  0.62524  0.71665  1.0000
  C   C428      1.0  0.00358  0.73344  0.66540  1.0000
  C   C429      1.0  0.02966  0.50438  0.52096  1.0000
  C   C430      1.0  0.99772  0.52743  0.54079  1.0000
  C   C431      1.0  0.07151  0.52682  0.51976  1.0000
  C   C432      1.0  0.17259  0.60299  0.68279  1.0000
  H   H348      1.0  0.99748  0.49444  0.58382  1.0000
  C   C433      1.0  0.07393  0.60171  0.52537  1.0000
  C   C434      1.0  0.22583  0.35029  0.63063  1.0000
  C   C435      1.0  0.06285  0.52238  0.53685  1.0000
  C   C436      1.0  0.23368  0.52318  0.69089  1.0000
  S   S61       1.0  0.19905  0.75470  0.73865  1.0000
  H   H349      1.0  0.00653  0.59153  0.72569  1.0000
  C   C437      1.0  0.20268  0.60907  0.50576  1.0000
  H   H350      1.0  0.21899  0.29135  0.62324  1.0000
  H   H351      1.0  0.01059  0.56399  0.55389  1.0000
  H   H352      1.0  0.16477  0.56123  0.73014  1.0000
  H   H353      1.0  0.15069  0.81574  0.73913  1.0000
  C   C438      1.0  0.99501  0.60699  0.54115  1.0000
  H   H354      1.0  0.24063  0.73097  0.70834  1.0000
  H   H355      1.0  0.00078  0.74356  0.65057  1.0000
  C   C439      1.0  0.17202  0.55470  0.50374  1.0000
  C   C440      1.0  0.10037  0.61836  0.73278  1.0000
  P   P14       1.0  0.14391  0.63514  0.73674  1.0000
  C   C441      1.0  0.99606  0.64844  0.73825  1.0000
  C   C442      1.0  0.01324  0.47714  0.60230  1.0000
  C   C443      1.0  0.10296  0.53305  0.50039  1.0000
  H   H356      1.0  0.09009  0.61464  0.73198  1.0000
  C   C444      1.0  0.01770  0.45453  0.50686  1.0000
  C   C445      1.0  0.23939  0.28048  0.62880  1.0000
  C   C446      1.0  0.23744  0.71440  0.72262  1.0000
  H   H357      1.0  0.04413  0.70456  0.73583  1.0000
  C   C447      1.0  0.99827  0.34927  0.54752  1.0000
  C   C448      1.0  0.13484  0.72417  0.73968  1.0000
  C   C449      1.0  0.24171  0.52214  0.72293  1.0000
  H   H358      1.0  0.18014  0.57061  0.50723  1.0000
  H   H359      1.0  0.23984  0.63792  0.53924  1.0000
  C   C450      1.0  0.04405  0.65581  0.49997  1.0000
  H   H360      1.0  0.13546  0.70425  0.50097  1.0000
  C   C451      1.0  0.13663  0.76857  0.73996  1.0000
  H   H361      1.0  0.12822  0.79270  0.74199  1.0000
  C   C452      1.0  0.23297  0.64702  0.74366  1.0000
  H   H362      1.0  0.24305  0.87879  0.49616  1.0000
  C   C453      1.0  0.20219  0.76964  0.49438  1.0000
  Fe  Fe33      1.0  0.16132  0.73933  0.79390  1.0000
  S   S62       1.0  0.17276  0.79617  0.78106  1.0000
  S   S63       1.0  0.13933  0.74776  0.78938  1.0000
  Fe  Fe34      1.0  0.18594  0.68727  0.80959  1.0000
  S   S64       1.0  0.19894  0.74087  0.79797  1.0000
  S   S65       1.0  0.19082  0.61832  0.82557  1.0000
  Fe  Fe35      1.0  0.18219  0.78835  0.80988  1.0000
  S   S66       1.0  0.18278  0.85404  0.82360  1.0000
  Fe  Fe36      1.0  0.18851  0.74509  0.77013  1.0000
  S   S67       1.0  0.16979  0.73391  0.82309  1.0000
  S   S68       1.0  0.17654  0.68926  0.78123  1.0000
  Fe  Fe37      1.0  0.18830  0.02309  0.91043  1.0000
  S   S69       1.0  0.17562  0.08121  0.89710  1.0000
  S   S70       1.0  0.19221  0.95524  0.89773  1.0000
  Fe  Fe38      1.0  0.19227  0.07493  0.94640  1.0000
  S   S71       1.0  0.17929  0.13518  0.93488  1.0000
  H   H363      1.0  0.00114  0.27791  0.81178  1.0000
  Fe  Fe39      1.0  0.16587  0.08719  0.92770  1.0000
  S   S72       1.0  0.14369  0.08315  0.93304  1.0000
  Fe  Fe40      1.0  0.19015  0.12401  0.90530  1.0000
  S   S73       1.0  0.19776  0.17730  0.88204  1.0000
  S   S74       1.0  0.17814  0.02730  0.94115  1.0000
  S   S75       1.0  0.20361  0.06555  0.91676  1.0000
  Fe  Fe41      1.0  0.07211  0.21416  0.92784  1.0000
  S   S76       1.0  0.05684  0.27048  0.93472  1.0000
  S   S77       1.0  0.09310  0.22453  0.93263  1.0000
  Fe  Fe42      1.0  0.05178  0.16384  0.91355  1.0000
  S   S78       1.0  0.03547  0.21726  0.91872  1.0000
  S   S79       1.0  0.04881  0.09578  0.90576  1.0000
  Fe  Fe43      1.0  0.04982  0.26560  0.90521  1.0000
  S   S80       1.0  0.04298  0.33247  0.88802  1.0000
  Fe  Fe44      1.0  0.04376  0.21840  0.94768  1.0000
  S   S81       1.0  0.02818  0.22232  0.97387  1.0000
  S   S82       1.0  0.06570  0.21158  0.89763  1.0000
  S   S83       1.0  0.05950  0.16258  0.94319  1.0000
  H   H364      1.0  0.00152  0.81905  0.90618  1.0000
  C   C454      1.0  0.08096  0.86026  0.79190  1.0000
  Fe  Fe45      1.0  0.07561  0.60836  0.79787  1.0000
  S   S84       1.0  0.05969  0.58267  0.82016  1.0000
  S   S85       1.0  0.09521  0.61473  0.80976  1.0000
  Fe  Fe46      1.0  0.05964  0.60213  0.76257  1.0000
  S   S86       1.0  0.04317  0.57406  0.78241  1.0000
  H   H365      1.0  0.15040  0.49599  0.78113  1.0000
  Fe  Fe47      1.0  0.04558  0.62689  0.80143  1.0000
  S   S87       1.0  0.02647  0.66793  0.81017  1.0000
  Fe  Fe48      1.0  0.05853  0.53179  0.79971  1.0000
  S   S88       1.0  0.05982  0.45649  0.80890  1.0000
  S   S89       1.0  0.06150  0.65677  0.78097  1.0000
  S   S90       1.0  0.07504  0.55574  0.77804  1.0000
  C   C455      1.0  0.02380  0.78877  0.84422  1.0000
  C   C456      1.0  0.01308  0.77999  0.83497  1.0000
  C   C457      1.0  0.01402  0.74263  0.82472  1.0000
  C   C458      1.0  0.02573  0.71418  0.82336  1.0000
  C   C459      1.0  0.03643  0.72286  0.83264  1.0000
  C   C460      1.0  0.03542  0.75982  0.84317  1.0000
  H   H366      1.0  0.00805  0.32600  0.84085  1.0000
  H   H367      1.0  0.00569  0.73580  0.81771  1.0000
  H   H368      1.0  0.04543  0.70088  0.83183  1.0000
  C   C461      1.0  0.08439  0.92410  0.76788  1.0000
  C   C462      1.0  0.04787  0.36589  0.86578  1.0000
  C   C463      1.0  0.05695  0.34998  0.85100  1.0000
  C   C464      1.0  0.06058  0.37830  0.83387  1.0000
  C   C465      1.0  0.05525  0.42289  0.83125  1.0000
  C   C466      1.0  0.04617  0.43870  0.84601  1.0000
  C   C467      1.0  0.04241  0.41025  0.86300  1.0000
  H   H369      1.0  0.06112  0.31586  0.85267  1.0000
  H   H370      1.0  0.06752  0.36547  0.82249  1.0000
  H   H371      1.0  0.04185  0.47264  0.84418  1.0000
  H   H372      1.0  0.03524  0.42281  0.87414  1.0000
  C   C468      1.0  0.03502  0.08315  0.89487  1.0000
  C   C469      1.0  0.02433  0.11458  0.89112  1.0000
  C   C470      1.0  0.01392  0.10371  0.88153  1.0000
  C   C471      1.0  0.01404  0.06151  0.87557  1.0000
  C   C472      1.0  0.02449  0.02957  0.87997  1.0000
  C   C473      1.0  0.03492  0.04040  0.88956  1.0000
  H   H373      1.0  0.02417  0.14743  0.89532  1.0000
  H   H374      1.0  0.21843  0.26344  0.92389  1.0000
  H   H375      1.0  0.02471  0.99696  0.87547  1.0000
  H   H376      1.0  0.04310  0.01579  0.89252  1.0000
  C   C474      1.0  0.12988  0.12342  0.93172  1.0000
  C   C475      1.0  0.11734  0.10934  0.93200  1.0000
  C   C476      1.0  0.10600  0.13990  0.93190  1.0000
  C   C477      1.0  0.10708  0.18488  0.93180  1.0000
  C   C478      1.0  0.11962  0.19899  0.93154  1.0000
  C   C479      1.0  0.13096  0.16843  0.93138  1.0000
  H   H377      1.0  0.11640  0.07450  0.93246  1.0000
  H   H378      1.0  0.09643  0.12856  0.93224  1.0000
  H   H379      1.0  0.12055  0.23368  0.93157  1.0000
  H   H380      1.0  0.14053  0.17941  0.93134  1.0000
  C   C480      1.0  0.18563  0.88152  0.84436  1.0000
  C   C481      1.0  0.19065  0.85892  0.86148  1.0000
  C   C482      1.0  0.19259  0.88198  0.87744  1.0000
  C   C483      1.0  0.18959  0.92820  0.87676  1.0000
  C   C484      1.0  0.18462  0.95092  0.85959  1.0000
  C   C485      1.0  0.18275  0.92784  0.84359  1.0000
  H   H381      1.0  0.19321  0.82363  0.86237  1.0000
  H   H382      1.0  0.19649  0.86373  0.89046  1.0000
  H   H383      1.0  0.18229  0.98635  0.85860  1.0000
  H   H384      1.0  0.17905  0.94612  0.83044  1.0000
  C   C486      1.0  0.12746  0.70920  0.79437  1.0000
  C   C487      1.0  0.12954  0.66986  0.80684  1.0000
  C   C488      1.0  0.11962  0.64119  0.81109  1.0000
  C   C489      1.0  0.10750  0.65136  0.80293  1.0000
  C   C490      1.0  0.10542  0.69062  0.79035  1.0000
  C   C491      1.0  0.11535  0.71937  0.78617  1.0000
  H   H385      1.0  0.13871  0.66191  0.81349  1.0000
  H   H386      1.0  0.12131  0.61109  0.82092  1.0000
  H   H387      1.0  0.09613  0.69908  0.78407  1.0000
  H   H388      1.0  0.11364  0.74978  0.77655  1.0000
  C   C492      1.0  0.22080  0.52857  0.84376  1.0000
  C   C493      1.0  0.20830  0.54974  0.83973  1.0000
  C   C494      1.0  0.20682  0.59299  0.83000  1.0000
  H   H389      1.0  0.22178  0.49545  0.85138  1.0000
  H   H390      1.0  0.19970  0.53264  0.84432  1.0000
  C   C495      1.0  0.22108  0.27746  0.87381  1.0000
  C   C496      1.0  0.21311  0.24504  0.87081  1.0000
  C   C497      1.0  0.20752  0.21796  0.88680  1.0000
  C   C498      1.0  0.01077  0.92963  0.96069  1.0000
  C   C499      1.0  0.09985  0.55453  0.90889  1.0000
  C   C500      1.0  0.10179  0.53248  0.92763  1.0000
  C   C501      1.0  0.09910  0.48860  0.93222  1.0000
  C   C502      1.0  0.09468  0.46650  0.91798  1.0000
  C   C503      1.0  0.09326  0.48784  0.89885  1.0000
  C   C504      1.0  0.09542  0.53252  0.89464  1.0000
  P   P15       1.0  0.08673  0.46059  0.88081  1.0000
  C   C505      1.0  0.08987  0.40122  0.88522  1.0000
  C   C506      1.0  0.06936  0.47815  0.88298  1.0000
  C   C507      1.0  0.06414  0.51476  0.87073  1.0000
  C   C508      1.0  0.05072  0.52909  0.87291  1.0000
  C   C509      1.0  0.04247  0.50732  0.88745  1.0000
  C   C510      1.0  0.04764  0.47139  0.89995  1.0000
  C   C511      1.0  0.06104  0.45704  0.89783  1.0000
  C   C512      1.0  0.10171  0.38112  0.89224  1.0000
  C   C513      1.0  0.10397  0.33503  0.89569  1.0000
  C   C514      1.0  0.09458  0.30885  0.89175  1.0000
  C   C515      1.0  0.08291  0.32863  0.88438  1.0000
  C   C516      1.0  0.08063  0.37459  0.88092  1.0000
  C   C517      1.0  0.09390  0.47541  0.85605  1.0000
  C   C518      1.0  0.10598  0.49333  0.85255  1.0000
  C   C519      1.0  0.11104  0.50640  0.83323  1.0000
  C   C520      1.0  0.10424  0.50067  0.81732  1.0000
  C   C521      1.0  0.09252  0.48114  0.82068  1.0000
  C   C522      1.0  0.08739  0.46836  0.83995  1.0000
  H   H391      1.0  0.10164  0.58886  0.90546  1.0000
  H   H392      1.0  0.10515  0.54965  0.93870  1.0000
  H   H393      1.0  0.10026  0.47188  0.94691  1.0000
  H   H394      1.0  0.09219  0.43304  0.92205  1.0000
  H   H395      1.0  0.09357  0.55050  0.88038  1.0000
  H   H396      1.0  0.07038  0.53229  0.85946  1.0000
  H   H397      1.0  0.04670  0.55686  0.86318  1.0000
  H   H398      1.0  0.03205  0.51803  0.88892  1.0000
  H   H399      1.0  0.04122  0.45411  0.91107  1.0000
  H   H400      1.0  0.06487  0.42916  0.90767  1.0000
  H   H401      1.0  0.10918  0.40093  0.89504  1.0000
  H   H402      1.0  0.11299  0.31936  0.90141  1.0000
  H   H403      1.0  0.09630  0.27317  0.89447  1.0000
  H   H404      1.0  0.07555  0.30836  0.88151  1.0000
  H   H405      1.0  0.07161  0.38931  0.87498  1.0000
  H   H406      1.0  0.11145  0.49778  0.86463  1.0000
  H   H407      1.0  0.12006  0.52199  0.83053  1.0000
  H   H408      1.0  0.10791  0.51218  0.80239  1.0000
  H   H409      1.0  0.08722  0.47675  0.80835  1.0000
  H   H410      1.0  0.07819  0.45380  0.84225  1.0000
  C   C523      1.0  0.23477  0.10568  0.91669  1.0000
  S   S91       1.0  0.00141  0.05108  0.86162  1.0000
  C   C524      1.0  0.09452  0.78662  0.82651  1.0000
  C   C525      1.0  0.10196  0.74845  0.83417  1.0000
  C   C526      1.0  0.09606  0.70956  0.83989  1.0000
  C   C527      1.0  0.08270  0.70890  0.83812  1.0000
  H   H411      1.0  0.21704  0.64805  0.81670  1.0000
  H   H412      1.0  0.20530  0.20415  0.91842  1.0000
  H   H413      1.0  0.09930  0.81631  0.82192  1.0000
  H   H414      1.0  0.11239  0.74861  0.83513  1.0000
  H   H415      1.0  0.10191  0.67954  0.84516  1.0000
  H   H416      1.0  0.07823  0.67839  0.84214  1.0000
  C   C528      1.0  0.00099  0.26075  0.90430  1.0000
  H   H417      1.0  0.01945  0.97985  0.99185  1.0000
  H   H418      1.0  0.99584  0.20078  0.86813  1.0000
  H   H419      1.0  0.23800  0.45458  0.93783  1.0000
  H   H420      1.0  0.15908  0.53099  0.80712  1.0000
  P   P16       1.0  0.01826  0.23252  0.84169  1.0000
  C   C529      1.0  0.01142  0.24330  0.86622  1.0000
  C   C530      1.0  0.03202  0.19024  0.84330  1.0000
  C   C531      1.0  0.04047  0.18814  0.85822  1.0000
  C   C532      1.0  0.05112  0.15548  0.85937  1.0000
  C   C533      1.0  0.05337  0.12457  0.84581  1.0000
  C   C534      1.0  0.04519  0.12704  0.83065  1.0000
  C   C535      1.0  0.03466  0.16009  0.82921  1.0000
  C   C536      1.0  0.01704  0.27237  0.87627  1.0000
  C   C537      1.0  0.01176  0.28140  0.89511  1.0000
  H   H421      1.0  0.05906  0.30631  0.98466  1.0000
  S   S92       1.0  0.00202  0.94009  0.83452  1.0000
  H   H422      1.0  0.23907  0.61121  0.82407  1.0000
  C   C538      1.0  0.02422  0.28257  0.82886  1.0000
  C   C539      1.0  0.01721  0.32384  0.83155  1.0000
  H   H423      1.0  0.00383  0.71095  0.87154  1.0000
  C   C540      1.0  0.03409  0.36086  0.81087  1.0000
  C   C541      1.0  0.04102  0.31998  0.80785  1.0000
  C   C542      1.0  0.03612  0.28093  0.81678  1.0000
  C   C543      1.0  0.12732  0.12669  0.98155  1.0000
  H   H424      1.0  0.21206  0.49314  0.80223  1.0000
  H   H425      1.0  0.03885  0.21130  0.86909  1.0000
  H   H426      1.0  0.05748  0.15335  0.87112  1.0000
  H   H427      1.0  0.06142  0.09863  0.84718  1.0000
  H   H428      1.0  0.04696  0.10315  0.82008  1.0000
  H   H429      1.0  0.02859  0.16180  0.81715  1.0000
  H   H430      1.0  0.02556  0.28806  0.86958  1.0000
  H   H431      1.0  0.01624  0.30383  0.90272  1.0000
  C   C544      1.0  0.19417  0.34784  0.86729  1.0000
  H   H432      1.0  0.01826  0.56435  0.75511  1.0000
  H   H433      1.0  0.22436  0.73747  0.76822  1.0000
  C   C545      1.0  0.04526  0.77858  0.78698  1.0000
  C   C546      1.0  0.02219  0.36279  0.82269  1.0000
  H   H434      1.0  0.03808  0.39111  0.80432  1.0000
  H   H435      1.0  0.05033  0.31873  0.79889  1.0000
  H   H436      1.0  0.04176  0.24972  0.81445  1.0000
  C   C547      1.0  0.17329  0.76683  0.87301  1.0000
  C   C548      1.0  0.17505  0.76192  0.89310  1.0000
  C   C549      1.0  0.16684  0.78760  0.90576  1.0000
  C   C550      1.0  0.15688  0.81816  0.89833  1.0000
  C   C551      1.0  0.15516  0.82369  0.87808  1.0000
  C   C552      1.0  0.16344  0.79773  0.86550  1.0000
  P   P17       1.0  0.14224  0.86329  0.86868  1.0000
  C   C553      1.0  0.12667  0.84041  0.87293  1.0000
  C   C554      1.0  0.14193  0.91251  0.88075  1.0000
  C   C555      1.0  0.13004  0.93709  0.88637  1.0000
  C   C556      1.0  0.13008  0.97490  0.89583  1.0000
  C   C557      1.0  0.14194  0.98836  0.89975  1.0000
  C   C558      1.0  0.15378  0.96411  0.89420  1.0000
  C   C559      1.0  0.15378  0.92640  0.88473  1.0000
  C   C560      1.0  0.11610  0.86019  0.86243  1.0000
  C   C561      1.0  0.10414  0.84187  0.86503  1.0000
  C   C562      1.0  0.10268  0.80351  0.87800  1.0000
  C   C563      1.0  0.11315  0.78359  0.88850  1.0000
  C   C564      1.0  0.12511  0.80192  0.88600  1.0000
  C   C565      1.0  0.14550  0.87657  0.84232  1.0000
  C   C566      1.0  0.14268  0.84734  0.82951  1.0000
  C   C567      1.0  0.14545  0.85669  0.80913  1.0000
  C   C568      1.0  0.15107  0.89514  0.80137  1.0000
  C   C569      1.0  0.15376  0.92460  0.81398  1.0000
  C   C570      1.0  0.15099  0.91544  0.83439  1.0000
  H   H437      1.0  0.17984  0.74765  0.86309  1.0000
  H   H438      1.0  0.18290  0.73870  0.89876  1.0000
  H   H439      1.0  0.16834  0.78428  0.92129  1.0000
  H   H440      1.0  0.15066  0.83799  0.90832  1.0000
  H   H441      1.0  0.16261  0.80205  0.84980  1.0000
  H   H442      1.0  0.12076  0.92718  0.88359  1.0000
  H   H443      1.0  0.12092  0.99380  0.90026  1.0000
  H   H444      1.0  0.14199  0.01746  0.90719  1.0000
  H   H445      1.0  0.16300  0.97439  0.89732  1.0000
  H   H446      1.0  0.16307  0.90798  0.88054  1.0000
  H   H447      1.0  0.11715  0.88964  0.85212  1.0000
  H   H448      1.0  0.09603  0.85721  0.85691  1.0000
  H   H449      1.0  0.09345  0.78912  0.87985  1.0000
  H   H450      1.0  0.11204  0.75374  0.89851  1.0000
  H   H451      1.0  0.13311  0.78566  0.89413  1.0000
  H   H452      1.0  0.13871  0.81667  0.83526  1.0000
  H   H453      1.0  0.14361  0.83344  0.79938  1.0000
  H   H454      1.0  0.15368  0.90147  0.78564  1.0000
  H   H455      1.0  0.15850  0.95369  0.80800  1.0000
  H   H456      1.0  0.15354  0.93809  0.84385  1.0000
  P   P18       1.0  0.15528  0.28560  0.88440  1.0000
  C   C571      1.0  0.15609  0.23082  0.87707  1.0000
  C   C572      1.0  0.15143  0.27982  0.91083  1.0000
  C   C573      1.0  0.14126  0.30720  0.91981  1.0000
  C   C574      1.0  0.13823  0.30112  0.94027  1.0000
  C   C575      1.0  0.14536  0.26793  0.95188  1.0000
  C   C576      1.0  0.15554  0.24074  0.94305  1.0000
  C   C577      1.0  0.15851  0.24644  0.92260  1.0000
  C   C578      1.0  0.14606  0.20413  0.88429  1.0000
  C   C579      1.0  0.14650  0.16155  0.87890  1.0000
  C   C580      1.0  0.15695  0.14533  0.86621  1.0000
  C   C581      1.0  0.16711  0.17130  0.85931  1.0000
  C   C582      1.0  0.16672  0.21386  0.86474  1.0000
  C   C583      1.0  0.14276  0.32247  0.87230  1.0000
  C   C584      1.0  0.13314  0.30609  0.86298  1.0000
  C   C585      1.0  0.12378  0.33516  0.85322  1.0000
  C   C586      1.0  0.12394  0.38073  0.85261  1.0000
  C   C587      1.0  0.13342  0.39735  0.86191  1.0000
  C   C588      1.0  0.14279  0.36838  0.87172  1.0000
  H   H457      1.0  0.13557  0.33292  0.91113  1.0000
  H   H458      1.0  0.13025  0.32187  0.94714  1.0000
  H   H459      1.0  0.14295  0.26303  0.96770  1.0000
  H   H460      1.0  0.16098  0.21460  0.95199  1.0000
  H   H461      1.0  0.16631  0.22464  0.91590  1.0000
  H   H462      1.0  0.13790  0.21617  0.89416  1.0000
  H   H463      1.0  0.13889  0.14076  0.88494  1.0000
  H   H464      1.0  0.15743  0.11198  0.86235  1.0000
  H   H465      1.0  0.17555  0.15787  0.85029  1.0000
  H   H466      1.0  0.17493  0.23262  0.85971  1.0000
  H   H467      1.0  0.13283  0.27103  0.86303  1.0000
  H   H468      1.0  0.03366  0.92777  0.75973  1.0000
  H   H469      1.0  0.11668  0.40304  0.84496  1.0000
  H   H470      1.0  0.13357  0.43270  0.86139  1.0000
  H   H471      1.0  0.15014  0.38175  0.87876  1.0000
  H   H472      1.0  0.00166  0.00888  0.91432  1.0000
  C   C589      1.0  0.08115  0.78594  0.82420  1.0000
  C   C590      1.0  0.07522  0.74707  0.83052  1.0000
  C   C591      1.0  0.10496  0.62119  0.75097  1.0000
  C   C592      1.0  0.21802  0.61478  0.82417  1.0000
  C   C593      1.0  0.20964  0.22448  0.90595  1.0000
  S   S93       1.0  0.20423  0.06955  0.97369  1.0000
  C   C594      1.0  0.23198  0.55061  0.83818  1.0000
  C   C595      1.0  0.23051  0.59375  0.82834  1.0000
  H   H473      1.0  0.06576  0.76579  0.79116  1.0000
  C   C596      1.0  0.09799  0.85502  0.76471  1.0000
  H   H474      1.0  0.06936  0.92380  0.79210  1.0000
  H   H475      1.0  0.06490  0.74582  0.82935  1.0000
  C   C597      1.0  0.21721  0.25792  0.90899  1.0000
  C   C598      1.0  0.22316  0.28414  0.89297  1.0000
  C   C599      1.0  0.17429  0.32411  0.85809  1.0000
  H   H476      1.0  0.16045  0.61169  0.80293  1.0000
  H   H477      1.0  0.04522  0.74986  0.77931  1.0000
  H   H478      1.0  0.16804  0.32085  0.84673  1.0000
  C   C600      1.0  0.06536  0.07320  0.98729  1.0000
  H   H479      1.0  0.08173  0.95836  0.76247  1.0000
  C   C601      1.0  0.17069  0.30903  0.87790  1.0000
  C   C602      1.0  0.06852  0.87083  0.83272  1.0000
  P   P19       1.0  0.07184  0.83500  0.81342  1.0000
  C   C603      1.0  0.07746  0.90451  0.78472  1.0000
  C   C604      1.0  0.05536  0.89191  0.86226  1.0000
  H   H480      1.0  0.05235  0.83679  0.84762  1.0000
  C   C605      1.0  0.01593  0.75092  0.75878  1.0000
  H   H481      1.0  0.04713  0.88687  0.87324  1.0000
  H   H482      1.0  0.23791  0.28072  0.93551  1.0000
  C   C606      1.0  0.05830  0.86365  0.84758  1.0000
  C   C607      1.0  0.05684  0.78741  0.79397  1.0000
  H   H483      1.0  0.18879  0.35467  0.83753  1.0000
  C   C608      1.0  0.18600  0.34335  0.85282  1.0000
  C   C609      1.0  0.17906  0.31315  0.89231  1.0000
  H   H484      1.0  0.21116  0.24092  0.85605  1.0000
  H   H485      1.0  0.04367  0.76599  0.85051  1.0000
  H   H486      1.0  0.14362  0.54137  0.75075  1.0000
  C   C610      1.0  0.21063  0.20946  0.96453  1.0000
  H   H487      1.0  0.01697  0.39459  0.82527  1.0000
  C   C611      1.0  0.05678  0.82330  0.80480  1.0000
  C   C612      1.0  0.07626  0.90522  0.83342  1.0000
  H   H488      1.0  0.17674  0.30141  0.90764  1.0000
  H   H489      1.0  0.99708  0.26729  0.91905  1.0000
  C   C613      1.0  0.21080  0.52063  0.79080  1.0000
  H   H490      1.0  0.99923  0.81640  0.79395  1.0000
  C   C614      1.0  0.22828  0.71806  0.75639  1.0000
  H   H491      1.0  0.99968  0.67407  0.78429  1.0000
  C   C615      1.0  0.09105  0.83532  0.78148  1.0000
  H   H492      1.0  0.04199  0.06477  0.95071  1.0000
  H   H493      1.0  0.19719  0.33553  0.89813  1.0000
  H   H494      1.0  0.08452  0.91049  0.82258  1.0000
  C   C616      1.0  0.22155  0.53266  0.77788  1.0000
  C   C617      1.0  0.04517  0.85184  0.80739  1.0000
  C   C618      1.0  0.23725  0.16208  0.94498  1.0000
  C   C619      1.0  0.19070  0.33272  0.88700  1.0000
  C   C620      1.0  0.19854  0.54505  0.78943  1.0000
  H   H495      1.0  0.09353  0.80056  0.78613  1.0000
  H   H496      1.0  0.04487  0.88073  0.81501  1.0000
  C   C621      1.0  0.03362  0.84278  0.80047  1.0000
  H   H497      1.0  0.99510  0.95912  0.78824  1.0000
  H   H498      1.0  0.00574  0.12817  0.87861  1.0000
  H   H499      1.0  0.15315  0.65745  0.77318  1.0000
  C   C622      1.0  0.00540  0.09040  0.94539  1.0000
  H   H500      1.0  0.20332  0.36238  0.86328  1.0000
  H   H501      1.0  0.02455  0.86367  0.80338  1.0000
  H   H502      1.0  0.22539  0.47101  0.96940  1.0000
  C   C623      1.0  0.06464  0.27666  0.99094  1.0000
  C   C624      1.0  0.15296  0.62209  0.77434  1.0000
  H   H503      1.0  0.99785  0.09829  0.99258  1.0000
  H   H504      1.0  0.01195  0.06052  0.94401  1.0000
  C   C625      1.0  0.00185  0.93888  0.77899  1.0000
  H   H505      1.0  0.22905  0.28971  0.97250  1.0000
  H   H506      1.0  0.21132  0.17532  0.96168  1.0000
  C   C626      1.0  0.00598  0.87672  0.75963  1.0000
  H   H507      1.0  0.19031  0.53678  0.79988  1.0000
  C   C627      1.0  0.14861  0.60241  0.75920  1.0000
  C   C628      1.0  0.00944  0.61706  0.77167  1.0000
  C   C629      1.0  0.01741  0.92371  0.94223  1.0000
  C   C630      1.0  0.00046  0.22312  0.87546  1.0000
  C   C631      1.0  0.23866  0.14776  0.91072  1.0000
  C   C632      1.0  0.24185  0.25385  0.82621  1.0000
  H   H508      1.0  0.02506  0.89661  0.94072  1.0000
  C   C633      1.0  0.23320  0.11989  0.95083  1.0000
  H   H509      1.0  0.02139  0.13111  0.94187  1.0000
  C   C634      1.0  0.99898  0.24399  0.81505  1.0000
  C   C635      1.0  0.19697  0.58120  0.77501  1.0000
  H   H510      1.0  0.22516  0.21776  0.82463  1.0000
  C   C636      1.0  0.22835  0.11265  0.85406  1.0000
  H   H511      1.0  0.00950  0.74466  0.77209  1.0000
  H   H512      1.0  0.11635  0.32230  0.84614  1.0000
  H   H513      1.0  0.18959  0.21698  0.96524  1.0000
  C   C637      1.0  0.06287  0.92683  0.86256  1.0000
  C   C638      1.0  0.07339  0.93321  0.84825  1.0000
  C   C639      1.0  0.01415  0.95269  0.92566  1.0000
  C   C640      1.0  0.20775  0.59389  0.76232  1.0000
  C   C641      1.0  0.22192  0.22980  0.96620  1.0000
  H   H514      1.0  0.18729  0.29516  0.97215  1.0000
  H   H515      1.0  0.00778  0.14730  0.84317  1.0000
  C   C642      1.0  0.15122  0.53115  0.77917  1.0000
  Fe  Fe49      1.0  0.99617  0.98166  0.85961  1.0000
  H   H516      1.0  0.07927  0.96009  0.84862  1.0000
  C   C643      1.0  0.03332  0.09240  0.97703  1.0000
  C   C644      1.0  0.22017  0.57018  0.76395  1.0000
  C   C645      1.0  0.15607  0.55079  0.79382  1.0000
  C   C646      1.0  0.22056  0.28688  0.81634  1.0000
  S   S94       1.0  0.23229  0.32649  0.89789  1.0000
  H   H517      1.0  0.05012  0.17318  0.99362  1.0000
  C   C647      1.0  0.01084  0.13043  0.94417  1.0000
  C   C648      1.0  0.23470  0.15103  0.85108  1.0000
  H   H518      1.0  0.06050  0.94894  0.87386  1.0000
  H   H519      1.0  0.01463  0.60519  0.78459  1.0000
  H   H520      1.0  0.23050  0.10903  0.96623  1.0000
  H   H521      1.0  0.07653  0.26661  0.96382  1.0000
  C   C649      1.0  0.20809  0.29722  0.97261  1.0000
  C   C650      1.0  0.19693  0.27695  0.97058  1.0000
  H   H522      1.0  0.10588  0.83570  0.75690  1.0000
  C   C651      1.0  0.11818  0.62612  0.75202  1.0000
  C   C652      1.0  0.15687  0.59626  0.79144  1.0000
  C   C653      1.0  0.22842  0.67213  0.75922  1.0000
  C   C654      1.0  0.22890  0.24962  0.82264  1.0000
  C   C655      1.0  0.07439  0.25412  0.97916  1.0000
  H   H523      1.0  0.02856  0.69075  0.76540  1.0000
  H   H524      1.0  0.07538  0.13124  0.98045  1.0000
  H   H525      1.0  0.22494  0.65638  0.77355  1.0000
  C   C656      1.0  0.01911  0.88579  0.75540  1.0000
  C   C657      1.0  0.19821  0.23304  0.96663  1.0000
  P   P20       1.0  0.23799  0.19951  0.96306  1.0000
  H   H526      1.0  0.18747  0.60012  0.77406  1.0000
  C   C658      1.0  0.01491  0.94757  0.77480  1.0000
  C   C659      1.0  0.23815  0.33266  0.81590  1.0000
  S   S95       1.0  0.02303  0.83537  0.85725  1.0000
  H   H527      1.0  0.03317  0.99269  0.96056  1.0000
  P   P21       1.0  1.00000  0.83033  0.75075  1.0000
  H   H528      1.0  0.21053  0.28341  0.81393  1.0000
  H   H529      1.0  0.23151  0.17691  0.86041  1.0000
  C   C660      1.0  0.00422  0.76371  0.88924  1.0000
  C   C661      1.0  0.03118  0.01831  0.97031  1.0000
  H   H530      1.0  0.22522  0.29825  0.86136  1.0000
  H   H531      1.0  0.02460  0.79838  0.78564  1.0000
  H   H532      1.0  0.03696  0.12425  0.97262  1.0000
  C   C662      1.0  0.99729  0.99314  0.94590  1.0000
  C   C663      1.0  0.14743  0.55689  0.76196  1.0000
  C   C664      1.0  0.07278  0.10518  0.99184  1.0000
  H   H533      1.0  0.09827  0.61964  0.76429  1.0000
  Fe  Fe50      1.0  0.00455  0.88380  0.85864  1.0000
  H   H534      1.0  0.00706  0.20049  0.94523  1.0000
  H   H535      1.0  0.22023  0.10946  0.86542  1.0000
  C   C665      1.0  0.22517  0.32841  0.81298  1.0000
  H   H536      1.0  0.22748  0.04877  0.84473  1.0000
  C   C666      1.0  0.22053  0.27365  0.97063  1.0000
  H   H537      1.0  0.24012  0.58038  0.78919  1.0000
  C   C667      1.0  0.08119  0.21477  0.98696  1.0000
  H   H538      1.0  0.21875  0.35725  0.80796  1.0000
  C   C668      1.0  0.23203  0.09181  0.93674  1.0000
  C   C669      1.0  0.23242  0.07857  0.84238  1.0000
  H   H539      1.0  0.01832  0.97474  0.78078  1.0000
  C   C670      1.0  0.99536  0.23151  0.89450  1.0000
  C   C671      1.0  0.03615  0.05891  0.96474  1.0000
  H   H540      1.0  0.22856  0.05976  0.94141  1.0000
  C   C672      1.0  0.23344  0.44489  0.96940  1.0000
  H   H541      1.0  0.01324  0.90705  0.97354  1.0000
  C   C673      1.0  0.00087  0.96455  0.96259  1.0000
  C   C674      1.0  0.03364  0.80601  0.79041  1.0000
  H   H542      1.0  0.08834  0.19717  0.97723  1.0000
  C   C675      1.0  0.00268  0.17073  0.83266  1.0000
  C   C676      1.0  0.11957  0.09166  0.98518  1.0000
  C   C677      1.0  0.00587  0.21445  0.82865  1.0000
  C   C678      1.0  0.02352  0.92112  0.76295  1.0000
  C   C679      1.0  0.99803  0.73358  0.88078  1.0000
  H   H543      1.0  0.00407  0.80191  0.83579  1.0000
  H   H544      1.0  0.01477  0.76408  0.88669  1.0000
  S   S96       1.0  0.00033  0.92653  0.88355  1.0000
  H   H545      1.0  0.12308  0.06075  0.97935  1.0000
  H   H546      1.0  0.12155  0.62851  0.76624  1.0000
  C   C680      1.0  0.00095  0.65601  0.77150  1.0000
  H   H547      1.0  0.18841  0.14456  0.99118  1.0000
  C   C681      1.0  0.24053  0.43571  0.95162  1.0000
  H   H548      1.0  0.01934  0.94836  0.91134  1.0000
  H   H549      1.0  0.13678  0.12263  0.97301  1.0000
  H   H550      1.0  0.06235  0.07493  0.97254  1.0000
  C   C682      1.0  0.99677  0.79449  0.90033  1.0000
  C   C683      1.0  0.00407  0.98708  0.92742  1.0000
  C   C684      1.0  0.99443  0.67210  0.75475  1.0000
  H   H551      1.0  0.20642  0.62267  0.75152  1.0000
  H   H552      1.0  0.23354  0.08423  0.90578  1.0000
  C   C685      1.0  0.99742  0.90379  0.77140  1.0000
  C   C686      1.0  0.00272  0.16978  0.94570  1.0000
  P   P22       1.0  0.23413  0.58761  0.74802  1.0000
  C   C687      1.0  0.02340  0.01113  0.98818  1.0000
  H   H553      1.0  0.20710  0.33125  0.97569  1.0000
  C   C688      1.0  0.01142  0.59403  0.75511  1.0000
  C   C689      1.0  0.02682  0.72032  0.75514  1.0000
  H   H554      1.0  0.23097  0.51330  0.77916  1.0000
  C   C690      1.0  0.09471  0.89945  0.75796  1.0000
  H   H555      1.0  0.24041  0.15909  0.89516  1.0000
  H   H556      1.0  0.12876  0.19422  0.98552  1.0000
  C   C691      1.0  0.12279  0.16699  0.98861  1.0000
  C   C692      1.0  0.24177  0.16875  0.98636  1.0000
  C   C693      1.0  0.23692  0.42107  0.98717  1.0000
  H   H557      1.0  0.24182  0.36470  0.81286  1.0000
  H   H558      1.0  0.99604  0.96895  0.97711  1.0000
  C   C694      1.0  0.23986  0.17587  0.92479  1.0000
  H   H559      1.0  0.24242  0.20876  0.91977  1.0000
  H   H560      1.0  0.02604  0.86571  0.74650  1.0000
  C   C695      1.0  0.01366  0.78939  0.74561  1.0000
  C   C696      1.0  0.24289  0.08284  0.82778  1.0000
  H   H561      1.0  0.10009  0.91463  0.74493  1.0000
  Fe  Fe51      1.0  0.31763  0.44945  0.05378  1.0000
  S   S97       1.0  0.31407  0.51615  0.03639  1.0000
  S   S98       1.0  0.33625  0.40148  0.05446  1.0000
  Fe  Fe52      1.0  0.28916  0.45040  0.07079  1.0000
  S   S99       1.0  0.28379  0.51791  0.05466  1.0000
  S   S100      1.0  0.27439  0.41353  0.09189  1.0000
  Fe  Fe53      1.0  0.29571  0.49115  0.02806  1.0000
  Fe  Fe54      1.0  0.30249  0.53737  0.06446  1.0000
  S   S101      1.0  0.30519  0.60535  0.07521  1.0000
  S   S102      1.0  0.30000  0.42357  0.04413  1.0000
  S   S103      1.0  0.30706  0.47100  0.08192  1.0000
  Fe  Fe55      1.0  0.30989  0.77881  0.16448  1.0000
  S   S104      1.0  0.32082  0.83577  0.15001  1.0000
  S   S105      1.0  0.30699  0.71492  0.15034  1.0000
  Fe  Fe56      1.0  0.30520  0.82087  0.20492  1.0000
  S   S106      1.0  0.31612  0.87920  0.19248  1.0000
  C   C697      1.0  0.45030  0.01463  0.10625  1.0000
  Fe  Fe57      1.0  0.30527  0.88050  0.16555  1.0000
  S   S107      1.0  0.29872  0.95042  0.15211  1.0000
  Fe  Fe58      1.0  0.33100  0.83105  0.17780  1.0000
  S   S108      1.0  0.35336  0.83233  0.17243  1.0000
  S   S109      1.0  0.29350  0.82476  0.17841  1.0000
  S   S110      1.0  0.32091  0.77152  0.19191  1.0000
  H   H562      1.0  0.36911  0.95758  0.14152  1.0000
  Fe  Fe59      1.0  0.41348  0.40001  0.04455  1.0000
  S   S111      1.0  0.41760  0.33455  0.03245  1.0000
  S   S112      1.0  0.39535  0.44902  0.03892  1.0000
  Fe  Fe60      1.0  0.43970  0.38958  0.06271  1.0000
  S   S113      1.0  0.44529  0.32263  0.05214  1.0000
  S   S114      1.0  0.45539  0.41109  0.07966  1.0000
  Fe  Fe61      1.0  0.43801  0.35391  0.02319  1.0000
  C   C698      1.0  0.47485  0.51050  0.09264  1.0000
  Fe  Fe62      1.0  0.42459  0.30837  0.06236  1.0000
  S   S115      1.0  0.41793  0.24093  0.07591  1.0000
  S   S116      1.0  0.43351  0.42147  0.03330  1.0000
  S   S117      1.0  0.41934  0.37332  0.07493  1.0000
  Fe  Fe63      1.0  0.43785  0.94394  0.15443  1.0000
  S   S118      1.0  0.45041  0.98970  0.16490  1.0000
  S   S119      1.0  0.44220  0.89983  0.12981  1.0000
  Fe  Fe64      1.0  0.41408  0.97068  0.18232  1.0000
  S   S120      1.0  0.42496  0.01852  0.19531  1.0000
  S   S121      1.0  0.39235  0.96484  0.19260  1.0000
  Fe  Fe65      1.0  0.43253  0.03989  0.16378  1.0000
  S   S122      1.0  0.43410  0.11333  0.15313  1.0000
  Fe  Fe66      1.0  0.44209  0.96548  0.19577  1.0000
  C   C699      1.0  0.26925  0.28266  0.00442  1.0000
  S   S123      1.0  0.42063  0.99581  0.15109  1.0000
  S   S124      1.0  0.43067  0.91616  0.18496  1.0000
  C   C700      1.0  0.42899  0.14836  0.13185  1.0000
  C   C701      1.0  0.42265  0.13327  0.11734  1.0000
  C   C702      1.0  0.41916  0.16218  0.10051  1.0000
  C   C703      1.0  0.42221  0.20626  0.09773  1.0000
  C   C704      1.0  0.42846  0.22138  0.11231  1.0000
  C   C705      1.0  0.43157  0.19286  0.12938  1.0000
  H   H563      1.0  0.42055  0.09928  0.11901  1.0000
  H   H564      1.0  0.41427  0.15010  0.08940  1.0000
  H   H565      1.0  0.43079  0.25518  0.11054  1.0000
  H   H566      1.0  0.43620  0.20530  0.14066  1.0000
  C   C706      1.0  0.43079  0.84753  0.23579  1.0000
  C   C707      1.0  0.45167  0.50318  0.07562  1.0000
  C   C708      1.0  0.45966  0.46477  0.08164  1.0000
  C   C709      1.0  0.47131  0.46876  0.08999  1.0000
  C   C710      1.0  0.30935  0.27795  0.06954  1.0000
  H   H567      1.0  0.44268  0.50064  0.06921  1.0000
  H   H568      1.0  0.32992  0.28133  0.03429  1.0000
  C   C711      1.0  0.35052  0.58184  0.11227  1.0000
  C   C712      1.0  0.47919  0.83949  0.13615  1.0000
  C   C713      1.0  0.41180  0.89918  0.22873  1.0000
  C   C714      1.0  0.46742  0.86740  0.13869  1.0000
  C   C715      1.0  0.45717  0.86532  0.12713  1.0000
  C   C716      1.0  0.45870  0.83458  0.11329  1.0000
  C   C717      1.0  0.47034  0.80577  0.11116  1.0000
  H   H569      1.0  0.46636  0.89093  0.14937  1.0000
  H   H570      1.0  0.45082  0.83276  0.10429  1.0000
  H   H571      1.0  0.47146  0.78241  0.10039  1.0000
  C   C718      1.0  0.36380  0.87095  0.17765  1.0000
  C   C719      1.0  0.37698  0.86745  0.16962  1.0000
  C   C720      1.0  0.38573  0.89642  0.17375  1.0000
  C   C721      1.0  0.38150  0.92895  0.18618  1.0000
  C   C722      1.0  0.36829  0.93281  0.19406  1.0000
  C   C723      1.0  0.35947  0.90414  0.18978  1.0000
  H   H572      1.0  0.38047  0.84203  0.16018  1.0000
  H   H573      1.0  0.39577  0.89363  0.16736  1.0000
  H   H574      1.0  0.36488  0.95786  0.20371  1.0000
  H   H575      1.0  0.34939  0.90723  0.19613  1.0000
  C   C724      1.0  0.28300  0.96777  0.14397  1.0000
  C   C725      1.0  0.27411  0.93771  0.14224  1.0000
  C   C726      1.0  0.26228  0.95252  0.13375  1.0000
  C   C727      1.0  0.25907  0.99758  0.12760  1.0000
  C   C728      1.0  0.26756  0.02788  0.13057  1.0000
  C   C729      1.0  0.27957  0.01296  0.13845  1.0000
  H   H576      1.0  0.27649  0.90295  0.14693  1.0000
  H   H577      1.0  0.25566  0.92896  0.13173  1.0000
  H   H578      1.0  0.26496  0.06266  0.12636  1.0000
  H   H579      1.0  0.28631  0.03649  0.13998  1.0000
  C   C730      1.0  0.30593  0.63471  0.09645  1.0000
  C   C731      1.0  0.30847  0.67948  0.09349  1.0000
  C   C732      1.0  0.30878  0.70436  0.10956  1.0000
  C   C733      1.0  0.30660  0.68510  0.12915  1.0000
  C   C734      1.0  0.30413  0.64030  0.13211  1.0000
  C   C735      1.0  0.30380  0.61543  0.11603  1.0000
  H   H580      1.0  0.31008  0.69529  0.07857  1.0000
  H   H581      1.0  0.31074  0.73850  0.10678  1.0000
  H   H582      1.0  0.30245  0.62453  0.14703  1.0000
  H   H583      1.0  0.30181  0.58129  0.11885  1.0000
  C   C736      1.0  0.35255  0.41564  0.04947  1.0000
  C   C737      1.0  0.36299  0.38206  0.05172  1.0000
  C   C738      1.0  0.37612  0.39180  0.04862  1.0000
  C   C739      1.0  0.37895  0.43524  0.04289  1.0000
  C   C740      1.0  0.36851  0.46873  0.04013  1.0000
  C   C741      1.0  0.35536  0.45909  0.04358  1.0000
  H   H584      1.0  0.36090  0.34835  0.05619  1.0000
  H   H585      1.0  0.38405  0.36571  0.05068  1.0000
  H   H586      1.0  0.37059  0.50238  0.03548  1.0000
  H   H587      1.0  0.34742  0.48522  0.04176  1.0000
  C   C742      1.0  0.27008  0.36059  0.08892  1.0000
  C   C743      1.0  0.25960  0.34341  0.10119  1.0000
  C   C744      1.0  0.25589  0.30149  0.09927  1.0000
  C   C745      1.0  0.26278  0.27602  0.08527  1.0000
  C   C746      1.0  0.27324  0.29320  0.07302  1.0000
  C   C747      1.0  0.27680  0.33537  0.07471  1.0000
  H   H588      1.0  0.25426  0.36289  0.11210  1.0000
  C   C748      1.0  0.27886  0.13412  0.10568  1.0000
  H   H589      1.0  0.27860  0.27384  0.06207  1.0000
  H   H590      1.0  0.28479  0.34827  0.06508  1.0000
  P   P23       1.0  0.35829  0.54771  0.09378  1.0000
  C   C749      1.0  0.35177  0.49478  0.09846  1.0000
  C   C750      1.0  0.35387  0.57401  0.06996  1.0000
  C   C751      1.0  0.36255  0.59981  0.05768  1.0000
  C   C752      1.0  0.35866  0.62324  0.04004  1.0000
  C   C753      1.0  0.34602  0.62184  0.03472  1.0000
  C   C754      1.0  0.33732  0.59646  0.04687  1.0000
  C   C755      1.0  0.34121  0.57256  0.06439  1.0000
  C   C756      1.0  0.35963  0.45576  0.09445  1.0000
  C   C757      1.0  0.35452  0.41505  0.09835  1.0000
  C   C758      1.0  0.34153  0.41284  0.10623  1.0000
  C   C759      1.0  0.33364  0.45137  0.11036  1.0000
  C   C760      1.0  0.33868  0.49222  0.10636  1.0000
  C   C761      1.0  0.37595  0.54056  0.09451  1.0000
  C   C762      1.0  0.38172  0.55120  0.11072  1.0000
  C   C763      1.0  0.39536  0.54445  0.11132  1.0000
  C   C764      1.0  0.40334  0.52698  0.09579  1.0000
  C   C765      1.0  0.39769  0.51659  0.07958  1.0000
  C   C766      1.0  0.38408  0.52351  0.07889  1.0000
  H   H591      1.0  0.37221  0.60274  0.06185  1.0000
  H   H592      1.0  0.36540  0.64308  0.03067  1.0000
  C   C767      1.0  0.45707  0.53689  0.00417  1.0000
  H   H593      1.0  0.32741  0.59597  0.04300  1.0000
  H   H594      1.0  0.33415  0.55412  0.07377  1.0000
  H   H595      1.0  0.36964  0.45629  0.08803  1.0000
  H   H596      1.0  0.36057  0.38529  0.09478  1.0000
  H   H597      1.0  0.33753  0.38136  0.10876  1.0000
  H   H598      1.0  0.32354  0.44973  0.11635  1.0000
  H   H599      1.0  0.33230  0.52180  0.10928  1.0000
  H   H600      1.0  0.37577  0.56454  0.12295  1.0000
  H   H601      1.0  0.39976  0.55244  0.12389  1.0000
  H   H602      1.0  0.41389  0.52125  0.09633  1.0000
  H   H603      1.0  0.40383  0.50264  0.06758  1.0000
  H   H604      1.0  0.37991  0.51493  0.06624  1.0000
  H   H605      1.0  0.32718  0.97214  0.14377  1.0000
  C   C768      1.0  0.25746  0.94474  0.07822  1.0000
  C   C769      1.0  0.31182  0.29090  0.10850  1.0000
  C   C770      1.0  0.30822  0.25048  0.10439  1.0000
  H   H606      1.0  0.26103  0.08702  0.23596  1.0000
  P   P24       1.0  0.30456  0.20842  0.12449  1.0000
  C   C771      1.0  0.34075  0.54650  0.99811  1.0000
  C   C772      1.0  0.29246  0.23429  0.14173  1.0000
  C   C773      1.0  0.29158  0.21878  0.16193  1.0000
  C   C774      1.0  0.28267  0.24066  0.17521  1.0000
  C   C775      1.0  0.27465  0.27828  0.16845  1.0000
  C   C776      1.0  0.27525  0.29335  0.14834  1.0000
  C   C777      1.0  0.28397  0.27116  0.13499  1.0000
  P   P25       1.0  0.25224  0.35864  0.01046  1.0000
  H   H607      1.0  0.46199  0.60514  0.21748  1.0000
  H   H608      1.0  0.39965  0.72800  0.15012  1.0000
  C   C778      1.0  0.47367  0.69474  0.23151  1.0000
  C   C779      1.0  0.47794  0.42056  0.99601  1.0000
  C   C780      1.0  0.29761  0.16448  0.11536  1.0000
  H   H609      1.0  0.30667  0.06484  0.09795  1.0000
  C   C781      1.0  0.46403  0.16438  0.09485  1.0000
  C   C782      1.0  0.32384  0.34579  0.01978  1.0000
  C   C783      1.0  0.46690  0.15152  0.03576  1.0000
  C   C784      1.0  0.28413  0.16776  0.11321  1.0000
  C   C785      1.0  0.25282  0.81880  0.14835  1.0000
  S   S125      1.0  0.49037  0.65195  0.12928  1.0000
  H   H610      1.0  0.45067  0.64981  0.17655  1.0000
  H   H611      1.0  0.29777  0.19015  0.16759  1.0000
  H   H612      1.0  0.28204  0.22871  0.19078  1.0000
  H   H613      1.0  0.26785  0.29551  0.17876  1.0000
  H   H614      1.0  0.26893  0.32225  0.14300  1.0000
  H   H615      1.0  0.28409  0.28330  0.11943  1.0000
  P   P26       1.0  0.40441  0.78019  0.21395  1.0000
  C   C786      1.0  0.28697  0.09707  0.10024  1.0000
  C   C787      1.0  0.45124  0.76898  0.15656  1.0000
  H   H616      1.0  0.24772  0.28894  0.10862  1.0000
  H   H617      1.0  0.26126  0.07890  0.00516  1.0000
  C   C788      1.0  0.24519  0.25928  0.15744  1.0000
  C   C789      1.0  0.25711  0.82776  0.12836  1.0000
  C   C790      1.0  0.42424  0.89007  0.23555  1.0000
  C   C791      1.0  0.47015  0.66658  0.21879  1.0000
  H   H618      1.0  0.27767  0.19662  0.11689  1.0000
  S   S126      1.0  0.25906  0.22222  0.08269  1.0000
  C   C792      1.0  0.30041  0.09364  0.10222  1.0000
  C   C793      1.0  0.25190  0.04188  0.18779  1.0000
  H   H619      1.0  0.46600  0.67552  0.01298  1.0000
  H   H620      1.0  0.32725  0.05179  0.13180  1.0000
  H   H621      1.0  0.46796  0.04592  0.10448  1.0000
  C   C794      1.0  0.41228  0.81807  0.17588  1.0000
  C   C795      1.0  0.41411  0.81930  0.15533  1.0000
  C   C796      1.0  0.40953  0.78694  0.14605  1.0000
  C   C797      1.0  0.29293  0.28057  0.99971  1.0000
  C   C798      1.0  0.27645  0.77700  0.06216  1.0000
  H   H622      1.0  0.44923  0.51629  0.00402  1.0000
  C   C799      1.0  0.46890  0.42295  0.01258  1.0000
  C   C800      1.0  0.26967  0.81042  0.12108  1.0000
  C   C801      1.0  0.34005  0.65243  0.12146  1.0000
  S   S127      1.0  0.28724  0.49982  0.99733  1.0000
  H   H623      1.0  0.33014  0.09772  0.16836  1.0000
  H   H624      1.0  0.41913  0.84531  0.14660  1.0000
  H   H625      1.0  0.41091  0.78811  0.13012  1.0000
  H   H626      1.0  0.26351  0.78168  0.24185  1.0000
  H   H627      1.0  0.25873  0.97869  0.07971  1.0000
  C   C802      1.0  0.48351  0.05937  0.06525  1.0000
  C   C803      1.0  0.31906  0.14623  0.14926  1.0000
  H   H628      1.0  0.41584  0.84355  0.18273  1.0000
  H   H629      1.0  0.30249  0.26244  0.99697  1.0000
  H   H630      1.0  0.43160  0.99082  0.10556  1.0000
  P   P27       1.0  0.25335  0.12741  0.19684  1.0000
  C   C804      1.0  0.27101  0.11592  0.19601  1.0000
  H   H631      1.0  0.46378  0.70906  0.15357  1.0000
  C   C805      1.0  0.43780  0.01658  0.09990  1.0000
  C   C806      1.0  0.45727  0.75928  0.19569  1.0000
  C   C807      1.0  0.29164  0.08224  0.18112  1.0000
  C   C808      1.0  0.27804  0.09212  0.18134  1.0000
  C   C809      1.0  0.27340  0.77460  0.15396  1.0000
  S   S128      1.0  0.45092  0.33482  0.99542  1.0000
  H   H632      1.0  0.33169  0.23426  0.12142  1.0000
  H   H633      1.0  0.35226  0.27741  0.01685  1.0000
  H   H634      1.0  0.33650  0.68670  0.11739  1.0000
  H   H635      1.0  0.43618  0.23770  0.03782  1.0000
  H   H636      1.0  0.26009  0.03159  0.19651  1.0000
  C   C810      1.0  0.24527  0.12744  0.22159  1.0000
  S   S129      1.0  0.47008  0.60198  0.09161  1.0000
  C   C811      1.0  0.46331  0.17776  0.01855  1.0000
  C   C812      1.0  0.40322  0.75307  0.15732  1.0000
  H   H637      1.0  0.29688  0.06236  0.17020  1.0000
  H   H638      1.0  0.27305  0.08076  0.17010  1.0000
  C   C813      1.0  0.47645  0.83132  0.22233  1.0000
  C   C814      1.0  0.28159  0.25904  0.00123  1.0000
  H   H639      1.0  0.35567  0.49223  0.99740  1.0000
  C   C815      1.0  0.27750  0.73945  0.05223  1.0000
  C   C816      1.0  0.30214  0.81900  0.08127  1.0000
  C   C817      1.0  0.31490  0.83054  0.08098  1.0000
  C   C818      1.0  0.31764  0.86001  0.09356  1.0000
  H   H640      1.0  0.27900  0.66820  0.05526  1.0000
  H   H641      1.0  0.34817  0.92555  0.14856  1.0000
  H   H642      1.0  0.27826  0.74275  0.03626  1.0000
  H   H643      1.0  0.27650  0.80923  0.05367  1.0000
  H   H644      1.0  0.32754  0.86865  0.09347  1.0000
  C   C819      1.0  0.34624  0.62659  0.10709  1.0000
  H   H645      1.0  0.28760  0.77105  0.12885  1.0000
  C   C820      1.0  0.40252  0.97843  0.09075  1.0000
  C   C821      1.0  0.40822  0.94508  0.10397  1.0000
  C   C822      1.0  0.40403  0.94291  0.12405  1.0000
  C   C823      1.0  0.39426  0.97430  0.13098  1.0000
  C   C824      1.0  0.38850  0.00804  0.11786  1.0000
  C   C825      1.0  0.39265  0.00970  0.09761  1.0000
  P   P28       1.0  0.37576  0.04799  0.12714  1.0000
  C   C826      1.0  0.38058  0.06195  0.14997  1.0000
  C   C827      1.0  0.37447  0.09663  0.10912  1.0000
  C   C828      1.0  0.36733  0.09685  0.09273  1.0000
  C   C829      1.0  0.36681  0.13316  0.07817  1.0000
  C   C830      1.0  0.37354  0.16935  0.07970  1.0000
  C   C831      1.0  0.38072  0.16940  0.09584  1.0000
  C   C832      1.0  0.38114  0.13342  0.11054  1.0000
  C   C833      1.0  0.39332  0.07312  0.15079  1.0000
  C   C834      1.0  0.39715  0.08427  0.16830  1.0000
  C   C835      1.0  0.38841  0.08315  0.18529  1.0000
  C   C836      1.0  0.37579  0.07120  0.18475  1.0000
  C   C837      1.0  0.37186  0.06061  0.16717  1.0000
  C   C838      1.0  0.36035  0.02369  0.13187  1.0000
  C   C839      1.0  0.34837  0.05008  0.12956  1.0000
  C   C840      1.0  0.33647  0.03149  0.13370  1.0000
  C   C841      1.0  0.33640  0.98662  0.14045  1.0000
  C   C842      1.0  0.34823  0.96031  0.14310  1.0000
  C   C843      1.0  0.36015  0.97870  0.13893  1.0000
  H   H646      1.0  0.40581  0.98015  0.07517  1.0000
  H   H647      1.0  0.41602  0.92120  0.09878  1.0000
  H   H648      1.0  0.40862  0.91760  0.13435  1.0000
  H   H649      1.0  0.39138  0.97272  0.14669  1.0000
  H   H650      1.0  0.38845  0.03519  0.08707  1.0000
  H   H651      1.0  0.36238  0.06854  0.09101  1.0000
  H   H652      1.0  0.36138  0.13296  0.06551  1.0000
  H   H653      1.0  0.37337  0.19720  0.06827  1.0000
  H   H654      1.0  0.38619  0.19711  0.09681  1.0000
  H   H655      1.0  0.38687  0.13470  0.12269  1.0000
  H   H656      1.0  0.40035  0.07316  0.13790  1.0000
  H   H657      1.0  0.40700  0.09300  0.16876  1.0000
  H   H658      1.0  0.39156  0.09038  0.19900  1.0000
  H   H659      1.0  0.36922  0.06871  0.19814  1.0000
  H   H660      1.0  0.36217  0.05038  0.16726  1.0000
  H   H661      1.0  0.34820  0.08505  0.12471  1.0000
  C   C844      1.0  0.25791  0.44057  0.01878  1.0000
  C   C845      1.0  0.28198  0.99212  0.22023  1.0000
  C   C846      1.0  0.30763  0.87781  0.10651  1.0000
  C   C847      1.0  0.33273  0.30843  0.02362  1.0000
  C   C848      1.0  0.27784  0.78437  0.13411  1.0000
  C   C849      1.0  0.29202  0.83668  0.09431  1.0000
  H   H662      1.0  0.34745  0.64158  0.09196  1.0000
  H   H663      1.0  0.42889  0.91616  0.24037  1.0000
  H   H664      1.0  0.35206  0.52938  0.13644  1.0000
  C   C850      1.0  0.27784  0.69749  0.06289  1.0000
  H   H665      1.0  0.30971  0.90044  0.11642  1.0000
  C   C851      1.0  0.40589  0.78437  0.18731  1.0000
  H   H666      1.0  0.38912  0.41142  0.00182  1.0000
  C   C852      1.0  0.24714  0.01087  0.17787  1.0000
  S   S130      1.0  0.45717  0.94276  0.21872  1.0000
  C   C853      1.0  0.29494  0.86567  0.10709  1.0000
  C   C854      1.0  0.25064  0.17998  0.18185  1.0000
  H   H667      1.0  0.31703  0.35559  0.09631  1.0000
  C   C855      1.0  0.27565  0.77285  0.08288  1.0000
  C   C856      1.0  0.34248  0.58966  0.14641  1.0000
  H   H668      1.0  0.30034  0.79567  0.07158  1.0000
  C   C857      1.0  0.34875  0.56372  0.13210  1.0000
  H   H669      1.0  0.32270  0.81623  0.07113  1.0000
  C   C858      1.0  0.27697  0.69308  0.08346  1.0000
  H   H670      1.0  0.28741  0.87882  0.11759  1.0000
  P   P29       1.0  0.27550  0.82148  0.09536  1.0000
  C   C859      1.0  0.33808  0.63395  0.14107  1.0000
  C   C860      1.0  0.44636  0.80139  0.16875  1.0000
  H   H671      1.0  0.28233  0.22410  0.99977  1.0000
  H   H672      1.0  0.30066  0.34266  0.99992  1.0000
  H   H673      1.0  0.33299  0.65396  0.15205  1.0000
  H   H674      1.0  0.31408  0.34744  0.02734  1.0000
  H   H675      1.0  0.48374  0.51295  0.09933  1.0000
  H   H676      1.0  0.27973  0.75360  0.16377  1.0000
  H   H677      1.0  0.34089  0.57539  0.16161  1.0000
  C   C861      1.0  0.27596  0.73047  0.09345  1.0000
  C   C862      1.0  0.36131  0.79845  0.24069  1.0000
  H   H678      1.0  0.46661  0.27305  0.09820  1.0000
  C   C863      1.0  0.36405  0.79137  0.22092  1.0000
  C   C864      1.0  0.24923  0.39309  0.04686  1.0000
  C   C865      1.0  0.46844  0.58304  0.02134  1.0000
  H   H679      1.0  0.43757  0.11241  0.06921  1.0000
  H   H680      1.0  0.32066  0.41058  0.00411  1.0000
  C   C866      1.0  0.24509  0.21838  0.19007  1.0000
  H   H681      1.0  0.44049  0.83076  0.16290  1.0000
  H   H682      1.0  0.30799  0.27362  0.05451  1.0000
  C   C867      1.0  0.45513  0.54490  0.07851  1.0000
  C   C868      1.0  0.45228  0.20895  0.01928  1.0000
  H   H683      1.0  0.27570  0.72570  0.10934  1.0000
  C   C869      1.0  0.45394  0.08360  0.08572  1.0000
  H   H684      1.0  0.26651  0.86022  0.23842  1.0000
  C   C870      1.0  0.41241  0.82296  0.22219  1.0000
  C   C871      1.0  0.31435  0.32422  0.09320  1.0000
  C   C872      1.0  0.29841  0.09742  0.19508  1.0000
  C   C873      1.0  0.45947  0.15651  0.05389  1.0000
  C   C874      1.0  0.24820  0.12208  0.02254  1.0000
  C   C875      1.0  0.48230  0.82278  0.20373  1.0000
  C   C876      1.0  0.34193  0.14804  0.15411  1.0000
  H   H685      1.0  0.28280  0.07106  0.09447  1.0000
  H   H686      1.0  0.44586  0.82254  0.19748  1.0000
  H   H687      1.0  0.31625  0.12477  0.11041  1.0000
  H   H688      1.0  0.36502  0.41332  0.00629  1.0000
  C   C877      1.0  0.48070  0.80849  0.12242  1.0000
  H   H689      1.0  0.47710  0.77498  0.04473  1.0000
  H   H690      1.0  0.42355  0.05367  0.08178  1.0000
  C   C878      1.0  0.47010  0.72695  0.02913  1.0000
  H   H691      1.0  0.46165  0.16675  0.14464  1.0000
  H   H692      1.0  0.45117  0.55249  0.03376  1.0000
  H   H693      1.0  0.46685  0.85003  0.22367  1.0000
  H   H694      1.0  0.44894  0.77288  0.14136  1.0000
  H   H695      1.0  0.35606  0.79085  0.21189  1.0000
  H   H696      1.0  0.45373  0.98726  0.11671  1.0000
  C   C879      1.0  0.46573  0.23834  0.10292  1.0000
  C   C880      1.0  0.42425  0.71070  0.21198  1.0000
  H   H697      1.0  0.44872  0.57432  0.07426  1.0000
  H   H698      1.0  0.46931  0.59754  0.03470  1.0000
  H   H699      1.0  0.44963  0.23007  0.00607  1.0000
  C   C881      1.0  0.33033  0.12785  0.15827  1.0000
  H   H700      1.0  0.31020  0.12983  0.15239  1.0000
  C   C882      1.0  0.41242  0.72648  0.22218  1.0000
  H   H701      1.0  0.47557  0.12808  0.03487  1.0000
  C   C883      1.0  0.44473  0.21348  0.03718  1.0000
  H   H702      1.0  0.25762  0.78488  0.17659  1.0000
  C   C884      1.0  0.27796  0.13262  0.20945  1.0000
  C   C885      1.0  0.48091  0.56554  0.16598  1.0000
  H   H703      1.0  0.27282  0.15285  0.22028  1.0000
  H   H704      1.0  0.46815  0.53490  0.15019  1.0000
  H   H705      1.0  0.30370  0.21422  0.08121  1.0000
  C   C886      1.0  0.31924  0.18529  0.13614  1.0000
  C   C887      1.0  0.44942  0.79669  0.18826  1.0000
  C   C888      1.0  0.49162  0.46566  0.00976  1.0000
  H   H706      1.0  0.29687  0.13535  0.21975  1.0000
  H   H707      1.0  0.35135  0.20167  0.13737  1.0000
  C   C889      1.0  0.26648  0.91044  0.08548  1.0000
  H   H708      1.0  0.46136  0.11533  0.12025  1.0000
  C   C890      1.0  0.34533  0.30628  0.01386  1.0000
  C   C891      1.0  0.30690  0.24434  0.08479  1.0000
  H   H709      1.0  0.25182  0.97733  0.17854  1.0000
  C   C892      1.0  0.45802  0.59137  0.16315  1.0000
  C   C893      1.0  0.47760  0.58920  0.00481  1.0000
  C   C894      1.0  0.34906  0.34152  0.00030  1.0000
  H   H710      1.0  0.47823  0.72423  0.22557  1.0000
  C   C895      1.0  0.44134  0.08523  0.07938  1.0000
  H   H711      1.0  0.47723  0.83469  0.19067  1.0000
  C   C896      1.0  0.43332  0.05182  0.08646  1.0000
  C   C897      1.0  0.46667  0.54881  0.08717  1.0000
  C   C898      1.0  0.47123  0.44637  0.02781  1.0000
  C   C899      1.0  0.27765  0.94040  0.19850  1.0000
  C   C900      1.0  0.47969  0.74556  0.03735  1.0000
  H   H712      1.0  0.47756  0.43929  0.09467  1.0000
  P   P30       1.0  0.47331  0.67945  0.19238  1.0000
  C   C901      1.0  0.31320  0.31763  0.07376  1.0000
  C   C902      1.0  0.45834  0.04794  0.09923  1.0000
  C   C903      1.0  0.30576  0.12744  0.10953  1.0000
  H   H713      1.0  0.29451  0.97678  0.19418  1.0000
  H   H714      1.0  0.31514  0.34377  0.06207  1.0000
  S   S131      1.0  0.29310  0.81218  0.23558  1.0000
  C   C904      1.0  0.48640  0.66819  0.01908  1.0000
  C   C905      1.0  0.46281  0.14930  0.11508  1.0000
  C   C906      1.0  0.46574  0.20906  0.08888  1.0000
  C   C907      1.0  0.37705  0.78588  0.21260  1.0000
  C   C908      1.0  0.45952  0.73244  0.16367  1.0000
  C   C909      1.0  0.26620  0.93158  0.21040  1.0000
  C   C910      1.0  0.25309  0.40035  0.02656  1.0000
  H   H715      1.0  0.31251  0.29687  0.12356  1.0000
  H   H716      1.0  0.26260  0.50364  0.02494  1.0000
  H   H717      1.0  0.46006  0.74219  0.03000  1.0000
  H   H718      1.0  0.44878  0.58813  0.15756  1.0000
  H   H719      1.0  0.43011  0.78125  0.22969  1.0000
  C   C911      1.0  0.47134  0.63198  0.18020  1.0000
  C   C912      1.0  0.40593  0.86586  0.22197  1.0000
  C   C913      1.0  0.46239  0.72665  0.18345  1.0000
  C   C914      1.0  0.26818  0.32783  0.00674  1.0000
  C   C915      1.0  0.44835  0.18757  0.05439  1.0000
  C   C916      1.0  0.25869  0.47301  0.03104  1.0000
  P   P31       1.0  0.49117  0.62089  0.00585  1.0000
  H   H720      1.0  0.25554  0.49040  0.06076  1.0000
  H   H721      1.0  0.48688  0.73101  0.15868  1.0000
  C   C917      1.0  0.45917  0.62643  0.17385  1.0000
  C   C918      1.0  0.25358  0.85711  0.07576  1.0000
  C   C919      1.0  0.27963  0.34920  0.00517  1.0000
  H   H722      1.0  0.45940  0.75674  0.21083  1.0000
  C   C920      1.0  0.34230  0.18630  0.14077  1.0000
  H   H723      1.0  0.28814  0.01543  0.22403  1.0000
  C   C921      1.0  0.48211  0.60059  0.17660  1.0000
  C   C922      1.0  0.47347  0.68875  0.01975  1.0000
  H   H724      1.0  0.48721  0.84210  0.14477  1.0000
  C   C923      1.0  0.46892  0.56121  0.15904  1.0000
  H   H725      1.0  0.25879  0.15366  0.15485  1.0000
  H   H726      1.0  0.27752  0.66039  0.09166  1.0000
  P   P32       1.0  0.46457  0.12617  0.07667  1.0000
  C   C924      1.0  0.25144  0.10525  0.23790  1.0000
  H   H727      1.0  0.34681  0.56648  0.00443  1.0000
  H   H728      1.0  0.25061  0.84834  0.11876  1.0000
  H   H729      1.0  0.44263  0.19235  0.06824  1.0000
  C   C925      1.0  0.46456  0.62796  0.22688  1.0000
  H   H730      1.0  0.28046  0.92352  0.18552  1.0000
  C   C926      1.0  0.25470  0.46565  0.05115  1.0000
  H   H731      1.0  0.47542  0.04277  0.06196  1.0000
  H   H732      1.0  0.30894  0.08937  0.19505  1.0000
  H   H733      1.0  0.39633  0.87373  0.21650  1.0000
  C   C927      1.0  0.48961  0.44052  0.99480  1.0000
  C   C928      1.0  0.46439  0.22307  0.12301  1.0000
  C   C929      1.0  0.40152  0.75150  0.17789  1.0000
  H   H734      1.0  0.25168  0.82337  0.07520  1.0000
  C   C930      1.0  0.49009  0.69184  0.18673  1.0000
  C   C931      1.0  0.27055  0.98318  0.23226  1.0000
  H   H735      1.0  0.39676  0.72472  0.18645  1.0000
  C   C932      1.0  0.46306  0.17850  0.12907  1.0000
  C   C933      1.0  0.25417  0.18251  0.16145  1.0000
  H   H736      1.0  0.42852  0.73040  0.19920  1.0000
  H   H737      1.0  0.46416  0.24592  0.13388  1.0000
  H   H738      1.0  0.26018  0.90826  0.20625  1.0000
  C   C934      1.0  0.29193  0.32566  0.00153  1.0000
  C   C935      1.0  0.26465  0.86627  0.08425  1.0000
  C   C936      1.0  0.28557  0.97050  0.20342  1.0000
  C   C937      1.0  0.26094  0.79208  0.16113  1.0000
  H   H739      1.0  0.35067  0.13393  0.16109  1.0000
  C   C938      1.0  0.43068  0.66943  0.21823  1.0000
  H   H740      1.0  0.27462  0.91879  0.09245  1.0000
  C   C939      1.0  0.32762  0.38161  0.00659  1.0000
  H   H741      1.0  0.49161  0.60371  0.18136  1.0000
  C   C940      1.0  0.33103  0.20487  0.13179  1.0000
  H   H742      1.0  0.37876  0.78185  0.19710  1.0000
  H   H743      1.0  0.26848  0.13707  0.10377  1.0000
  C   C941      1.0  0.29159  0.12309  0.20907  1.0000
  Fe  Fe67      1.0  0.48889  0.62273  0.10111  1.0000
  H   H744      1.0  0.25280  0.28749  0.04322  1.0000
  H   H745      1.0  0.49030  0.15352  0.08195  1.0000
  H   H746      1.0  0.43975  0.65753  0.21027  1.0000
  H   H747      1.0  0.46696  0.22165  0.07341  1.0000
  H   H748      1.0  0.34289  0.64071  0.02128  1.0000
  H   H749      1.0  0.25392  0.22341  0.13349  1.0000
  C   C942      1.0  0.42489  0.81394  0.22923  1.0000
  H   H750      1.0  0.46418  0.44814  0.04062  1.0000
  C   C943      1.0  0.48116  0.10051  0.07262  1.0000
  C   C944      1.0  0.45815  0.55734  0.02091  1.0000
  C   C945      1.0  0.48305  0.81690  0.23915  1.0000
  H   H751      1.0  0.46012  0.40629  0.01364  1.0000
  C   C946      1.0  0.26272  0.95212  0.22763  1.0000
  H   H752      1.0  0.25044  0.10361  0.03653  1.0000
  C   C947      1.0  0.38746  0.78694  0.22415  1.0000
  C   C948      1.0  0.25426  0.10814  0.00487  1.0000
  H   H753      1.0  0.48946  0.54263  0.16255  1.0000
  H   H754      1.0  0.24711  0.41992  0.07471  1.0000
  P   P33       1.0  0.24798  0.94001  0.24302  1.0000
  H   H755      1.0  0.40678  0.93235  0.22830  1.0000
  H   H756      1.0  0.27911  0.38416  0.00645  1.0000
  C   C949      1.0  0.49266  0.72604  0.03615  1.0000
  C   C950      1.0  0.25141  0.22196  0.14929  1.0000
  H   H757      1.0  0.46915  0.17444  0.00464  1.0000
  H   H758      1.0  0.26058  0.26560  0.00499  1.0000
  H   H759      1.0  0.32406  0.59596  0.99723  1.0000
  H   H760      1.0  0.26121  0.44692  0.00325  1.0000
  C   C951      1.0  0.24647  0.08619  0.18567  1.0000
  C   C952      1.0  0.24654  0.93536  0.06969  1.0000
  S   S132      1.0  0.24462  0.01457  0.11566  1.0000
  C   C953      1.0  0.24993  0.42583  0.05902  1.0000
  C   C954      1.0  0.49183  0.12159  0.07647  1.0000
  H   H761      1.0  0.24575  0.36237  0.05355  1.0000
  H   H762      1.0  0.44047  0.84091  0.24103  1.0000
  C   C955      1.0  0.42535  0.64352  0.23467  1.0000
  C   C956      1.0  0.48252  0.46816  0.02632  1.0000
  C   C957      1.0  0.34030  0.37984  0.99682  1.0000
  C   C958      1.0  0.40711  0.70020  0.23865  1.0000
  H   H763      1.0  0.26808  0.66876  0.24192  1.0000
  H   H764      1.0  0.43032  0.61144  0.23947  1.0000
  C   C959      1.0  0.49393  0.71721  0.16902  1.0000
  H   H765      1.0  0.48414  0.48702  0.03802  1.0000
  C   C960      1.0  0.25673  0.85044  0.24239  1.0000
  H   H766      1.0  0.47882  0.91957  0.24253  1.0000
  H   H767      1.0  0.49341  0.59186  0.04778  1.0000
  C   C961      1.0  0.24462  0.89157  0.06839  1.0000
  C   C962      1.0  0.38460  0.79415  0.24405  1.0000
  H   H768      1.0  0.27706  0.74792  0.37134  1.0000
  Fe  Fe68      1.0  0.25777  0.82369  0.38251  1.0000
  S   S133      1.0  0.27898  0.83671  0.38025  1.0000
  C   C963      1.0  0.26086  0.94431  0.29697  1.0000
  C   C964      1.0  0.48502  0.04386  0.27872  1.0000
  S   S134      1.0  0.26989  0.93917  0.36531  1.0000
  C   C965      1.0  0.25497  0.66044  0.45532  1.0000
  Fe  Fe69      1.0  0.27548  0.87613  0.35072  1.0000
  S   S135      1.0  0.28998  0.87678  0.32235  1.0000
  Fe  Fe70      1.0  0.27176  0.89771  0.39520  1.0000
  S   S136      1.0  0.28118  0.89884  0.42472  1.0000
  H   H769      1.0  0.26430  0.65870  0.44640  1.0000
  C   C966      1.0  0.24852  0.09585  0.40217  1.0000
  Fe  Fe71      1.0  0.48095  0.89571  0.37784  1.0000
  H   H770      1.0  0.47411  0.70697  0.26169  1.0000
  S   S137      1.0  0.46700  0.87519  0.40506  1.0000
  Fe  Fe72      1.0  0.47808  0.92803  0.33331  1.0000
  C   C967      1.0  0.28242  0.76539  0.49067  1.0000
  S   S138      1.0  0.46222  0.94412  0.31129  1.0000
  C   C968      1.0  0.24719  0.79917  0.30318  1.0000
  H   H771      1.0  0.36945  0.80588  0.26756  1.0000
  H   H772      1.0  0.25360  0.64094  0.35363  1.0000
  S   S139      1.0  0.25278  0.75670  0.39819  1.0000
  S   S140      1.0  0.48307  0.86106  0.35013  1.0000
  S   S141      1.0  0.47460  0.96128  0.36115  1.0000
  C   C969      1.0  0.46235  0.61816  0.24736  1.0000
  C   C970      1.0  0.46544  0.86532  0.47328  1.0000
  C   C971      1.0  0.47740  0.87014  0.46163  1.0000
  C   C972      1.0  0.47809  0.87426  0.44079  1.0000
  C   C973      1.0  0.46679  0.87278  0.43127  1.0000
  C   C974      1.0  0.45484  0.86794  0.44296  1.0000
  C   C975      1.0  0.45413  0.86457  0.46377  1.0000
  H   H773      1.0  0.48622  0.87029  0.46883  1.0000
  H   H774      1.0  0.45811  0.58820  0.25354  1.0000
  H   H775      1.0  0.44604  0.86659  0.43584  1.0000
  H   H776      1.0  0.44485  0.86083  0.47244  1.0000
  H   H777      1.0  0.35470  0.93284  0.48699  1.0000
  C   C976      1.0  0.25662  0.69684  0.29523  1.0000
  C   C977      1.0  0.44927  0.96099  0.27739  1.0000
  C   C978      1.0  0.46125  0.94546  0.28533  1.0000
  C   C979      1.0  0.47195  0.93141  0.27249  1.0000
  C   C980      1.0  0.47052  0.93119  0.25222  1.0000
  C   C981      1.0  0.47182  0.04780  0.28617  1.0000
  H   H778      1.0  0.44094  0.97246  0.28708  1.0000
  H   H779      1.0  0.48126  0.92061  0.27830  1.0000
  H   H780      1.0  0.26791  0.00028  0.24520  1.0000
  H   H781      1.0  0.25773  0.75599  0.35254  1.0000
  P   P34       1.0  0.34710  0.02805  0.47626  1.0000
  H   H782      1.0  0.32429  0.01453  0.45648  1.0000
  H   H783      1.0  0.45824  0.05280  0.31208  1.0000
  H   H784      1.0  0.30927  0.86800  0.25349  1.0000
  C   C982      1.0  0.29171  0.95912  0.47964  1.0000
  C   C983      1.0  0.28584  0.98614  0.46405  1.0000
  C   C984      1.0  0.28248  0.96840  0.44737  1.0000
  C   C985      1.0  0.28512  0.92312  0.44570  1.0000
  C   C986      1.0  0.29106  0.89604  0.46124  1.0000
  C   C987      1.0  0.29425  0.91370  0.47808  1.0000
  H   H785      1.0  0.25540  0.58987  0.46244  1.0000
  H   H786      1.0  0.27795  0.98994  0.43569  1.0000
  H   H787      1.0  0.29317  0.86104  0.46028  1.0000
  C   C988      1.0  0.49200  0.73776  0.29424  1.0000
  C   C989      1.0  0.29231  0.83213  0.25935  1.0000
  C   C990      1.0  0.28218  0.82040  0.27388  1.0000
  C   C991      1.0  0.28120  0.83405  0.29301  1.0000
  C   C992      1.0  0.29042  0.85967  0.29810  1.0000
  C   C993      1.0  0.30048  0.87189  0.28351  1.0000
  C   C994      1.0  0.30140  0.85848  0.26432  1.0000
  H   H788      1.0  0.27510  0.80022  0.27035  1.0000
  H   H789      1.0  0.27345  0.82418  0.30397  1.0000
  H   H790      1.0  0.30771  0.89167  0.28715  1.0000
  C   C995      1.0  0.29594  0.76229  0.48470  1.0000
  H   H791      1.0  0.29877  0.89221  0.48978  1.0000
  H   H792      1.0  0.47176  0.78096  0.33118  1.0000
  C   C996      1.0  0.35382  0.03954  0.43537  1.0000
  C   C997      1.0  0.28744  0.67090  0.34009  1.0000
  H   H793      1.0  0.27399  0.73158  0.29214  1.0000
  H   H794      1.0  0.31080  0.76301  0.46010  1.0000
  H   H795      1.0  0.37950  0.12059  0.43858  1.0000
  C   C998      1.0  0.48403  0.73929  0.31202  1.0000
  S   S142      1.0  0.25487  0.85807  0.35203  1.0000
  C   C999      1.0  0.26602  0.73263  0.34864  1.0000
  C   C1000     1.0  0.45773  0.07996  0.40509  1.0000
  C   C1001     1.0  0.46574  0.64669  0.25989  1.0000
  H   H796      1.0  0.31512  0.94765  0.45022  1.0000
  C   C1002     1.0  0.25508  0.80551  0.24464  1.0000
  H   H797      1.0  0.32578  0.17891  0.48463  1.0000
  C   C1003     1.0  0.41357  0.65888  0.24486  1.0000
  C   C1004     1.0  0.48792  0.81728  0.28746  1.0000
  H   H798      1.0  0.47504  0.85003  0.30919  1.0000
  P   P35       1.0  0.48404  0.03332  0.44554  1.0000
  H   H799      1.0  0.26907  0.92361  0.26920  1.0000
  H   H800      1.0  0.43866  0.97429  0.25128  1.0000
  H   H801      1.0  0.26300  0.77413  0.48047  1.0000
  H   H802      1.0  0.48737  0.87767  0.43211  1.0000
  H   H803      1.0  0.28110  0.71406  0.25836  1.0000
  H   H804      1.0  0.48767  0.21575  0.38884  1.0000
  S   S143      1.0  0.25063  0.88344  0.39771  1.0000
  H   H805      1.0  0.47566  0.05466  0.33428  1.0000
  C   C1005     1.0  0.24995  0.62172  0.46428  1.0000
  C   C1006     1.0  0.32906  0.98243  0.46169  1.0000
  H   H806      1.0  0.37534  0.99832  0.47582  1.0000
  C   C1007     1.0  0.46752  0.98929  0.47403  1.0000
  C   C1008     1.0  0.27698  0.72810  0.35940  1.0000
  C   C1009     1.0  0.46091  0.00043  0.40592  1.0000
  H   H807      1.0  0.25170  0.73047  0.44950  1.0000
  C   C1010     1.0  0.47024  0.06380  0.47968  1.0000
  C   C1011     1.0  0.45893  0.98504  0.49117  1.0000
  C   C1012     1.0  0.47786  0.77967  0.31735  1.0000
  H   H808      1.0  0.35918  0.04805  0.40402  1.0000
  H   H809      1.0  0.25684  0.85904  0.43651  1.0000
  C   C1013     1.0  0.24518  0.10623  0.25701  1.0000
  C   C1014     1.0  0.47977  0.81863  0.30501  1.0000
  C   C1015     1.0  0.27644  0.67496  0.32942  1.0000
  C   C1016     1.0  0.46665  0.07767  0.41932  1.0000
  C   C1017     1.0  0.37009  0.08644  0.41937  1.0000
  C   C1018     1.0  0.37145  0.00163  0.49090  1.0000
  H   H810      1.0  0.46852  0.10773  0.42474  1.0000
  C   C1019     1.0  0.27346  0.77089  0.47623  1.0000
  C   C1020     1.0  0.47301  0.03674  0.42654  1.0000
  H   H811      1.0  0.48964  0.84780  0.27837  1.0000
  C   C1021     1.0  0.36086  0.05722  0.41822  1.0000
  C   C1022     1.0  0.33498  0.11344  0.48049  1.0000
  C   C1023     1.0  0.24589  0.05388  0.39892  1.0000
  C   C1024     1.0  0.25079  0.87284  0.46612  1.0000
  C   C1025     1.0  0.32954  0.90283  0.46520  1.0000
  H   H812      1.0  0.24466  0.86755  0.29132  1.0000
  H   H813      1.0  0.27107  0.77820  0.44502  1.0000
  H   H814      1.0  0.25771  0.09996  0.40773  1.0000
  H   H815      1.0  0.29572  0.64691  0.33685  1.0000
  C   C1026     1.0  0.25339  0.66142  0.26662  1.0000
  H   H816      1.0  0.24774  0.64148  0.25947  1.0000
  H   H817      1.0  0.26986  0.93453  0.30400  1.0000
  C   C1027     1.0  0.24774  0.70145  0.45720  1.0000
  H   H818      1.0  0.37558  0.09991  0.40606  1.0000
  H   H819      1.0  0.25464  0.79102  0.29156  1.0000
  C   C1028     1.0  0.47357  0.02822  0.46842  1.0000
  C   C1029     1.0  0.46844  0.05187  0.30616  1.0000
  H   H820      1.0  0.46935  0.96216  0.46508  1.0000
  H   H821      1.0  0.47443  0.96593  0.42560  1.0000
  H   H822      1.0  0.46407  0.63897  0.27576  1.0000
  C   C1030     1.0  0.32490  0.14381  0.48753  1.0000
  C   C1031     1.0  0.33383  0.06791  0.48409  1.0000
  H   H823      1.0  0.32527  0.87364  0.46272  1.0000
  C   C1032     1.0  0.26038  0.93868  0.27718  1.0000
  H   H824      1.0  0.48740  0.03990  0.26325  1.0000
  C   C1033     1.0  0.34031  0.97882  0.47196  1.0000
  H   H825      1.0  0.29481  0.77351  0.43484  1.0000
  H   H826      1.0  0.45295  0.11161  0.39938  1.0000
  C   C1034     1.0  0.34609  0.93672  0.47890  1.0000
  H   H827      1.0  0.44798  0.04288  0.38737  1.0000
  C   C1035     1.0  0.26812  0.71202  0.28515  1.0000
  C   C1036     1.0  0.29140  0.77046  0.45041  1.0000
  C   C1037     1.0  0.25070  0.85000  0.44984  1.0000
  H   H828      1.0  0.25006  0.96521  0.32333  1.0000
  H   H829      1.0  0.48279  0.70924  0.32184  1.0000
  H   H830      1.0  0.47389  0.09540  0.47503  1.0000
  H   H831      1.0  0.28382  0.02127  0.46490  1.0000
  H   H832      1.0  0.29621  0.69448  0.36340  1.0000
  C   C1038     1.0  0.26574  0.70649  0.33338  1.0000
  H   H833      1.0  0.25300  0.02545  0.40189  1.0000
  C   C1039     1.0  0.45490  0.04133  0.39835  1.0000
  C   C1040     1.0  0.27796  0.77327  0.45620  1.0000
  C   C1041     1.0  0.46996  0.99807  0.41990  1.0000
  C   C1042     1.0  0.30038  0.76474  0.46465  1.0000
  H   H834      1.0  0.45856  0.97032  0.40099  1.0000
  H   H835      1.0  0.36714  0.08975  0.46894  1.0000
  C   C1043     1.0  0.37159  0.79990  0.25226  1.0000
  H   H836      1.0  0.34681  0.01680  0.43402  1.0000
  C   C1044     1.0  0.27221  0.70199  0.26601  1.0000
  C   C1045     1.0  0.28773  0.69760  0.35504  1.0000
  P   P36       1.0  0.25143  0.71108  0.31986  1.0000
  H   H837      1.0  0.34509  0.86654  0.48114  1.0000
  C   C1046     1.0  0.32381  0.94457  0.45816  1.0000
  C   C1047     1.0  0.37230  0.09808  0.43768  1.0000
  C   C1048     1.0  0.26485  0.67667  0.25674  1.0000
  H   H838      1.0  0.27339  0.85001  0.49038  1.0000
  C   C1049     1.0  0.35597  0.05102  0.45386  1.0000
  H   H839      1.0  0.24744  0.02664  0.34673  1.0000
  H   H840      1.0  0.39244  0.79579  0.25319  1.0000
  C   C1050     1.0  0.47824  0.05258  0.31867  1.0000
  H   H841      1.0  0.49389  0.96088  0.47467  1.0000
  C   C1051     1.0  0.48934  0.20147  0.29587  1.0000
  C   C1052     1.0  0.36527  0.08050  0.45486  1.0000
  H   H842      1.0  0.47819  0.82444  0.25322  1.0000
  H   H843      1.0  0.48136  0.19540  0.28780  1.0000
  H   H844      1.0  0.39797  0.71126  0.24670  1.0000
  H   H845      1.0  0.35121  0.80327  0.24696  1.0000
  C   C1053     1.0  0.44791  0.96179  0.25704  1.0000
  H   H846      1.0  0.49032  0.26802  0.28188  1.0000
  H   H847      1.0  0.24655  0.22486  0.33014  1.0000
  H   H848      1.0  0.40940  0.63870  0.25755  1.0000
  C   C1054     1.0  0.24969  0.96174  0.30788  1.0000
  C   C1055     1.0  0.47141  0.68497  0.25197  1.0000
  Fe  Fe73      1.0  0.24932  0.91947  0.36719  1.0000
  H   H849      1.0  0.27628  0.65329  0.31820  1.0000
  C   C1056     1.0  0.34067  0.89890  0.47558  1.0000
  H   H850      1.0  0.46421  0.04595  0.27662  1.0000
  H   H851      1.0  0.49396  0.08785  0.41013  1.0000
  H   H852      1.0  0.34358  0.12572  0.47228  1.0000
  C   C1057     1.0  0.49143  0.04879  0.31124  1.0000
  C   C1058     1.0  0.49358  0.07999  0.44207  1.0000
  C   C1059     1.0  0.24593  0.88193  0.24554  1.0000
  H   H853      1.0  0.25002  0.08973  0.26964  1.0000
  H   H854      1.0  0.25684  0.89980  0.46515  1.0000
  H   H855      1.0  0.49044  0.13717  0.31257  1.0000
  C   C1060     1.0  0.24872  0.95124  0.26803  1.0000
  C   C1061     1.0  0.24925  0.67155  0.28578  1.0000
  C   C1062     1.0  0.49393  0.77686  0.28173  1.0000
  C   C1063     1.0  0.45847  0.94607  0.24432  1.0000
  Fe  Fe74      1.0  0.30450  0.30479  0.70527  1.0000
  S   S144      1.0  0.31719  0.35832  0.69229  1.0000
  C   C1064     1.0  0.48382  0.81441  0.59580  1.0000
  Fe  Fe75      1.0  0.31328  0.24943  0.66909  1.0000
  S   S145      1.0  0.32654  0.30003  0.65473  1.0000
  S   S146      1.0  0.31191  0.18235  0.65693  1.0000
  Fe  Fe76      1.0  0.33278  0.30356  0.68489  1.0000
  S   S147      1.0  0.35441  0.29903  0.69102  1.0000
  Fe  Fe77      1.0  0.30990  0.35087  0.66326  1.0000
  S   S148      1.0  0.30439  0.41073  0.64148  1.0000
  S   S149      1.0  0.32049  0.24960  0.69930  1.0000
  S   S150      1.0  0.29633  0.30078  0.67615  1.0000
  C   C1065     1.0  0.31368  0.12897  0.49834  1.0000
  H   H856      1.0  0.29292  0.47921  0.61421  1.0000
  Fe  Fe78      1.0  0.32248  0.93283  0.56166  1.0000
  S   S151      1.0  0.31862  0.99866  0.54359  1.0000
  S   S152      1.0  0.34247  0.90225  0.57125  1.0000
  Fe  Fe79      1.0  0.29333  0.92702  0.57368  1.0000
  S   S153      1.0  0.28777  0.99338  0.55678  1.0000
  S   S154      1.0  0.27686  0.89276  0.59203  1.0000
  Fe  Fe80      1.0  0.30207  0.96860  0.53226  1.0000
  Fe  Fe81      1.0  0.30461  0.01787  0.56959  1.0000
  S   S155      1.0  0.30445  0.08755  0.58001  1.0000
  S   S156      1.0  0.30697  0.90116  0.54890  1.0000
  S   S157      1.0  0.30908  0.95306  0.58792  1.0000
  Fe  Fe82      1.0  0.44510  0.42638  0.67271  1.0000
  S   S158      1.0  0.45028  0.48386  0.68690  1.0000
  S   S159      1.0  0.46209  0.37294  0.66729  1.0000
  Fe  Fe83      1.0  0.41554  0.45407  0.67897  1.0000
  S   S160      1.0  0.41884  0.51221  0.69424  1.0000
  S   S161      1.0  0.39447  0.44717  0.67233  1.0000
  Fe  Fe84      1.0  0.43472  0.52552  0.66957  1.0000
  S   S162      1.0  0.43628  0.59894  0.65747  1.0000
  Fe  Fe85      1.0  0.43419  0.46687  0.71036  1.0000
  C   C1066     1.0  0.28545  0.36200  0.59981  1.0000
  S   S163      1.0  0.43089  0.46918  0.65354  1.0000
  S   S164      1.0  0.42952  0.40793  0.69691  1.0000
  Fe  Fe86      1.0  0.44797  0.85438  0.52360  1.0000
  S   S165      1.0  0.43398  0.91410  0.52970  1.0000
  C   C1067     1.0  0.47270  0.60471  0.60541  1.0000
  Fe  Fe87      1.0  0.43558  0.79696  0.56042  1.0000
  S   S166      1.0  0.42097  0.85382  0.56849  1.0000
  S   S167      1.0  0.43437  0.72522  0.57505  1.0000
  Fe  Fe88      1.0  0.41830  0.86760  0.53622  1.0000
  S   S168      1.0  0.39871  0.88294  0.52272  1.0000
  Fe  Fe89      1.0  0.43792  0.89542  0.56141  1.0000
  S   S169      1.0  0.43968  0.94922  0.58072  1.0000
  S   S170      1.0  0.43208  0.80871  0.52802  1.0000
  S   S171      1.0  0.45281  0.83785  0.55535  1.0000
  C   C1068     1.0  0.45478  0.97058  0.58220  1.0000
  C   C1069     1.0  0.45494  0.00659  0.59296  1.0000
  C   C1070     1.0  0.46686  0.02242  0.59563  1.0000
  C   C1071     1.0  0.47877  0.00175  0.58786  1.0000
  C   C1072     1.0  0.46665  0.95118  0.57372  1.0000
  H   H857      1.0  0.44581  0.02181  0.59957  1.0000
  H   H858      1.0  0.46688  0.04950  0.60428  1.0000
  H   H859      1.0  0.46669  0.92348  0.56541  1.0000
  C   C1073     1.0  0.43468  0.69103  0.59827  1.0000
  C   C1074     1.0  0.43512  0.70797  0.61618  1.0000
  C   C1075     1.0  0.43540  0.67939  0.63404  1.0000
  C   C1076     1.0  0.43531  0.63338  0.63439  1.0000
  C   C1077     1.0  0.43480  0.61647  0.61650  1.0000
  C   C1078     1.0  0.43447  0.64509  0.59864  1.0000
  H   H860      1.0  0.43523  0.74304  0.61632  1.0000
  H   H861      1.0  0.43580  0.69300  0.64772  1.0000
  H   H862      1.0  0.43477  0.58129  0.61640  1.0000
  H   H863      1.0  0.43411  0.63143  0.58496  1.0000
  C   C1079     1.0  0.46561  0.33462  0.64963  1.0000
  C   C1080     1.0  0.45857  0.33700  0.63311  1.0000
  C   C1081     1.0  0.46211  0.30648  0.61921  1.0000
  C   C1082     1.0  0.47267  0.27336  0.62169  1.0000
  C   C1083     1.0  0.47954  0.27056  0.63839  1.0000
  C   C1084     1.0  0.47602  0.30102  0.65227  1.0000
  H   H864      1.0  0.45055  0.36265  0.63091  1.0000
  H   H865      1.0  0.45676  0.30884  0.60633  1.0000
  C   C1085     1.0  0.26121  0.18074  0.63351  1.0000
  H   H866      1.0  0.24902  0.77124  0.60773  1.0000
  C   C1086     1.0  0.35795  0.89820  0.55724  1.0000
  C   C1087     1.0  0.35917  0.89632  0.53687  1.0000
  C   C1088     1.0  0.37173  0.89056  0.52658  1.0000
  C   C1089     1.0  0.38315  0.88689  0.53652  1.0000
  C   C1090     1.0  0.38191  0.88858  0.55690  1.0000
  C   C1091     1.0  0.36937  0.89450  0.56714  1.0000
  H   H867      1.0  0.35047  0.89900  0.52907  1.0000
  H   H868      1.0  0.37262  0.88950  0.51080  1.0000
  H   H869      1.0  0.39060  0.88558  0.56473  1.0000
  H   H870      1.0  0.36853  0.89644  0.58284  1.0000
  C   C1092     1.0  0.26780  0.74890  0.59350  1.0000
  C   C1093     1.0  0.25848  0.78053  0.60127  1.0000
  C   C1094     1.0  0.26145  0.82436  0.60080  1.0000
  C   C1095     1.0  0.27367  0.83715  0.59232  1.0000
  C   C1096     1.0  0.28296  0.80552  0.58449  1.0000
  C   C1097     1.0  0.28005  0.76159  0.58526  1.0000
  H   H871      1.0  0.30380  0.07204  0.51043  1.0000
  H   H872      1.0  0.29241  0.81483  0.57802  1.0000
  H   H873      1.0  0.28734  0.73714  0.57955  1.0000
  C   C1098     1.0  0.31012  0.15661  0.63518  1.0000
  C   C1099     1.0  0.30921  0.18039  0.61644  1.0000
  C   C1100     1.0  0.30770  0.15861  0.59989  1.0000
  C   C1101     1.0  0.30706  0.11257  0.60157  1.0000
  C   C1102     1.0  0.30827  0.08859  0.62021  1.0000
  C   C1103     1.0  0.30974  0.11042  0.63679  1.0000
  H   H874      1.0  0.30970  0.21562  0.61460  1.0000
  H   H875      1.0  0.30692  0.17778  0.58564  1.0000
  H   H876      1.0  0.30788  0.05325  0.62195  1.0000
  H   H877      1.0  0.31051  0.09128  0.65106  1.0000
  C   C1104     1.0  0.36534  0.34093  0.68613  1.0000
  C   C1105     1.0  0.36166  0.38253  0.67623  1.0000
  C   C1106     1.0  0.37071  0.41438  0.67223  1.0000
  C   C1107     1.0  0.38354  0.40538  0.67815  1.0000
  C   C1108     1.0  0.38721  0.36378  0.68812  1.0000
  C   C1109     1.0  0.37817  0.33179  0.69202  1.0000
  H   H878      1.0  0.35189  0.39005  0.67148  1.0000
  H   H879      1.0  0.36777  0.44630  0.66444  1.0000
  H   H880      1.0  0.39701  0.35622  0.69279  1.0000
  H   H881      1.0  0.38117  0.29968  0.69959  1.0000
  C   C1110     1.0  0.28789  0.43308  0.63945  1.0000
  C   C1111     1.0  0.27762  0.41807  0.65263  1.0000
  C   C1112     1.0  0.26470  0.43814  0.65110  1.0000
  C   C1113     1.0  0.26190  0.47313  0.63634  1.0000
  C   C1114     1.0  0.27212  0.48756  0.62294  1.0000
  C   C1115     1.0  0.28506  0.46769  0.62455  1.0000
  H   H882      1.0  0.27967  0.39130  0.66410  1.0000
  H   H883      1.0  0.25683  0.42661  0.66145  1.0000
  H   H884      1.0  0.27004  0.51411  0.61139  1.0000
  C   C1116     1.0  0.40126  0.66394  0.64239  1.0000
  C   C1117     1.0  0.40244  0.62826  0.63134  1.0000
  C   C1118     1.0  0.39759  0.63359  0.61283  1.0000
  C   C1119     1.0  0.39154  0.67463  0.60532  1.0000
  C   C1120     1.0  0.39042  0.71079  0.61627  1.0000
  C   C1121     1.0  0.39520  0.70499  0.63497  1.0000
  H   H885      1.0  0.46405  0.57971  0.63405  1.0000
  C   C1122     1.0  0.39355  0.88127  0.61941  1.0000
  C   C1123     1.0  0.38614  0.84872  0.61534  1.0000
  S   S172      1.0  0.26477  0.69319  0.59369  1.0000
  C   C1124     1.0  0.37257  0.76406  0.57024  1.0000
  H   H886      1.0  0.48953  0.17969  0.51085  1.0000
  H   H887      1.0  0.40534  0.65976  0.65653  1.0000
  H   H888      1.0  0.40737  0.59670  0.63701  1.0000
  H   H889      1.0  0.39872  0.60600  0.60417  1.0000
  H   H890      1.0  0.38797  0.67812  0.59086  1.0000
  H   H891      1.0  0.40640  0.24421  0.69166  1.0000
  H   H892      1.0  0.38880  0.91394  0.62155  1.0000
  H   H893      1.0  0.37573  0.85704  0.61448  1.0000
  C   C1125     1.0  0.24859  0.34380  0.63741  1.0000
  H   H894      1.0  0.36324  0.75863  0.57839  1.0000
  S   S173      1.0  0.24503  0.59969  0.58941  1.0000
  C   C1126     1.0  0.25437  0.66205  0.51675  1.0000
  C   C1127     1.0  0.38535  0.77434  0.53863  1.0000
  H   H895      1.0  0.45407  0.70892  0.53509  1.0000
  C   C1128     1.0  0.39657  0.77526  0.54823  1.0000
  C   C1129     1.0  0.26910  0.25194  0.66088  1.0000
  C   C1130     1.0  0.24655  0.66279  0.53463  1.0000
  C   C1131     1.0  0.47858  0.96636  0.57675  1.0000
  H   H896      1.0  0.30136  0.53964  0.72033  1.0000
  C   C1132     1.0  0.41532  0.39740  0.63062  1.0000
  C   C1133     1.0  0.29135  0.51354  0.69935  1.0000
  C   C1134     1.0  0.30881  0.76304  0.54669  1.0000
  C   C1135     1.0  0.27057  0.82151  0.52097  1.0000
  H   H897      1.0  0.28297  0.39064  0.58943  1.0000
  H   H898      1.0  0.25421  0.84860  0.60694  1.0000
  C   C1136     1.0  0.46485  0.86166  0.60755  1.0000
  C   C1137     1.0  0.45686  0.82846  0.60658  1.0000
  C   C1138     1.0  0.46234  0.78799  0.60045  1.0000
  C   C1139     1.0  0.47590  0.78030  0.59545  1.0000
  H   H899      1.0  0.26940  0.69128  0.49741  1.0000
  H   H900      1.0  0.27758  0.22129  0.71527  1.0000
  H   H901      1.0  0.47619  0.93892  0.51649  1.0000
  H   H902      1.0  0.41718  0.20591  0.62210  1.0000
  H   H903      1.0  0.46055  0.89331  0.61196  1.0000
  H   H904      1.0  0.44637  0.83465  0.61002  1.0000
  C   C1140     1.0  0.30160  0.31421  0.61777  1.0000
  H   H905      1.0  0.39445  0.73235  0.64370  1.0000
  H   H906      1.0  0.47125  0.71562  0.62745  1.0000
  H   H907      1.0  0.26156  0.94380  0.53156  1.0000
  C   C1141     1.0  0.49400  0.38067  0.68191  1.0000
  H   H908      1.0  0.44977  0.01584  0.51637  1.0000
  H   H909      1.0  0.25679  0.35910  0.64119  1.0000
  H   H910      1.0  0.47399  0.16504  0.54052  1.0000
  C   C1142     1.0  0.39579  0.77164  0.56881  1.0000
  C   C1143     1.0  0.26395  0.72748  0.52282  1.0000
  H   H911      1.0  0.33627  0.48138  0.73194  1.0000
  H   H912      1.0  0.32148  0.01848  0.49839  1.0000
  C   C1144     1.0  0.44905  0.16271  0.62266  1.0000
  C   C1145     1.0  0.26311  0.69387  0.51095  1.0000
  H   H913      1.0  0.48104  0.63839  0.57853  1.0000
  C   C1146     1.0  0.27498  0.22916  0.70023  1.0000
  C   C1147     1.0  0.36166  0.74855  0.63495  1.0000
  H   H914      1.0  0.40884  0.18110  0.66299  1.0000
  C   C1148     1.0  0.37991  0.99167  0.50586  1.0000
  H   H915      1.0  0.46144  0.69590  0.56840  1.0000
  C   C1149     1.0  0.26335  0.27783  0.67566  1.0000
  C   C1150     1.0  0.42787  0.35933  0.60486  1.0000
  C   C1151     1.0  0.46941  0.74938  0.52315  1.0000
  H   H916      1.0  0.37087  0.29299  0.65065  1.0000
  H   H917      1.0  0.28785  0.17522  0.68932  1.0000
  H   H918      1.0  0.25785  0.54237  0.66671  1.0000
  C   C1152     1.0  0.28733  0.47588  0.69330  1.0000
  S   S174      1.0  0.49255  0.11973  0.62690  1.0000
  H   H919      1.0  0.28218  0.47844  0.68014  1.0000
  S   S175      1.0  0.28909  0.31274  0.73237  1.0000
  H   H920      1.0  0.30372  0.65491  0.55818  1.0000
  H   H921      1.0  0.26213  0.28710  0.70650  1.0000
  C   C1153     1.0  0.29179  0.28921  0.62726  1.0000
  C   C1154     1.0  0.28494  0.58387  0.58907  1.0000
  C   C1155     1.0  0.29543  0.55921  0.57956  1.0000
  C   C1156     1.0  0.30707  0.54730  0.58861  1.0000
  C   C1157     1.0  0.30819  0.55979  0.60723  1.0000
  C   C1158     1.0  0.29752  0.58326  0.61715  1.0000
  C   C1159     1.0  0.28598  0.59588  0.60777  1.0000
  P   P37       1.0  0.29916  0.60288  0.64035  1.0000
  C   C1160     1.0  0.28374  0.60339  0.65543  1.0000
  C   C1161     1.0  0.31036  0.56596  0.65490  1.0000
  C   C1162     1.0  0.31110  0.52017  0.65432  1.0000
  C   C1163     1.0  0.31929  0.49127  0.66626  1.0000
  C   C1164     1.0  0.32662  0.50773  0.67913  1.0000
  C   C1165     1.0  0.32565  0.55319  0.68023  1.0000
  C   C1166     1.0  0.31747  0.58223  0.66827  1.0000
  C   C1167     1.0  0.27587  0.56916  0.65542  1.0000
  C   C1168     1.0  0.26404  0.56826  0.66735  1.0000
  C   C1169     1.0  0.26004  0.60140  0.67955  1.0000
  C   C1170     1.0  0.26800  0.63502  0.68009  1.0000
  C   C1171     1.0  0.27989  0.63584  0.66819  1.0000
  C   C1172     1.0  0.30430  0.65736  0.63361  1.0000
  C   C1173     1.0  0.31770  0.66304  0.62991  1.0000
  C   C1174     1.0  0.32165  0.70492  0.62334  1.0000
  C   C1175     1.0  0.31226  0.74129  0.62035  1.0000
  C   C1176     1.0  0.29892  0.73573  0.62376  1.0000
  C   C1177     1.0  0.29494  0.69382  0.62993  1.0000
  H   H922      1.0  0.27596  0.59399  0.58200  1.0000
  H   H923      1.0  0.29453  0.54953  0.56516  1.0000
  H   H924      1.0  0.31524  0.52833  0.58122  1.0000
  H   H925      1.0  0.31737  0.55103  0.61385  1.0000
  H   H926      1.0  0.27777  0.61539  0.61481  1.0000
  H   H927      1.0  0.30527  0.50655  0.64480  1.0000
  H   H928      1.0  0.31985  0.45596  0.66558  1.0000
  H   H929      1.0  0.33300  0.48516  0.68827  1.0000
  H   H930      1.0  0.33124  0.56583  0.69039  1.0000
  H   H931      1.0  0.31663  0.61724  0.66956  1.0000
  H   H932      1.0  0.27888  0.54314  0.64619  1.0000
  H   H933      1.0  0.43325  0.15165  0.60641  1.0000
  C   C1178     1.0  0.29191  0.70273  0.53991  1.0000
  H   H934      1.0  0.26485  0.66080  0.68951  1.0000
  H   H935      1.0  0.28599  0.66187  0.66890  1.0000
  H   H936      1.0  0.32509  0.63499  0.63165  1.0000
  H   H937      1.0  0.33199  0.70907  0.62028  1.0000
  H   H938      1.0  0.31526  0.77371  0.61503  1.0000
  H   H939      1.0  0.29161  0.76381  0.62118  1.0000
  H   H940      1.0  0.28454  0.68991  0.63140  1.0000
  C   C1179     1.0  0.35838  0.11095  0.53984  1.0000
  C   C1180     1.0  0.34527  0.11020  0.53649  1.0000
  C   C1181     1.0  0.33635  0.09467  0.55179  1.0000
  C   C1182     1.0  0.34049  0.07983  0.57048  1.0000
  C   C1183     1.0  0.35370  0.07968  0.57388  1.0000
  C   C1184     1.0  0.36257  0.09608  0.55852  1.0000
  P   P38       1.0  0.35889  0.06473  0.59835  1.0000
  C   C1185     1.0  0.35813  0.11678  0.60838  1.0000
  C   C1186     1.0  0.34817  0.02776  0.61268  1.0000
  C   C1187     1.0  0.34490  0.99123  0.60452  1.0000
  C   C1188     1.0  0.33655  0.96252  0.61542  1.0000
  C   C1189     1.0  0.33137  0.97004  0.63449  1.0000
  C   C1190     1.0  0.33480  0.00572  0.64288  1.0000
  C   C1191     1.0  0.34331  0.03416  0.63215  1.0000
  C   C1192     1.0  0.34591  0.13808  0.61491  1.0000
  C   C1193     1.0  0.34515  0.17864  0.62244  1.0000
  C   C1194     1.0  0.35652  0.19894  0.62299  1.0000
  C   C1195     1.0  0.36866  0.17890  0.61580  1.0000
  C   C1196     1.0  0.36947  0.13820  0.60831  1.0000
  C   C1197     1.0  0.37501  0.03399  0.59724  1.0000
  C   C1198     1.0  0.38337  0.03446  0.61209  1.0000
  C   C1199     1.0  0.39597  0.01157  0.61082  1.0000
  C   C1200     1.0  0.40016  0.98714  0.59503  1.0000
  C   C1201     1.0  0.39164  0.98460  0.58078  1.0000
  C   C1202     1.0  0.37907  0.00761  0.58195  1.0000
  H   H941      1.0  0.36530  0.12318  0.52800  1.0000
  H   H942      1.0  0.34198  0.12172  0.52207  1.0000
  H   H943      1.0  0.32613  0.09463  0.54930  1.0000
  H   H944      1.0  0.33330  0.06915  0.58227  1.0000
  H   H945      1.0  0.37270  0.09771  0.56101  1.0000
  H   H946      1.0  0.34868  0.98506  0.58966  1.0000
  H   H947      1.0  0.33396  0.93471  0.60894  1.0000
  H   H948      1.0  0.32466  0.94827  0.64271  1.0000
  H   H949      1.0  0.33078  0.01160  0.65767  1.0000
  H   H950      1.0  0.34596  0.06112  0.63911  1.0000
  H   H951      1.0  0.33693  0.12340  0.61420  1.0000
  H   H952      1.0  0.33571  0.19441  0.62785  1.0000
  H   H953      1.0  0.35585  0.23047  0.62879  1.0000
  H   H954      1.0  0.37744  0.19514  0.61591  1.0000
  H   H955      1.0  0.37891  0.12397  0.60225  1.0000
  H   H956      1.0  0.38020  0.05265  0.62458  1.0000
  H   H957      1.0  0.40252  0.01279  0.62205  1.0000
  H   H958      1.0  0.40998  0.96976  0.59390  1.0000
  H   H959      1.0  0.39482  0.96476  0.56880  1.0000
  H   H960      1.0  0.37254  0.00464  0.57097  1.0000
  C   C1203     1.0  0.26389  0.87575  0.54410  1.0000
  C   C1204     1.0  0.26384  0.90976  0.52857  1.0000
  H   H961      1.0  0.48515  0.79026  0.51576  1.0000
  H   H962      1.0  0.48141  0.29865  0.66511  1.0000
  C   C1205     1.0  0.41316  0.82974  0.61765  1.0000
  C   C1206     1.0  0.34885  0.75724  0.64362  1.0000
  P   P39       1.0  0.48256  0.72920  0.58608  1.0000
  P   P40       1.0  0.38278  0.76416  0.60661  1.0000
  H   H963      1.0  0.48616  0.00897  0.51394  1.0000
  C   C1207     1.0  0.28075  0.20328  0.68565  1.0000
  H   H964      1.0  0.44728  0.23551  0.65622  1.0000
  H   H965      1.0  0.44009  0.30809  0.66471  1.0000
  C   C1208     1.0  0.41843  0.26581  0.71129  1.0000
  C   C1209     1.0  0.29006  0.43472  0.70413  1.0000
  H   H966      1.0  0.27851  0.24201  0.59699  1.0000
  H   H967      1.0  0.30598  0.37126  0.59761  1.0000
  H   H968      1.0  0.29890  0.39900  0.72918  1.0000
  H   H969      1.0  0.48966  0.86772  0.52208  1.0000
  H   H970      1.0  0.26576  0.34504  0.60476  1.0000
  C   C1210     1.0  0.26276  0.14084  0.62525  1.0000
  C   C1211     1.0  0.27536  0.17442  0.59674  1.0000
  C   C1212     1.0  0.47168  0.68501  0.62104  1.0000
  H   H971      1.0  0.43174  0.28919  0.61105  1.0000
  C   C1213     1.0  0.47641  0.68223  0.60123  1.0000
  H   H972      1.0  0.41286  0.89715  0.62345  1.0000
  C   C1214     1.0  0.46736  0.64796  0.63283  1.0000
  P   P41       1.0  0.26608  0.26764  0.63526  1.0000
  H   H973      1.0  0.33780  0.84173  0.61031  1.0000
  H   H974      1.0  0.28281  0.19483  0.65495  1.0000
  C   C1215     1.0  0.40706  0.87181  0.62055  1.0000
  C   C1216     1.0  0.46700  0.71540  0.55697  1.0000
  H   H975      1.0  0.27149  0.10637  0.60075  1.0000
  C   C1217     1.0  0.43076  0.22361  0.64108  1.0000
  C   C1218     1.0  0.26736  0.83196  0.54036  1.0000
  H   H976      1.0  0.25690  0.75100  0.55100  1.0000
  H   H977      1.0  0.36816  0.72256  0.64210  1.0000
  C   C1219     1.0  0.36166  0.00539  0.53028  1.0000
  H   H978      1.0  0.45597  0.76308  0.59907  1.0000
  C   C1220     1.0  0.26993  0.13759  0.60695  1.0000
  C   C1221     1.0  0.42701  0.31900  0.61671  1.0000
  H   H979      1.0  0.48441  0.88109  0.60237  1.0000
  C   C1222     1.0  0.38371  0.76712  0.58000  1.0000
  H   H980      1.0  0.28927  0.54539  0.69095  1.0000
  C   C1223     1.0  0.27566  0.33644  0.60890  1.0000
  H   H981      1.0  0.40466  0.77243  0.57585  1.0000
  H   H982      1.0  0.25069  0.60129  0.68832  1.0000
  C   C1224     1.0  0.48027  0.76875  0.52726  1.0000
  C   C1225     1.0  0.39220  0.80637  0.61228  1.0000
  C   C1226     1.0  0.42703  0.20004  0.62666  1.0000
  C   C1227     1.0  0.27389  0.21434  0.60497  1.0000
  H   H983      1.0  0.41083  0.76536  0.61048  1.0000
  H   H984      1.0  0.40585  0.77977  0.53968  1.0000
  H   H985      1.0  0.31876  0.70834  0.56410  1.0000
  C   C1228     1.0  0.40582  0.79731  0.61332  1.0000
  H   H986      1.0  0.42364  0.82245  0.61829  1.0000
  C   C1229     1.0  0.47792  0.73466  0.56120  1.0000
  H   H987      1.0  0.25586  0.18247  0.64790  1.0000
  H   H988      1.0  0.39315  0.31531  0.64500  1.0000
  C   C1230     1.0  0.29837  0.77705  0.53514  1.0000
  P   P42       1.0  0.27647  0.76523  0.51648  1.0000
  C   C1231     1.0  0.48442  0.76197  0.54627  1.0000
  H   H989      1.0  0.36466  0.76775  0.54215  1.0000
  C   C1232     1.0  0.28983  0.74699  0.53167  1.0000
  C   C1233     1.0  0.36599  0.77355  0.61738  1.0000
  C   C1234     1.0  0.40279  0.24966  0.65321  1.0000
  H   H990      1.0  0.38596  0.77875  0.52265  1.0000
  C   C1235     1.0  0.37336  0.76841  0.54963  1.0000
  C   C1236     1.0  0.42965  0.28591  0.71312  1.0000
  C   C1237     1.0  0.38789  0.19322  0.66291  1.0000
  H   H991      1.0  0.34224  0.35396  0.71941  1.0000
  H   H992      1.0  0.28539  0.67898  0.53768  1.0000
  H   H993      1.0  0.29447  0.26099  0.63773  1.0000
  H   H994      1.0  0.46304  0.18212  0.64016  1.0000
  H   H995      1.0  0.48773  0.95018  0.57065  1.0000
  C   C1238     1.0  0.29691  0.43116  0.72090  1.0000
  C   C1239     1.0  0.46833  0.33425  0.72185  1.0000
  H   H996      1.0  0.36026  0.82694  0.59511  1.0000
  H   H997      1.0  0.47942  0.27962  0.70886  1.0000
  H   H998      1.0  0.46592  0.75613  0.50859  1.0000
  C   C1240     1.0  0.37505  0.99404  0.52552  1.0000
  C   C1241     1.0  0.35722  0.80710  0.60863  1.0000
  C   C1242     1.0  0.31081  0.71897  0.55487  1.0000
  C   C1243     1.0  0.34025  0.79088  0.63483  1.0000
  C   C1244     1.0  0.29841  0.35098  0.60431  1.0000
  C   C1245     1.0  0.35320  0.01582  0.51535  1.0000
  H   H999      1.0  0.36724  0.21572  0.66285  1.0000
  H   H1000     1.0  0.35772  0.00498  0.54556  1.0000
  C   C1246     1.0  0.34442  0.81562  0.61727  1.0000
  H   H1001     1.0  0.44610  0.31652  0.69754  1.0000
  H   H1002     1.0  0.38158  0.98481  0.53707  1.0000
  C   C1247     1.0  0.46277  0.72277  0.53802  1.0000
  C   C1248     1.0  0.30110  0.46876  0.72697  1.0000
  H   H1003     1.0  0.43213  0.29115  0.72755  1.0000
  C   C1249     1.0  0.48119  0.13891  0.53577  1.0000
  C   C1250     1.0  0.25612  0.72749  0.54089  1.0000
  H   H1004     1.0  0.29694  0.81141  0.52901  1.0000
  C   C1251     1.0  0.48198  0.09728  0.54669  1.0000
  C   C1252     1.0  0.24746  0.69546  0.54668  1.0000
  H   H1005     1.0  0.34562  0.73806  0.65725  1.0000
  C   C1253     1.0  0.49163  0.06414  0.54112  1.0000
  H   H1006     1.0  0.26803  0.80670  0.55275  1.0000
  C   C1254     1.0  0.33157  0.51026  0.73838  1.0000
  C   C1255     1.0  0.49286  0.18824  0.68358  1.0000
  H   H1007     1.0  0.26159  0.57046  0.73212  1.0000
  C   C1256     1.0  0.27788  0.21466  0.66608  1.0000
  C   C1257     1.0  0.27869  0.30056  0.62317  1.0000
  C   C1258     1.0  0.45629  0.01958  0.50291  1.0000
  H   H1008     1.0  0.40973  0.35738  0.65740  1.0000
  C   C1259     1.0  0.26691  0.21768  0.62354  1.0000
  H   H1009     1.0  0.46249  0.47812  0.73886  1.0000
  H   H1010     1.0  0.33036  0.79785  0.64162  1.0000
  C   C1260     1.0  0.43411  0.29521  0.67759  1.0000
  H   H1011     1.0  0.43321  0.36021  0.59038  1.0000
  H   H1012     1.0  0.34287  0.02407  0.51941  1.0000
  C   C1261     1.0  0.41518  0.25954  0.69262  1.0000
  H   H1013     1.0  0.48763  0.24514  0.64044  1.0000
  C   C1262     1.0  0.30236  0.68884  0.55148  1.0000
  C   C1263     1.0  0.42198  0.39850  0.61179  1.0000
  C   C1264     1.0  0.46778  0.60795  0.62499  1.0000
  C   C1265     1.0  0.41472  0.35734  0.64269  1.0000
  H   H1014     1.0  0.28110  0.17145  0.58269  1.0000
  S   S176      1.0  0.47690  0.23610  0.60369  1.0000
  H   H1015     1.0  0.46367  0.34720  0.70860  1.0000
  C   C1266     1.0  0.26626  0.26635  0.69524  1.0000
  H   H1016     1.0  0.46334  0.65034  0.64796  1.0000
  H   H1017     1.0  0.28699  0.40534  0.69949  1.0000
  H   H1018     1.0  0.26157  0.88351  0.55913  1.0000
  C   C1267     1.0  0.25017  0.29930  0.63385  1.0000
  C   C1268     1.0  0.48356  0.28055  0.73900  1.0000
  H   H1019     1.0  0.25864  0.11210  0.63320  1.0000
  H   H1020     1.0  0.31167  0.30551  0.62107  1.0000
  H   H1021     1.0  0.47540  0.09094  0.55991  1.0000
  C   C1269     1.0  0.29825  0.51007  0.71607  1.0000
  C   C1270     1.0  0.46580  0.35664  0.73854  1.0000
  H   H1022     1.0  0.31523  0.78662  0.54953  1.0000
  H   H1023     1.0  0.30587  0.15237  0.50384  1.0000
  H   H1024     1.0  0.45623  0.13994  0.61533  1.0000
  H   H1025     1.0  0.38626  0.15949  0.66846  1.0000
  C   C1271     1.0  0.43752  0.30024  0.69627  1.0000
  H   H1026     1.0  0.41068  0.42770  0.63601  1.0000
  H   H1027     1.0  0.48515  0.13534  0.70331  1.0000
  P   P43       1.0  0.41923  0.26599  0.65126  1.0000
  C   C1272     1.0  0.47722  0.29621  0.72204  1.0000
  C   C1273     1.0  0.45288  0.18633  0.63678  1.0000
  Fe  Fe90      1.0  0.49379  0.18087  0.60529  1.0000
  C   C1274     1.0  0.42311  0.27381  0.67559  1.0000
  C   C1275     1.0  0.40065  0.20559  0.65974  1.0000
  C   C1276     1.0  0.42039  0.31771  0.63571  1.0000
  H   H1028     1.0  0.32612  0.41989  0.71828  1.0000
  C   C1277     1.0  0.39195  0.28093  0.64962  1.0000
  C   C1278     1.0  0.37922  0.26838  0.65275  1.0000
  C   C1279     1.0  0.44384  0.21682  0.64588  1.0000
  C   C1280     1.0  0.49142  0.16177  0.70161  1.0000
  C   C1281     1.0  0.32782  0.40110  0.73239  1.0000
  C   C1282     1.0  0.31251  0.08378  0.50209  1.0000
  C   C1283     1.0  0.46187  0.05907  0.49710  1.0000
  H   H1029     1.0  0.49248  0.77876  0.54944  1.0000
  H   H1030     1.0  0.47293  0.57368  0.59936  1.0000
  H   H1031     1.0  0.42266  0.42978  0.60266  1.0000
  C   C1284     1.0  0.47715  0.64155  0.59362  1.0000
  C   C1285     1.0  0.26712  0.89995  0.50926  1.0000
  H   H1032     1.0  0.41217  0.25543  0.72433  1.0000
  H   H1033     1.0  0.34848  0.54597  0.73013  1.0000
  C   C1286     1.0  0.43612  0.16948  0.61762  1.0000
  C   C1287     1.0  0.47832  0.85471  0.60211  1.0000
  C   C1288     1.0  0.37717  0.22473  0.65962  1.0000
  S   S177      1.0  0.29583  0.98430  0.50023  1.0000
  C   C1289     1.0  0.33854  0.54705  0.73724  1.0000
  C   C1290     1.0  0.27052  0.85615  0.50545  1.0000
  C   C1291     1.0  0.49201  0.39749  0.70011  1.0000
  S   S178      1.0  0.24550  0.49721  0.63499  1.0000
  C   C1292     1.0  0.49227  0.97808  0.51669  1.0000
  S   S179      1.0  0.46526  0.86036  0.49953  1.0000
  H   H1034     1.0  0.48508  0.42641  0.70200  1.0000
  H   H1035     1.0  0.48775  0.18230  0.67131  1.0000
  H   H1036     1.0  0.45959  0.08619  0.50601  1.0000
  H   H1037     1.0  0.26735  0.92653  0.49725  1.0000
  Fe  Fe91      1.0  0.24625  0.65992  0.60470  1.0000
  H   H1038     1.0  0.48857  0.39654  0.66976  1.0000
  C   C1293     1.0  0.48657  0.93853  0.51794  1.0000
  H   H1039     1.0  0.45896  0.38631  0.73818  1.0000
  H   H1040     1.0  0.45439  0.95468  0.49540  1.0000
  H   H1041     1.0  0.25682  0.30731  0.67220  1.0000
  C   C1294     1.0  0.35806  0.01475  0.49553  1.0000
  C   C1295     1.0  0.48995  0.14710  0.51909  1.0000
  H   H1042     1.0  0.49073  0.25208  0.73865  1.0000
  C   C1296     1.0  0.33701  0.36379  0.73296  1.0000
  H   H1043     1.0  0.49219  0.03245  0.55002  1.0000
  H   H1044     1.0  0.25376  0.63635  0.50753  1.0000
  H   H1045     1.0  0.39018  0.98042  0.50236  1.0000
  H   H1046     1.0  0.24761  0.50530  0.73433  1.0000
  H   H1047     1.0  0.24750  0.47190  0.70343  1.0000
  S   S180      1.0  0.43487  0.45854  0.74419  1.0000
  H   H1048     1.0  0.30309  0.75861  0.49541  1.0000
  C   C1297     1.0  0.32255  0.05339  0.49509  1.0000
  C   C1298     1.0  0.32014  0.53670  0.98623  1.0000
  Fe  Fe92      1.0  0.27158  0.37611  0.84901  1.0000
  C   C1299     1.0  0.44108  0.55719  0.77664  1.0000
  S   S181      1.0  0.28574  0.34619  0.82420  1.0000
  Fe  Fe93      1.0  0.27104  0.40918  0.89154  1.0000
  C   C1300     1.0  0.36990  0.41649  0.99146  1.0000
  S   S182      1.0  0.28319  0.40521  0.91889  1.0000
  H   H1049     1.0  0.26082  0.56626  0.80481  1.0000
  C   C1301     1.0  0.36919  0.42645  0.95597  1.0000
  C   C1302     1.0  0.24746  0.38754  0.98727  1.0000
  C   C1303     1.0  0.25107  0.40271  0.95162  1.0000
  S   S183      1.0  0.26903  0.34388  0.88061  1.0000
  S   S184      1.0  0.27550  0.43937  0.85995  1.0000
  H   H1050     1.0  0.46087  0.29001  0.78679  1.0000
  S   S185      1.0  0.48329  0.48179  0.86028  1.0000
  H   H1051     1.0  0.27067  0.20793  0.76328  1.0000
  C   C1304     1.0  0.48426  0.94960  0.91207  1.0000
  S   S186      1.0  0.47655  0.37965  0.86020  1.0000
  Fe  Fe94      1.0  0.48302  0.43457  0.83745  1.0000
  S   S187      1.0  0.47859  0.45245  0.80491  1.0000
  Fe  Fe95      1.0  0.47848  0.42455  0.88332  1.0000
  S   S188      1.0  0.46387  0.44044  0.90994  1.0000
  H   H1052     1.0  0.43240  0.54195  0.77472  1.0000
  H   H1053     1.0  0.30079  0.41794  0.98234  1.0000
  C   C1305     1.0  0.46074  0.41075  0.93380  1.0000
  C   C1306     1.0  0.46685  0.36836  0.93910  1.0000
  C   C1307     1.0  0.46375  0.34584  0.95799  1.0000
  C   C1308     1.0  0.45459  0.36538  0.97193  1.0000
  C   C1309     1.0  0.44873  0.40824  0.96681  1.0000
  C   C1310     1.0  0.45177  0.43064  0.94786  1.0000
  H   H1054     1.0  0.47383  0.35263  0.92856  1.0000
  H   H1055     1.0  0.46841  0.31284  0.96178  1.0000
  P   P44       1.0  0.25308  0.20600  0.83309  1.0000
  H   H1056     1.0  0.44702  0.46349  0.94401  1.0000
  C   C1311     1.0  0.46658  0.45052  0.78812  1.0000
  C   C1312     1.0  0.45421  0.43641  0.79422  1.0000
  C   C1313     1.0  0.44475  0.43861  0.78053  1.0000
  H   H1057     1.0  0.35877  0.33860  0.99257  1.0000
  H   H1058     1.0  0.26295  0.35392  0.96895  1.0000
  C   C1314     1.0  0.46950  0.46492  0.76797  1.0000
  H   H1059     1.0  0.45182  0.42460  0.80955  1.0000
  H   H1060     1.0  0.43512  0.42868  0.78556  1.0000
  C   C1315     1.0  0.46012  0.46629  0.75420  1.0000
  H   H1061     1.0  0.47903  0.47575  0.76300  1.0000
  H   H1062     1.0  0.25603  0.26544  0.89605  1.0000
  H   H1063     1.0  0.47041  0.35992  0.76807  1.0000
  C   C1316     1.0  0.33620  0.45447  0.94152  1.0000
  P   P45       1.0  0.48974  0.28392  0.77746  1.0000
  P   P46       1.0  0.45928  0.58870  0.82251  1.0000
  C   C1317     1.0  0.45787  0.68026  0.82059  1.0000
  C   C1318     1.0  0.32799  0.56310  0.99399  1.0000
  H   H1064     1.0  0.29274  0.22457  0.76920  1.0000
  H   H1065     1.0  0.25587  0.12027  0.97325  1.0000
  C   C1319     1.0  0.32461  0.41199  0.92291  1.0000
  C   C1320     1.0  0.28605  0.47196  0.97595  1.0000
  C   C1321     1.0  0.27713  0.49053  0.96210  1.0000
  C   C1322     1.0  0.27600  0.47063  0.94484  1.0000
  C   C1323     1.0  0.28383  0.43160  0.94090  1.0000
  C   C1324     1.0  0.29267  0.41279  0.95485  1.0000
  C   C1325     1.0  0.29379  0.43268  0.97212  1.0000
  H   H1066     1.0  0.27106  0.52084  0.96468  1.0000
  H   H1067     1.0  0.26913  0.48587  0.93447  1.0000
  H   H1068     1.0  0.29877  0.38262  0.95222  1.0000
  C   C1326     1.0  0.46086  0.58886  0.76253  1.0000
  C   C1327     1.0  0.28849  0.32430  0.75760  1.0000
  C   C1328     1.0  0.27622  0.33527  0.76801  1.0000
  C   C1329     1.0  0.27516  0.34297  0.78810  1.0000
  C   C1330     1.0  0.28638  0.33934  0.79836  1.0000
  C   C1331     1.0  0.29864  0.32827  0.78795  1.0000
  C   C1332     1.0  0.29972  0.32122  0.76777  1.0000
  H   H1069     1.0  0.26741  0.33750  0.76050  1.0000
  H   H1070     1.0  0.26565  0.35123  0.79570  1.0000
  H   H1071     1.0  0.30741  0.32475  0.79563  1.0000
  H   H1072     1.0  0.31905  0.41007  0.91051  1.0000
  C   C1333     1.0  0.44757  0.45390  0.76046  1.0000
  H   H1073     1.0  0.48952  0.36808  0.79315  1.0000
  C   C1334     1.0  0.25722  0.30099  0.93327  1.0000
  C   C1335     1.0  0.26127  0.56850  0.74803  1.0000
  C   C1336     1.0  0.32102  0.41420  0.74988  1.0000
  C   C1337     1.0  0.27861  0.21768  0.81649  1.0000
  Fe  Fe96      1.0  0.24753  0.36744  0.87971  1.0000
  C   C1338     1.0  0.25456  0.37863  0.96935  1.0000
  Fe  Fe97      1.0  0.25362  0.45774  0.85931  1.0000
  H   H1074     1.0  0.45222  0.58754  0.86513  1.0000
  C   C1339     1.0  0.47921  0.28626  0.80011  1.0000
  H   H1075     1.0  0.27132  0.14435  0.85505  1.0000
  H   H1076     1.0  0.43283  0.61899  0.83884  1.0000
  C   C1340     1.0  0.26329  0.20413  0.79401  1.0000
  C   C1341     1.0  0.48090  0.30232  0.75600  1.0000
  H   H1077     1.0  0.40068  0.41864  0.96820  1.0000
  C   C1342     1.0  0.24923  0.57401  0.75958  1.0000
  C   C1343     1.0  0.26982  0.29213  0.93949  1.0000
  C   C1344     1.0  0.27276  0.25555  0.95320  1.0000
  C   C1345     1.0  0.26311  0.22769  0.96064  1.0000
  C   C1346     1.0  0.25520  0.24117  0.86821  1.0000
  H   H1078     1.0  0.32282  0.34474  0.93511  1.0000
  H   H1079     1.0  0.33966  0.48564  0.94322  1.0000
  C   C1347     1.0  0.27304  0.56140  0.75696  1.0000
  H   H1080     1.0  0.29486  0.47497  0.81943  1.0000
  H   H1081     1.0  0.31111  0.47764  0.79018  1.0000
  C   C1348     1.0  0.28501  0.45101  0.76912  1.0000
  C   C1349     1.0  0.33946  0.33906  0.75094  1.0000
  C   C1350     1.0  0.32507  0.49395  0.98238  1.0000
  H   H1082     1.0  0.25745  0.12362  0.81358  1.0000
  C   C1351     1.0  0.49002  0.55299  0.92861  1.0000
  H   H1083     1.0  0.25354  0.19838  0.79112  1.0000
  H   H1084     1.0  0.26604  0.44193  0.78464  1.0000
  H   H1085     1.0  0.48069  0.64906  0.96727  1.0000
  H   H1086     1.0  0.44331  0.45427  0.88218  1.0000
  C   C1352     1.0  0.31878  0.51098  0.74783  1.0000
  H   H1087     1.0  0.47259  0.60971  0.78294  1.0000
  H   H1088     1.0  0.44555  0.52847  0.89097  1.0000
  H   H1089     1.0  0.27726  0.31380  0.93368  1.0000
  H   H1090     1.0  0.28255  0.24881  0.95799  1.0000
  H   H1091     1.0  0.26565  0.19944  0.97113  1.0000
  H   H1092     1.0  0.48234  0.54054  0.80300  1.0000
  C   C1353     1.0  0.45136  0.64255  0.82685  1.0000
  C   C1354     1.0  0.26611  0.20748  0.81332  1.0000
  C   C1355     1.0  0.46327  0.28893  0.83580  1.0000
  C   C1356     1.0  0.33803  0.47742  0.98594  1.0000
  C   C1357     1.0  0.36259  0.42195  0.97497  1.0000
  C   C1358     1.0  0.30126  0.47039  0.78868  1.0000
  H   H1093     1.0  0.29773  0.23204  0.80310  1.0000
  H   H1094     1.0  0.30923  0.31233  0.76020  1.0000
  C   C1359     1.0  0.48487  0.28347  0.81802  1.0000
  S   S189      1.0  0.24797  0.52582  0.84301  1.0000
  H   H1095     1.0  0.48402  0.56938  0.97589  1.0000
  C   C1360     1.0  0.25943  0.20704  0.85650  1.0000
  C   C1361     1.0  0.44952  0.56995  0.76016  1.0000
  H   H1096     1.0  0.27226  0.45826  0.81654  1.0000
  C   C1362     1.0  0.34576  0.50391  0.99413  1.0000
  H   H1097     1.0  0.38797  0.42843  0.93888  1.0000
  C   C1363     1.0  0.32668  0.37520  0.93687  1.0000
  H   H1098     1.0  0.49061  0.68456  0.93578  1.0000
  C   C1364     1.0  0.27293  0.20966  0.77821  1.0000
  H   H1099     1.0  0.43356  0.75953  0.83327  1.0000
  H   H1100     1.0  0.43727  0.55319  0.80806  1.0000
  C   C1365     1.0  0.25111  0.13150  0.98683  1.0000
  C   C1366     1.0  0.24645  0.29564  0.82261  1.0000
  H   H1101     1.0  0.44174  0.42389  0.97734  1.0000
  H   H1102     1.0  0.27922  0.14237  0.88797  1.0000
  H   H1103     1.0  0.28086  0.22325  0.83096  1.0000
  H   H1104     1.0  0.46739  0.59865  0.74972  1.0000
  C   C1367     1.0  0.27253  0.16998  0.88244  1.0000
  S   S190      1.0  0.24988  0.39551  0.84762  1.0000
  C   C1368     1.0  0.32949  0.45146  0.92513  1.0000
  C   C1369     1.0  0.33279  0.35189  0.76845  1.0000
  H   H1105     1.0  0.32778  0.48004  0.91435  1.0000
  C   C1370     1.0  0.45346  0.54696  0.84125  1.0000
  C   C1371     1.0  0.45096  0.55556  0.86099  1.0000
  C   C1372     1.0  0.25041  0.23636  0.95438  1.0000
  H   H1106     1.0  0.24847  0.26897  0.86311  1.0000
  C   C1373     1.0  0.44401  0.56298  0.79552  1.0000
  H   H1107     1.0  0.44698  0.29416  0.81809  1.0000
  C   C1374     1.0  0.48118  0.60644  0.83966  1.0000
  P   P47       1.0  0.30963  0.46375  0.74898  1.0000
  H   H1108     1.0  0.48192  0.45017  0.94580  1.0000
  C   C1375     1.0  0.33794  0.41807  0.95598  1.0000
  H   H1109     1.0  0.46581  0.52440  0.97523  1.0000
  C   C1376     1.0  0.28540  0.21900  0.78154  1.0000
  C   C1377     1.0  0.47665  0.58538  0.82505  1.0000
  C   C1378     1.0  0.24502  0.15610  0.83615  1.0000
  H   H1110     1.0  0.48722  0.58050  0.91783  1.0000
  C   C1379     1.0  0.27936  0.45940  0.80370  1.0000
  S   S191      1.0  0.24944  0.43180  0.89140  1.0000
  H   H1111     1.0  0.47585  0.40258  0.98432  1.0000
  C   C1380     1.0  0.28822  0.22303  0.80066  1.0000
  C   C1381     1.0  0.45756  0.29105  0.81807  1.0000
  H   H1112     1.0  0.36384  0.43088  0.94300  1.0000
  C   C1382     1.0  0.26097  0.56680  0.78893  1.0000
  H   H1113     1.0  0.28196  0.55524  0.78442  1.0000
  H   H1114     1.0  0.46783  0.67722  0.81367  1.0000
  H   H1115     1.0  0.42172  0.69325  0.84339  1.0000
  C   C1383     1.0  0.27583  0.45035  0.78566  1.0000
  C   C1384     1.0  0.27289  0.56065  0.77740  1.0000
  H   H1116     1.0  0.47569  0.51316  0.92149  1.0000
  H   H1117     1.0  0.45503  0.49646  0.82167  1.0000
  C   C1385     1.0  0.45250  0.50439  0.83656  1.0000
  C   C1386     1.0  0.29775  0.46186  0.77039  1.0000
  H   H1118     1.0  0.44817  0.43830  0.84746  1.0000
  H   H1119     1.0  0.48937  0.12627  0.76901  1.0000
  H   H1120     1.0  0.33462  0.33254  0.78240  1.0000
  H   H1121     1.0  0.31012  0.54909  0.98344  1.0000
  C   C1387     1.0  0.39007  0.41957  0.97005  1.0000
  H   H1122     1.0  0.48139  0.28259  0.84952  1.0000
  C   C1388     1.0  0.44867  0.47128  0.85119  1.0000
  C   C1389     1.0  0.46550  0.28918  0.80028  1.0000
  H   H1123     1.0  0.34653  0.30993  0.75123  1.0000
  C   C1390     1.0  0.25953  0.23941  0.88695  1.0000
  C   C1391     1.0  0.43821  0.64754  0.83474  1.0000
  H   H1124     1.0  0.47988  0.20433  0.76758  1.0000
  C   C1392     1.0  0.44594  0.48028  0.87073  1.0000
  C   C1393     1.0  0.49088  0.65526  0.96607  1.0000
  C   C1394     1.0  0.26825  0.20408  0.89403  1.0000
  C   C1395     1.0  0.44716  0.52231  0.87565  1.0000
  H   H1125     1.0  0.27158  0.20310  0.90856  1.0000
  C   C1396     1.0  0.46384  0.59460  0.78141  1.0000
  C   C1397     1.0  0.38289  0.42511  0.95355  1.0000
  H   H1126     1.0  0.24611  0.05613  0.81889  1.0000
  H   H1127     1.0  0.30319  0.55097  0.76308  1.0000
  H   H1128     1.0  0.25489  0.32925  0.92258  1.0000
  C   C1398     1.0  0.26808  0.17131  0.86379  1.0000
  C   C1399     1.0  0.45561  0.58063  0.79811  1.0000
  C   C1400     1.0  0.47221  0.34126  0.75547  1.0000
  C   C1401     1.0  0.47692  0.28467  0.83578  1.0000
  C   C1402     1.0  0.48281  0.96358  0.93086  1.0000
  H   H1129     1.0  0.45716  0.29049  0.84960  1.0000
  C   C1403     1.0  0.24920  0.57405  0.78004  1.0000
  H   H1130     1.0  0.31852  0.39836  0.78169  1.0000
  C   C1404     1.0  0.29209  0.46906  0.80526  1.0000
  C   C1405     1.0  0.45149  0.72227  0.82308  1.0000
  C   C1406     1.0  0.43851  0.72694  0.83146  1.0000
  C   C1407     1.0  0.43186  0.68960  0.83721  1.0000
  C   C1408     1.0  0.47670  0.56726  0.98832  1.0000
  H   H1131     1.0  0.47566  0.94669  0.90469  1.0000
  H   H1132     1.0  0.45659  0.75125  0.81831  1.0000
  C   C1409     1.0  0.48563  0.55834  0.81384  1.0000
  H   H1133     1.0  0.25676  0.39662  0.93786  1.0000
  C   C1410     1.0  0.48955  0.19500  0.77261  1.0000
  H   H1134     1.0  0.33453  0.34945  0.96416  1.0000
  H   H1135     1.0  0.28206  0.44275  0.75551  1.0000
  C   C1411     1.0  0.33331  0.37813  0.95335  1.0000
  H   H1136     1.0  0.47439  0.62609  0.84903  1.0000
  C   C1412     1.0  0.46641  0.54153  0.98794  1.0000
  H   H1137     1.0  0.31876  0.47418  0.97638  1.0000
  H   H1138     1.0  0.25652  0.29951  0.82477  1.0000
  H   H1139     1.0  0.47308  0.97141  0.93806  1.0000
  C   C1413     1.0  0.32362  0.38939  0.76795  1.0000
  C   C1414     1.0  0.48351  0.51507  0.93066  1.0000
  C   C1415     1.0  0.48714  0.47924  0.94438  1.0000
  P   P48       1.0  0.34488  0.42433  0.97851  1.0000
  C   C1416     1.0  0.24757  0.27335  0.94068  1.0000
  C   C1417     1.0  0.24923  0.12138  0.82471  1.0000
  C   C1418     1.0  0.38357  0.41535  0.98899  1.0000
  H   H1140     1.0  0.31559  0.61549  0.76107  1.0000
  C   C1419     1.0  0.32004  0.58612  0.75468  1.0000
  C   C1420     1.0  0.31304  0.54936  0.75586  1.0000
  H   H1141     1.0  0.44733  0.56449  0.74559  1.0000
  H   H1142     1.0  0.28226  0.55676  0.74801  1.0000
  H   H1143     1.0  0.49278  0.97887  0.95480  1.0000
  C   C1421     1.0  0.33279  0.58494  0.74541  1.0000
  C   C1422     1.0  0.49390  0.96775  0.94029  1.0000
  H   H1144     1.0  0.33826  0.61328  0.74465  1.0000
  Fe  Fe98      1.0  0.51642  0.64319  0.08392  1.0000
  H   H1145     1.0  0.50605  0.67223  0.02675  1.0000
  S   S192      1.0  0.52991  0.62734  0.05611  1.0000
  Fe  Fe99      1.0  0.51097  0.61716  0.12936  1.0000
  H   H1146     1.0  0.49925  0.79287  0.18747  1.0000
  S   S193      1.0  0.51648  0.57993  0.15939  1.0000
  C   C1423     1.0  0.60952  0.63293  0.22135  1.0000
  C   C1424     1.0  0.49473  0.79927  0.20195  1.0000
  H   H1147     1.0  0.72824  0.49023  0.12900  1.0000
  C   C1425     1.0  0.52251  0.53009  0.01812  1.0000
  S   S194      1.0  0.50866  0.58362  0.10243  1.0000
  S   S195      1.0  0.52034  0.67327  0.11100  1.0000
  H   H1148     1.0  0.51285  0.11779  0.07634  1.0000
  S   S196      1.0  0.71848  0.69662  0.09791  1.0000
  H   H1149     1.0  0.72273  0.43846  0.06155  1.0000
  H   H1150     1.0  0.50025  0.48296  0.00878  1.0000
  S   S197      1.0  0.72915  0.59328  0.10654  1.0000
  H   H1151     1.0  0.69281  0.70723  0.00697  1.0000
  Fe  Fe100     1.0  0.72333  0.63920  0.07956  1.0000
  S   S198      1.0  0.70918  0.62562  0.05727  1.0000
  Fe  Fe101     1.0  0.72617  0.65234  0.12407  1.0000
  S   S199      1.0  0.71864  0.64189  0.15737  1.0000
  H   H1152     1.0  0.54924  0.80695  0.17779  1.0000
  H   H1153     1.0  0.52492  0.04137  0.24107  1.0000
  C   C1426     1.0  0.70891  0.51254  0.21483  1.0000
  H   H1154     1.0  0.71494  0.82256  0.21075  1.0000
  H   H1155     1.0  0.72500  0.90488  0.11886  1.0000
  C   C1427     1.0  0.71351  0.76177  0.00247  1.0000
  H   H1156     1.0  0.61970  0.62527  0.22437  1.0000
  C   C1428     1.0  0.51342  0.55970  0.00807  1.0000
  C   C1429     1.0  0.72177  0.59788  0.02161  1.0000
  C   C1430     1.0  0.70996  0.61113  0.03244  1.0000
  C   C1431     1.0  0.69822  0.61271  0.02334  1.0000
  C   C1432     1.0  0.50145  0.57470  0.03928  1.0000
  C   C1433     1.0  0.74259  0.61483  0.21702  1.0000
  H   H1157     1.0  0.73092  0.59642  0.02818  1.0000
  H   H1158     1.0  0.68899  0.62275  0.03142  1.0000
  H   H1159     1.0  0.64062  0.48538  0.21506  1.0000
  C   C1434     1.0  0.70198  0.72367  0.20909  1.0000
  C   C1435     1.0  0.70431  0.74479  0.18975  1.0000
  C   C1436     1.0  0.70933  0.72065  0.17381  1.0000
  C   C1437     1.0  0.71209  0.67467  0.17684  1.0000
  C   C1438     1.0  0.70954  0.65343  0.19611  1.0000
  C   C1439     1.0  0.70450  0.67756  0.21207  1.0000
  H   H1160     1.0  0.70220  0.78027  0.18703  1.0000
  H   H1161     1.0  0.71089  0.73768  0.15914  1.0000
  H   H1162     1.0  0.71158  0.61797  0.19869  1.0000
  H   H1163     1.0  0.70257  0.66050  0.22668  1.0000
  P   P49       1.0  0.58118  0.73811  0.22494  1.0000
  C   C1440     1.0  0.66874  0.68775  0.23604  1.0000
  H   H1164     1.0  0.53188  0.54959  0.22603  1.0000
  H   H1165     1.0  0.54095  0.86227  0.22916  1.0000
  C   C1441     1.0  0.51282  0.68023  0.19445  1.0000
  H   H1166     1.0  0.52533  0.99309  0.21487  1.0000
  H   H1167     1.0  0.71612  0.77208  0.11843  1.0000
  C   C1442     1.0  0.54353  0.59538  0.20775  1.0000
  C   C1443     1.0  0.54531  0.61873  0.18876  1.0000
  C   C1444     1.0  0.53720  0.61450  0.17381  1.0000
  C   C1445     1.0  0.52707  0.58704  0.17764  1.0000
  C   C1446     1.0  0.52528  0.56380  0.19666  1.0000
  C   C1447     1.0  0.53339  0.56797  0.21160  1.0000
  H   H1168     1.0  0.55309  0.64001  0.18551  1.0000
  H   H1169     1.0  0.53883  0.63230  0.15927  1.0000
  H   H1170     1.0  0.51758  0.54218  0.19983  1.0000
  S   S200      1.0  0.74374  0.78142  0.07972  1.0000
  H   H1171     1.0  0.70877  0.83291  0.99867  1.0000
  C   C1448     1.0  0.53499  0.72882  0.01182  1.0000
  C   C1449     1.0  0.53103  0.70492  0.03003  1.0000
  C   C1450     1.0  0.53394  0.65902  0.03301  1.0000
  C   C1451     1.0  0.54060  0.63739  0.01732  1.0000
  C   C1452     1.0  0.50298  0.58286  0.01862  1.0000
  H   H1172     1.0  0.53291  0.76438  0.00990  1.0000
  H   H1173     1.0  0.52600  0.72213  0.04192  1.0000
  H   H1174     1.0  0.54295  0.60194  0.01946  1.0000
  C   C1453     1.0  0.54084  0.75889  0.19959  1.0000
  C   C1454     1.0  0.71727  0.72534  0.01596  1.0000
  S   S201      1.0  0.69587  0.75657  0.22871  1.0000
  H   H1175     1.0  0.70397  0.34612  0.15511  1.0000
  C   C1455     1.0  0.71833  0.77369  0.04090  1.0000
  C   C1456     1.0  0.71957  0.84004  0.11705  1.0000
  C   C1457     1.0  0.49968  0.67295  0.19927  1.0000
  H   H1176     1.0  0.50941  0.53938  0.06522  1.0000
  C   C1458     1.0  0.73094  0.80977  0.18858  1.0000
  H   H1177     1.0  0.67058  0.73079  0.20881  1.0000
  C   C1459     1.0  0.73372  0.48078  0.14178  1.0000
  C   C1460     1.0  0.73202  0.50824  0.15684  1.0000
  C   C1461     1.0  0.52034  0.98420  0.22928  1.0000
  C   C1462     1.0  0.63231  0.51698  0.24047  1.0000
  C   C1463     1.0  0.72762  0.29144  0.12613  1.0000
  C   C1464     1.0  0.72173  0.37221  0.14164  1.0000
  C   C1465     1.0  0.60277  0.60054  0.21559  1.0000
  C   C1466     1.0  0.71185  0.80423  0.00859  1.0000
  C   C1467     1.0  0.56545  0.74642  0.21477  1.0000
  C   C1468     1.0  0.74249  0.44199  0.14318  1.0000
  H   H1178     1.0  0.73053  0.67704  0.21742  1.0000
  C   C1469     1.0  0.73077  0.77926  0.22293  1.0000
  H   H1179     1.0  0.67719  0.59201  0.20349  1.0000
  C   C1470     1.0  0.58960  0.61027  0.21200  1.0000
  C   C1471     1.0  0.71600  0.29940  0.13821  1.0000
  C   C1472     1.0  0.73648  0.85470  0.13653  1.0000
  H   H1180     1.0  0.71920  0.40346  0.14757  1.0000
  C   C1473     1.0  0.73921  0.80922  0.14238  1.0000
  H   H1181     1.0  0.72268  0.70306  0.04528  1.0000
  C   C1474     1.0  0.60303  0.67476  0.22392  1.0000
  C   C1475     1.0  0.54186  0.70735  0.99625  1.0000
  H   H1182     1.0  0.51392  0.92517  0.22113  1.0000
  H   H1183     1.0  0.72557  0.53888  0.15533  1.0000
  C   C1476     1.0  0.56318  0.77730  0.19822  1.0000
  H   H1184     1.0  0.73110  0.51150  0.05260  1.0000
  C   C1477     1.0  0.55090  0.78349  0.19071  1.0000
  C   C1478     1.0  0.54450  0.66129  0.99905  1.0000
  S   S202      1.0  0.55415  0.60226  0.22596  1.0000
  H   H1185     1.0  0.74214  0.00369  0.99716  1.0000
  H   H1186     1.0  0.68907  0.60209  0.99745  1.0000
  C   C1479     1.0  0.52106  0.52276  0.03871  1.0000
  H   H1187     1.0  0.53601  0.40256  0.02061  1.0000
  Fe  Fe102     1.0  0.73956  0.71035  0.08978  1.0000
  H   H1188     1.0  0.60769  0.56787  0.21402  1.0000
  H   H1189     1.0  0.67584  0.66936  0.18806  1.0000
  H   H1190     1.0  0.52823  0.50065  0.04661  1.0000
  H   H1191     1.0  0.71291  0.84276  0.03246  1.0000
  C   C1480     1.0  0.73173  0.77952  0.13587  1.0000
  H   H1192     1.0  0.58426  0.58525  0.20759  1.0000
  C   C1481     1.0  0.71304  0.33981  0.14591  1.0000
  C   C1482     1.0  0.64259  0.50327  0.22688  1.0000
  H   H1193     1.0  0.51064  0.62510  0.23872  1.0000
  C   C1483     1.0  0.73391  0.49079  0.06583  1.0000
  C   C1484     1.0  0.59168  0.77856  0.21298  1.0000
  C   C1485     1.0  0.73386  0.64634  0.22596  1.0000
  H   H1194     1.0  0.52023  0.66447  0.20387  1.0000
  C   C1486     1.0  0.71976  0.73137  0.03501  1.0000
  H   H1195     1.0  0.72588  0.82990  0.17701  1.0000
  C   C1487     1.0  0.65534  0.51330  0.22833  1.0000
  C   C1488     1.0  0.72917  0.44968  0.07095  1.0000
  C   C1489     1.0  0.59815  0.77306  0.19425  1.0000
  C   C1490     1.0  0.60646  0.80376  0.18492  1.0000
  C   C1491     1.0  0.60838  0.84014  0.19422  1.0000
  C   C1492     1.0  0.60195  0.84592  0.21283  1.0000
  C   C1493     1.0  0.59360  0.81532  0.22219  1.0000
  C   C1494     1.0  0.58965  0.68437  0.22096  1.0000
  C   C1495     1.0  0.58312  0.65211  0.21443  1.0000
  S   S203      1.0  0.49610  0.77700  0.11858  1.0000
  H   H1196     1.0  0.60841  0.69924  0.22858  1.0000
  H   H1197     1.0  0.57301  0.65876  0.21125  1.0000
  H   H1198     1.0  0.73777  0.51859  0.18500  1.0000
  C   C1496     1.0  0.72175  0.58575  0.00232  1.0000
  H   H1199     1.0  0.51090  0.76585  0.21700  1.0000
  C   C1497     1.0  0.73258  0.42337  0.08823  1.0000
  C   C1498     1.0  0.51046  0.54467  0.04925  1.0000
  C   C1499     1.0  0.73348  0.36428  0.12967  1.0000
  H   H1200     1.0  0.71834  0.69219  0.01172  1.0000
  C   C1500     1.0  0.67094  0.69683  0.21557  1.0000
  H   H1201     1.0  0.55680  0.69761  0.23627  1.0000
  H   H1202     1.0  0.53076  0.51325  0.00997  1.0000
  H   H1203     1.0  0.59679  0.74490  0.18689  1.0000
  H   H1204     1.0  0.61149  0.79918  0.17051  1.0000
  H   H1205     1.0  0.61491  0.86374  0.18704  1.0000
  H   H1206     1.0  0.60351  0.87398  0.22009  1.0000
  C   C1501     1.0  0.51657  0.70505  0.17672  1.0000
  C   C1502     1.0  0.71426  0.81007  0.02774  1.0000
  C   C1503     1.0  0.52497  0.82565  0.24214  1.0000
  H   H1207     1.0  0.72029  0.77809  0.05572  1.0000
  C   C1504     1.0  0.72684  0.86991  0.12368  1.0000
  H   H1208     1.0  0.52685  0.70844  0.17238  1.0000
  C   C1505     1.0  0.72190  0.79502  0.12337  1.0000
  H   H1209     1.0  0.71214  0.85167  0.10701  1.0000
  C   C1506     1.0  0.72470  0.80589  0.20773  1.0000
  C   C1507     1.0  0.69841  0.53850  0.22363  1.0000
  C   C1508     1.0  0.73882  0.49670  0.17363  1.0000
  H   H1210     1.0  0.58878  0.82031  0.23665  1.0000
  C   C1509     1.0  0.67396  0.66219  0.20391  1.0000
  C   C1510     1.0  0.54302  0.72803  0.21602  1.0000
  S   S204      1.0  0.74383  0.65604  0.07011  1.0000
  H   H1211     1.0  0.51684  0.04461  0.06374  1.0000
  H   H1212     1.0  0.72990  0.26021  0.12006  1.0000
  C   C1511     1.0  0.50135  0.78451  0.21873  1.0000
  H   H1213     1.0  0.70927  0.27432  0.14150  1.0000
  C   C1512     1.0  0.69822  0.60112  0.00396  1.0000
  H   H1214     1.0  0.73343  0.87763  0.03510  1.0000
  C   C1513     1.0  0.67491  0.61845  0.21275  1.0000
  H   H1215     1.0  0.53142  0.76342  0.19357  1.0000
  C   C1514     1.0  0.67306  0.60919  0.23337  1.0000
  C   C1515     1.0  0.74337  0.88339  0.02952  1.0000
  C   C1516     1.0  0.73630  0.32380  0.12179  1.0000
  H   H1216     1.0  0.51018  0.74172  0.15007  1.0000
  C   C1517     1.0  0.51392  0.94592  0.23278  1.0000
  H   H1217     1.0  0.51352  0.40477  0.01120  1.0000
  H   H1218     1.0  0.72869  0.39188  0.09188  1.0000
  C   C1518     1.0  0.50715  0.72351  0.16405  1.0000
  H   H1219     1.0  0.52333  0.81549  0.22820  1.0000
  H   H1220     1.0  0.57083  0.79652  0.19101  1.0000
  H   H1221     1.0  0.73337  0.74445  0.14045  1.0000
  C   C1519     1.0  0.65793  0.53625  0.24370  1.0000
  H   H1222     1.0  0.69722  0.41230  0.22528  1.0000
  H   H1223     1.0  0.69908  0.57344  0.22357  1.0000
  H   H1224     1.0  0.71740  0.52782  0.20768  1.0000
  H   H1225     1.0  0.72568  0.77558  0.23763  1.0000
  C   C1520     1.0  0.74075  0.43823  0.10063  1.0000
  C   C1521     1.0  0.52107  0.41676  0.00031  1.0000
  C   C1522     1.0  0.55523  0.72204  0.22365  1.0000
  C   C1523     1.0  0.68695  0.47359  0.23349  1.0000
  H   H1226     1.0  0.53540  0.70791  0.22268  1.0000
  H   H1227     1.0  0.74182  0.94835  0.03899  1.0000
  H   H1228     1.0  0.49939  0.70079  0.23949  1.0000
  C   C1524     1.0  0.50466  0.10146  0.07326  1.0000
  C   C1525     1.0  0.50691  0.06028  0.06614  1.0000
  C   C1526     1.0  0.74338  0.78704  0.18451  1.0000
  H   H1229     1.0  0.74280  0.70161  0.17093  1.0000
  C   C1527     1.0  0.74220  0.50541  0.07789  1.0000
  C   C1528     1.0  0.70845  0.46713  0.21526  1.0000
  H   H1230     1.0  0.49807  0.00732  0.05662  1.0000
  C   C1529     1.0  0.69751  0.44761  0.22471  1.0000
  H   H1231     1.0  0.71659  0.44707  0.20835  1.0000
  H   H1232     1.0  0.67172  0.67927  0.00442  1.0000
  Fe  Fe103     1.0  0.49959  0.70677  0.11011  1.0000
  C   C1530     1.0  0.68720  0.51942  0.23255  1.0000
  C   C1531     1.0  0.49634  0.03928  0.06211  1.0000
  C   C1532     1.0  0.49567  0.79374  0.23752  1.0000
  H   H1233     1.0  0.74178  0.87855  0.14183  1.0000
  H   H1234     1.0  0.62240  0.50952  0.23935  1.0000
  H   H1235     1.0  0.67866  0.45792  0.24109  1.0000
  C   C1533     1.0  0.74323  0.75701  0.21908  1.0000
  H   H1236     1.0  0.66306  0.50380  0.21725  1.0000
  H   H1237     1.0  0.49711  0.65098  0.21232  1.0000
  C   C1534     1.0  0.49598  0.68724  0.02726  1.0000
  H   H1238     1.0  0.50012  0.74045  0.04247  1.0000
  S   S205      1.0  0.49650  0.68103  0.08188  1.0000
  C   C1535     1.0  0.53386  0.41495  0.00566  1.0000
  C   C1536     1.0  0.53506  0.85213  0.24263  1.0000
  C   C1537     1.0  0.52008  0.01152  0.24420  1.0000
  H   H1239     1.0  0.55379  0.42729  0.99586  1.0000
  H   H1240     1.0  0.73095  0.57498  0.99434  1.0000
  Fe  Fe104     1.0  0.56002  0.58255  0.25780  1.0000
  S   S206      1.0  0.56535  0.63980  0.27195  1.0000
  H   H1241     1.0  0.49875  0.25827  0.40946  1.0000
  Fe  Fe105     1.0  0.56733  0.51612  0.29451  1.0000
  S   S207      1.0  0.57305  0.56986  0.31052  1.0000
  S   S208      1.0  0.57066  0.44201  0.30604  1.0000
  Fe  Fe106     1.0  0.55467  0.60933  0.29974  1.0000
  S   S209      1.0  0.53749  0.64042  0.31904  1.0000
  Fe  Fe107     1.0  0.58331  0.59610  0.28143  1.0000
  S   S210      1.0  0.60424  0.61626  0.27295  1.0000
  S   S211      1.0  0.54848  0.55401  0.28522  1.0000
  S   S212      1.0  0.57860  0.54034  0.26577  1.0000
  Fe  Fe108     1.0  0.55415  0.25098  0.39856  1.0000
  S   S213      1.0  0.56951  0.19586  0.39073  1.0000
  S   S214      1.0  0.54714  0.31613  0.38025  1.0000
  Fe  Fe109     1.0  0.54782  0.20380  0.44102  1.0000
  S   S215      1.0  0.56321  0.14674  0.43630  1.0000
  S   S216      1.0  0.53211  0.21016  0.46710  1.0000
  Fe  Fe110     1.0  0.57614  0.19745  0.42090  1.0000
  S   S217      1.0  0.59757  0.20673  0.42348  1.0000
  Fe  Fe111     1.0  0.55537  0.14922  0.40660  1.0000
  S   S218      1.0  0.55215  0.08268  0.39745  1.0000
  S   S219      1.0  0.56129  0.25482  0.42806  1.0000
  S   S220      1.0  0.53947  0.20377  0.41196  1.0000
  Fe  Fe112     1.0  0.67147  0.71305  0.29724  1.0000
  S   S221      1.0  0.67408  0.77999  0.28038  1.0000
  S   S222      1.0  0.65151  0.68849  0.30914  1.0000
  Fe  Fe113     1.0  0.70113  0.69200  0.30004  1.0000
  S   S223      1.0  0.70528  0.75762  0.28333  1.0000
  S   S224      1.0  0.71965  0.64636  0.30664  1.0000
  Fe  Fe114     1.0  0.68824  0.78756  0.30279  1.0000
  S   S225      1.0  0.68890  0.85326  0.31664  1.0000
  Fe  Fe115     1.0  0.69104  0.74407  0.26264  1.0000
  H   H1242     1.0  0.58190  0.25233  0.45573  1.0000
  S   S226      1.0  0.68488  0.72220  0.32032  1.0000
  S   S227      1.0  0.68766  0.67734  0.27857  1.0000
  Fe  Fe116     1.0  0.69276  0.11161  0.40857  1.0000
  S   S228      1.0  0.70710  0.05306  0.41724  1.0000
  S   S229      1.0  0.69768  0.17409  0.38879  1.0000
  Fe  Fe117     1.0  0.66939  0.06982  0.43137  1.0000
  S   S230      1.0  0.68258  0.00922  0.44203  1.0000
  S   S231      1.0  0.64738  0.06711  0.44013  1.0000
  Fe  Fe118     1.0  0.69660  0.05672  0.44800  1.0000
  H   H1243     1.0  0.51342  0.68797  0.33363  1.0000
  Fe  Fe119     1.0  0.69174  0.01087  0.41036  1.0000
  S   S232      1.0  0.69471  0.94488  0.39549  1.0000
  S   S233      1.0  0.68281  0.11664  0.43920  1.0000
  S   S234      1.0  0.67807  0.07003  0.39996  1.0000
  C   C1538     1.0  0.50867  0.15182  0.43622  1.0000
  C   C1539     1.0  0.52983  0.66412  0.26829  1.0000
  C   C1540     1.0  0.72339  0.17362  0.39729  1.0000
  C   C1541     1.0  0.71241  0.19803  0.38953  1.0000
  C   C1542     1.0  0.71326  0.24218  0.38149  1.0000
  C   C1543     1.0  0.72492  0.26206  0.38156  1.0000
  C   C1544     1.0  0.50580  0.13108  0.45518  1.0000
  H   H1244     1.0  0.72292  0.13948  0.40332  1.0000
  H   H1245     1.0  0.70481  0.26120  0.37539  1.0000
  C   C1545     1.0  0.69005  0.87799  0.33899  1.0000
  C   C1546     1.0  0.69104  0.92379  0.33774  1.0000
  C   C1547     1.0  0.69228  0.94479  0.35467  1.0000
  C   C1548     1.0  0.69256  0.92055  0.37341  1.0000
  C   C1549     1.0  0.69143  0.87479  0.37469  1.0000
  C   C1550     1.0  0.69008  0.85383  0.35779  1.0000
  H   H1246     1.0  0.69100  0.94325  0.32346  1.0000
  H   H1247     1.0  0.69335  0.97964  0.35310  1.0000
  H   H1248     1.0  0.69148  0.85532  0.38896  1.0000
  H   H1249     1.0  0.68896  0.81899  0.35938  1.0000
  C   C1551     1.0  0.72087  0.59928  0.32440  1.0000
  C   C1552     1.0  0.70985  0.58400  0.33563  1.0000
  C   C1553     1.0  0.71126  0.54584  0.34932  1.0000
  C   C1554     1.0  0.72367  0.52249  0.35177  1.0000
  C   C1555     1.0  0.73469  0.53798  0.34062  1.0000
  C   C1556     1.0  0.73328  0.57623  0.32704  1.0000
  H   H1250     1.0  0.70025  0.60147  0.33369  1.0000
  H   H1251     1.0  0.70268  0.53418  0.35795  1.0000
  C   C1557     1.0  0.53039  0.09724  0.27034  1.0000
  C   C1558     1.0  0.53462  0.05698  0.45575  1.0000
  C   C1559     1.0  0.61128  0.16660  0.42714  1.0000
  C   C1560     1.0  0.60984  0.12254  0.43429  1.0000
  C   C1561     1.0  0.62102  0.09238  0.43776  1.0000
  C   C1562     1.0  0.63375  0.10576  0.43403  1.0000
  C   C1563     1.0  0.63519  0.14966  0.42664  1.0000
  C   C1564     1.0  0.62400  0.17993  0.42337  1.0000
  H   H1252     1.0  0.60013  0.11187  0.43744  1.0000
  H   H1253     1.0  0.61980  0.05856  0.44361  1.0000
  H   H1254     1.0  0.64489  0.16049  0.42382  1.0000
  H   H1255     1.0  0.62522  0.21398  0.41793  1.0000
  C   C1565     1.0  0.51483  0.05118  0.37285  1.0000
  C   C1566     1.0  0.51662  0.09504  0.37480  1.0000
  C   C1567     1.0  0.52782  0.10509  0.38279  1.0000
  C   C1568     1.0  0.53747  0.07137  0.38857  1.0000
  C   C1569     1.0  0.53568  0.02746  0.38662  1.0000
  C   C1570     1.0  0.52437  0.01734  0.37895  1.0000
  H   H1256     1.0  0.50931  0.12140  0.37012  1.0000
  H   H1257     1.0  0.52905  0.13896  0.38427  1.0000
  H   H1258     1.0  0.54310  0.00114  0.39100  1.0000
  C   C1571     1.0  0.56429  0.40863  0.32743  1.0000
  C   C1572     1.0  0.57096  0.36679  0.33293  1.0000
  C   C1573     1.0  0.56605  0.33841  0.34922  1.0000
  C   C1574     1.0  0.55426  0.35121  0.36011  1.0000
  C   C1575     1.0  0.54761  0.39306  0.35462  1.0000
  C   C1576     1.0  0.55259  0.42160  0.33847  1.0000
  H   H1259     1.0  0.57998  0.35615  0.32449  1.0000
  H   H1260     1.0  0.57131  0.30644  0.35319  1.0000
  H   H1261     1.0  0.53847  0.40340  0.36285  1.0000
  H   H1262     1.0  0.54718  0.45316  0.33429  1.0000
  C   C1577     1.0  0.61680  0.63900  0.28326  1.0000
  C   C1578     1.0  0.62794  0.65077  0.27087  1.0000
  C   C1579     1.0  0.63846  0.66696  0.27838  1.0000
  C   C1580     1.0  0.63814  0.67091  0.29852  1.0000
  C   C1581     1.0  0.62688  0.65989  0.31085  1.0000
  C   C1582     1.0  0.61623  0.64453  0.30327  1.0000
  H   H1263     1.0  0.62848  0.64726  0.25532  1.0000
  H   H1264     1.0  0.64681  0.67638  0.26860  1.0000
  H   H1265     1.0  0.62641  0.66322  0.32642  1.0000
  H   H1266     1.0  0.60765  0.63649  0.31294  1.0000
  C   C1583     1.0  0.53323  0.69724  0.32165  1.0000
  C   C1584     1.0  0.54236  0.72794  0.31673  1.0000
  C   C1585     1.0  0.53898  0.77215  0.32045  1.0000
  C   C1586     1.0  0.52637  0.78636  0.32879  1.0000
  C   C1587     1.0  0.51708  0.75598  0.33314  1.0000
  C   C1588     1.0  0.52055  0.71154  0.32973  1.0000
  H   H1267     1.0  0.55215  0.71704  0.31075  1.0000
  H   H1268     1.0  0.54624  0.79533  0.31727  1.0000
  H   H1269     1.0  0.50733  0.76648  0.33949  1.0000
  H   H1270     1.0  0.52814  0.20556  0.25136  1.0000
  H   H1271     1.0  0.53798  0.65319  0.27698  1.0000
  C   C1589     1.0  0.73562  0.49709  0.27866  1.0000
  H   H1272     1.0  0.62671  0.55274  0.26560  1.0000
  H   H1273     1.0  0.59639  0.70568  0.25904  1.0000
  C   C1590     1.0  0.71413  0.46417  0.30205  1.0000
  H   H1274     1.0  0.51692  0.93622  0.40917  1.0000
  H   H1275     1.0  0.64902  0.57150  0.26807  1.0000
  C   C1591     1.0  0.73611  0.34044  0.31191  1.0000
  C   C1592     1.0  0.74288  0.56752  0.24823  1.0000
  P   P50       1.0  0.51202  0.03691  0.28180  1.0000
  C   C1593     1.0  0.50265  0.97857  0.42520  1.0000
  H   H1276     1.0  0.70876  0.17343  0.46294  1.0000
  C   C1594     1.0  0.73000  0.65736  0.38646  1.0000
  H   H1277     1.0  0.50845  0.15043  0.33127  1.0000
  C   C1595     1.0  0.68081  0.69226  0.39662  1.0000
  H   H1278     1.0  0.65961  0.26691  0.46980  1.0000
  H   H1279     1.0  0.68107  0.28429  0.47785  1.0000
  H   H1280     1.0  0.55736  0.31249  0.29674  1.0000
  C   C1596     1.0  0.71840  0.30799  0.33253  1.0000
  S   S235      1.0  0.50228  0.90796  0.37545  1.0000
  P   P51       1.0  0.70777  0.26984  0.45805  1.0000
  C   C1597     1.0  0.70961  0.32204  0.44315  1.0000
  C   C1598     1.0  0.72049  0.22705  0.45172  1.0000
  H   H1281     1.0  0.54562  0.38538  0.30241  1.0000
  C   C1599     1.0  0.50969  0.21749  0.31733  1.0000
  P   P52       1.0  0.50463  0.77609  0.25910  1.0000
  C   C1600     1.0  0.73296  0.23754  0.44355  1.0000
  H   H1282     1.0  0.70901  0.31166  0.34121  1.0000
  C   C1601     1.0  0.71446  0.32281  0.42323  1.0000
  C   C1602     1.0  0.71541  0.36296  0.41132  1.0000
  C   C1603     1.0  0.71129  0.40272  0.41908  1.0000
  C   C1604     1.0  0.50812  0.91936  0.45849  1.0000
  C   C1605     1.0  0.70508  0.36209  0.45070  1.0000
  C   C1606     1.0  0.69204  0.25617  0.45287  1.0000
  H   H1283     1.0  0.50062  0.00110  0.41211  1.0000
  C   C1607     1.0  0.73503  0.57750  0.39025  1.0000
  C   C1608     1.0  0.66748  0.23858  0.44335  1.0000
  C   C1609     1.0  0.67877  0.22824  0.43096  1.0000
  C   C1610     1.0  0.69102  0.23673  0.43573  1.0000
  C   C1611     1.0  0.72349  0.10881  0.31562  1.0000
  H   H1284     1.0  0.53772  0.07062  0.27487  1.0000
  H   H1285     1.0  0.52316  0.98351  0.37732  1.0000
  S   S236      1.0  0.72498  0.47396  0.36872  1.0000
  H   H1286     1.0  0.70577  0.45228  0.31122  1.0000
  C   C1612     1.0  0.50437  0.13607  0.42009  1.0000
  C   C1613     1.0  0.49881  0.95601  0.46028  1.0000
  C   C1614     1.0  0.71641  0.30157  0.49029  1.0000
  H   H1287     1.0  0.73241  0.54502  0.38871  1.0000
  C   C1615     1.0  0.51707  0.09026  0.27177  1.0000
  H   H1288     1.0  0.71740  0.29230  0.41687  1.0000
  H   H1289     1.0  0.71930  0.36328  0.39599  1.0000
  S   S237      1.0  0.50081  0.04061  0.36205  1.0000
  C   C1616     1.0  0.56516  0.77644  0.27815  1.0000
  H   H1290     1.0  0.72539  0.29626  0.37568  1.0000
  C   C1617     1.0  0.53435  0.13873  0.26308  1.0000
  H   H1291     1.0  0.50466  0.19334  0.25322  1.0000
  H   H1292     1.0  0.65804  0.23116  0.43975  1.0000
  H   H1293     1.0  0.67808  0.21308  0.41771  1.0000
  H   H1294     1.0  0.69966  0.22826  0.42594  1.0000
  C   C1618     1.0  0.52526  0.63494  0.25726  1.0000
  C   C1619     1.0  0.70270  0.69396  0.37959  1.0000
  Fe  Fe120     1.0  0.50392  0.87856  0.34644  1.0000
  H   H1295     1.0  0.52166  0.88336  0.43861  1.0000
  C   C1620     1.0  0.51184  0.16652  0.25808  1.0000
  H   H1296     1.0  0.70259  0.43313  0.44462  1.0000
  C   C1621     1.0  0.71889  0.79400  0.38702  1.0000
  C   C1622     1.0  0.50713  0.96172  0.26624  1.0000
  H   H1297     1.0  0.54723  0.24428  0.30909  1.0000
  H   H1298     1.0  0.74186  0.58802  0.31854  1.0000
  H   H1299     1.0  0.52367  0.39031  0.32103  1.0000
  H   H1300     1.0  0.53954  0.11587  0.46594  1.0000
  C   C1623     1.0  0.49438  0.24234  0.29256  1.0000
  C   C1624     1.0  0.54726  0.53980  0.38724  1.0000
  C   C1625     1.0  0.54242  0.54802  0.36870  1.0000
  C   C1626     1.0  0.55002  0.53333  0.35227  1.0000
  C   C1627     1.0  0.56255  0.51109  0.35427  1.0000
  C   C1628     1.0  0.56775  0.50461  0.37262  1.0000
  C   C1629     1.0  0.55984  0.51796  0.38924  1.0000
  P   P53       1.0  0.58432  0.47885  0.37495  1.0000
  C   C1630     1.0  0.58425  0.41998  0.38137  1.0000
  C   C1631     1.0  0.59418  0.49018  0.35180  1.0000
  C   C1632     1.0  0.59366  0.46456  0.33641  1.0000
  C   C1633     1.0  0.60043  0.47492  0.31796  1.0000
  C   C1634     1.0  0.60800  0.51045  0.31482  1.0000
  C   C1635     1.0  0.60895  0.53520  0.33024  1.0000
  C   C1636     1.0  0.60200  0.52542  0.34861  1.0000
  C   C1637     1.0  0.57315  0.40258  0.39162  1.0000
  C   C1638     1.0  0.57345  0.35730  0.39767  1.0000
  C   C1639     1.0  0.58472  0.32892  0.39334  1.0000
  C   C1640     1.0  0.59578  0.34592  0.38300  1.0000
  C   C1641     1.0  0.59559  0.39131  0.37709  1.0000
  C   C1642     1.0  0.59103  0.50224  0.39411  1.0000
  C   C1643     1.0  0.58858  0.54778  0.39558  1.0000
  C   C1644     1.0  0.59363  0.56611  0.41044  1.0000
  C   C1645     1.0  0.60116  0.53916  0.42396  1.0000
  C   C1646     1.0  0.60366  0.49385  0.42259  1.0000
  C   C1647     1.0  0.59863  0.47540  0.40773  1.0000
  H   H1301     1.0  0.54126  0.55063  0.40003  1.0000
  H   H1302     1.0  0.53279  0.56569  0.36699  1.0000
  H   H1303     1.0  0.54623  0.53947  0.33791  1.0000
  H   H1304     1.0  0.56812  0.49922  0.34141  1.0000
  H   H1305     1.0  0.56342  0.51184  0.40372  1.0000
  H   H1306     1.0  0.58766  0.43739  0.33847  1.0000
  H   H1307     1.0  0.59948  0.45600  0.30597  1.0000
  H   H1308     1.0  0.61296  0.51925  0.30037  1.0000
  H   H1309     1.0  0.61490  0.56250  0.32782  1.0000
  H   H1310     1.0  0.60267  0.54585  0.36008  1.0000
  H   H1311     1.0  0.56423  0.42366  0.39495  1.0000
  H   H1312     1.0  0.56480  0.34411  0.40545  1.0000
  H   H1313     1.0  0.58486  0.29373  0.39792  1.0000
  H   H1314     1.0  0.60450  0.32378  0.37966  1.0000
  H   H1315     1.0  0.60430  0.40402  0.36933  1.0000
  H   H1316     1.0  0.58277  0.56913  0.38518  1.0000
  H   H1317     1.0  0.59169  0.60125  0.41148  1.0000
  H   H1318     1.0  0.60505  0.55337  0.43550  1.0000
  H   H1319     1.0  0.60947  0.47291  0.43310  1.0000
  H   H1320     1.0  0.60065  0.44022  0.40701  1.0000
  S   S238      1.0  0.70906  0.05359  0.47474  1.0000
  H   H1321     1.0  0.51011  0.89616  0.47136  1.0000
  C   C1648     1.0  0.72386  0.49477  0.27036  1.0000
  C   C1649     1.0  0.52834  0.07734  0.48869  1.0000
  H   H1322     1.0  0.54534  0.88608  0.26090  1.0000
  H   H1323     1.0  0.55639  0.79583  0.28365  1.0000
  H   H1324     1.0  0.53015  0.60178  0.25687  1.0000
  S   S239      1.0  0.52288  0.84241  0.33332  1.0000
  H   H1325     1.0  0.69649  0.71863  0.40773  1.0000
  H   H1326     1.0  0.70409  0.47680  0.27561  1.0000
  C   C1650     1.0  0.52010  0.82494  0.27747  1.0000
  C   C1651     1.0  0.53315  0.02463  0.32987  1.0000
  C   C1652     1.0  0.56721  0.77061  0.25815  1.0000
  H   H1327     1.0  0.73317  0.17051  0.35695  1.0000
  C   C1653     1.0  0.53756  0.86546  0.26048  1.0000
  H   H1328     1.0  0.74049  0.36936  0.30466  1.0000
  C   C1654     1.0  0.51462  0.91215  0.44008  1.0000
  C   C1655     1.0  0.60984  0.05688  0.39255  1.0000
  C   C1656     1.0  0.59962  0.03361  0.38907  1.0000
  C   C1657     1.0  0.60245  0.99237  0.38208  1.0000
  C   C1658     1.0  0.61549  0.97430  0.37859  1.0000
  C   C1659     1.0  0.62583  0.99736  0.38219  1.0000
  C   C1660     1.0  0.62288  0.03887  0.38918  1.0000
  P   P54       1.0  0.64281  0.97506  0.37778  1.0000
  C   C1661     1.0  0.65161  0.01822  0.36399  1.0000
  C   C1662     1.0  0.64976  0.95588  0.40087  1.0000
  C   C1663     1.0  0.66076  0.92413  0.40123  1.0000
  C   C1664     1.0  0.66630  0.90902  0.41890  1.0000
  C   C1665     1.0  0.66093  0.92541  0.43639  1.0000
  C   C1666     1.0  0.64993  0.95665  0.43623  1.0000
  C   C1667     1.0  0.64436  0.97195  0.41857  1.0000
  C   C1668     1.0  0.66493  0.01984  0.36604  1.0000
  C   C1669     1.0  0.67178  0.05251  0.35475  1.0000
  C   C1670     1.0  0.66538  0.08381  0.34143  1.0000
  C   C1671     1.0  0.65214  0.08213  0.33914  1.0000
  C   C1672     1.0  0.64530  0.04928  0.35026  1.0000
  C   C1673     1.0  0.64482  0.92812  0.36380  1.0000
  C   C1674     1.0  0.65206  0.92963  0.34521  1.0000
  C   C1675     1.0  0.65467  0.89177  0.33547  1.0000
  C   C1676     1.0  0.65009  0.85214  0.34412  1.0000
  C   C1677     1.0  0.64288  0.85029  0.36258  1.0000
  C   C1678     1.0  0.64034  0.88801  0.37246  1.0000
  H   H1329     1.0  0.60767  0.08893  0.39792  1.0000
  H   H1330     1.0  0.58951  0.04758  0.39180  1.0000
  H   H1331     1.0  0.59450  0.97445  0.37936  1.0000
  H   H1332     1.0  0.61741  0.94261  0.37299  1.0000
  H   H1333     1.0  0.63067  0.05734  0.39212  1.0000
  H   H1334     1.0  0.66527  0.91173  0.38777  1.0000
  H   H1335     1.0  0.67507  0.88579  0.41887  1.0000
  H   H1336     1.0  0.66548  0.91478  0.44996  1.0000
  H   H1337     1.0  0.64595  0.97029  0.44969  1.0000
  H   H1338     1.0  0.63607  0.99694  0.41892  1.0000
  H   H1339     1.0  0.67008  0.99610  0.37638  1.0000
  H   H1340     1.0  0.68203  0.05389  0.35661  1.0000
  H   H1341     1.0  0.67068  0.10944  0.33296  1.0000
  H   H1342     1.0  0.64717  0.10633  0.32878  1.0000
  H   H1343     1.0  0.63510  0.04814  0.34810  1.0000
  H   H1344     1.0  0.65609  0.95942  0.33836  1.0000
  H   H1345     1.0  0.66058  0.89280  0.32140  1.0000
  H   H1346     1.0  0.65233  0.82274  0.33661  1.0000
  H   H1347     1.0  0.63949  0.81936  0.36937  1.0000
  H   H1348     1.0  0.63513  0.88571  0.38706  1.0000
  C   C1679     1.0  0.66969  0.64405  0.24491  1.0000
  H   H1349     1.0  0.71428  0.80004  0.31526  1.0000
  H   H1350     1.0  0.56346  0.06348  0.47257  1.0000
  C   C1680     1.0  0.51426  0.64833  0.24691  1.0000
  H   H1351     1.0  0.49680  0.70614  0.29061  1.0000
  C   C1681     1.0  0.52200  0.00983  0.47964  1.0000
  H   H1352     1.0  0.71751  0.86112  0.39396  1.0000
  C   C1682     1.0  0.67848  0.54859  0.26977  1.0000
  C   C1683     1.0  0.73898  0.40867  0.49084  1.0000
  C   C1684     1.0  0.52507  0.17341  0.25701  1.0000
  H   H1353     1.0  0.66781  0.63755  0.26078  1.0000
  C   C1685     1.0  0.74288  0.29845  0.31084  1.0000
  H   H1354     1.0  0.72660  0.45511  0.32589  1.0000
  C   C1686     1.0  0.72017  0.74896  0.39438  1.0000
  C   C1687     1.0  0.68917  0.56949  0.27366  1.0000
  C   C1688     1.0  0.69304  0.56552  0.29280  1.0000
  C   C1689     1.0  0.68634  0.54026  0.30813  1.0000
  C   C1690     1.0  0.67592  0.51836  0.30428  1.0000
  C   C1691     1.0  0.67207  0.52208  0.28513  1.0000
  C   C1692     1.0  0.72127  0.73708  0.41466  1.0000
  H   H1355     1.0  0.50242  0.90493  0.25401  1.0000
  P   P55       1.0  0.67403  0.55290  0.24481  1.0000
  H   H1356     1.0  0.71207  0.43378  0.40974  1.0000
  H   H1357     1.0  0.70066  0.36230  0.46572  1.0000
  H   H1358     1.0  0.73459  0.39613  0.44349  1.0000
  C   C1693     1.0  0.74301  0.20396  0.43997  1.0000
  C   C1694     1.0  0.73056  0.15337  0.34530  1.0000
  H   H1359     1.0  0.53858  0.91762  0.32047  1.0000
  C   C1695     1.0  0.63183  0.11659  0.48334  1.0000
  H   H1360     1.0  0.53519  0.04576  0.34043  1.0000
  H   H1361     1.0  0.72225  0.66213  0.25266  1.0000
  C   C1696     1.0  0.49692  0.10017  0.42293  1.0000
  H   H1362     1.0  0.50807  0.28260  0.30072  1.0000
  C   C1697     1.0  0.72054  0.77453  0.32322  1.0000
  C   C1698     1.0  0.53512  0.95252  0.31854  1.0000
  H   H1363     1.0  0.69449  0.58916  0.26193  1.0000
  H   H1364     1.0  0.70122  0.58218  0.29574  1.0000
  H   H1365     1.0  0.68929  0.53746  0.32297  1.0000
  H   H1366     1.0  0.67077  0.49862  0.31618  1.0000
  H   H1367     1.0  0.66412  0.50418  0.28245  1.0000
  H   H1368     1.0  0.49756  0.20185  0.35579  1.0000
  H   H1369     1.0  0.73581  0.14908  0.29563  1.0000
  C   C1699     1.0  0.69866  0.67353  0.36441  1.0000
  H   H1370     1.0  0.72650  0.11477  0.45621  1.0000
  H   H1371     1.0  0.51722  0.98002  0.48302  1.0000
  C   C1700     1.0  0.66839  0.25852  0.46031  1.0000
  C   C1701     1.0  0.52826  0.01887  0.46068  1.0000
  C   C1702     1.0  0.74071  0.15974  0.44465  1.0000
  C   C1703     1.0  0.71842  0.09857  0.33518  1.0000
  H   H1372     1.0  0.67385  0.69984  0.40901  1.0000
  C   C1704     1.0  0.71643  0.75777  0.34245  1.0000
  C   C1705     1.0  0.72585  0.46592  0.31034  1.0000
  H   H1373     1.0  0.53935  0.06430  0.44097  1.0000
  H   H1374     1.0  0.53214  0.86133  0.29183  1.0000
  H   H1375     1.0  0.71880  0.37764  0.32422  1.0000
  H   H1376     1.0  0.52731  0.72867  0.27766  1.0000
  C   C1706     1.0  0.53010  0.85174  0.27787  1.0000
  H   H1377     1.0  0.64170  0.11168  0.47616  1.0000
  C   C1707     1.0  0.72391  0.34518  0.32288  1.0000
  H   H1378     1.0  0.49881  0.04858  0.32129  1.0000
  C   C1708     1.0  0.73674  0.70949  0.34407  1.0000
  C   C1709     1.0  0.51290  0.72128  0.25775  1.0000
  C   C1710     1.0  0.52371  0.70708  0.26861  1.0000
  C   C1711     1.0  0.63474  0.54119  0.25536  1.0000
  H   H1379     1.0  0.72198  0.76021  0.44289  1.0000
  H   H1380     1.0  0.52519  0.94733  0.29327  1.0000
  C   C1712     1.0  0.71826  0.18252  0.45641  1.0000
  C   C1713     1.0  0.52233  0.01427  0.30122  1.0000
  C   C1714     1.0  0.72194  0.12093  0.34999  1.0000
  H   H1381     1.0  0.72186  0.32321  0.47966  1.0000
  C   C1715     1.0  0.53795  0.98000  0.33192  1.0000
  H   H1382     1.0  0.51447  0.17961  0.43407  1.0000
  H   H1383     1.0  0.72779  0.44759  0.46872  1.0000
  H   H1384     1.0  0.52808  0.99653  0.44970  1.0000
  H   H1385     1.0  0.52129  0.07602  0.31381  1.0000
  P   P56       1.0  0.71948  0.70647  0.37851  1.0000
  C   C1716     1.0  0.73432  0.41793  0.47219  1.0000
  H   H1386     1.0  0.50951  0.14312  0.46745  1.0000
  C   C1717     1.0  0.57430  0.75668  0.29112  1.0000
  C   C1718     1.0  0.49855  0.09461  0.45812  1.0000
  C   C1719     1.0  0.50310  0.25231  0.39483  1.0000
  H   H1387     1.0  0.73001  0.59294  0.27231  1.0000
  C   C1720     1.0  0.73512  0.19316  0.39687  1.0000
  H   H1388     1.0  0.71766  0.61093  0.37850  1.0000
  H   H1389     1.0  0.71960  0.83953  0.42955  1.0000
  C   C1721     1.0  0.67688  0.67190  0.38145  1.0000
  C   C1722     1.0  0.71319  0.47812  0.28202  1.0000
  H   H1390     1.0  0.71789  0.11344  0.36514  1.0000
  C   C1723     1.0  0.71874  0.82638  0.39969  1.0000
  H   H1391     1.0  0.73557  0.77036  0.29909  1.0000
  C   C1724     1.0  0.50470  0.17625  0.32034  1.0000
  C   C1725     1.0  0.53474  0.08600  0.46981  1.0000
  C   C1726     1.0  0.52743  0.96957  0.30314  1.0000
  C   C1727     1.0  0.72664  0.61514  0.38456  1.0000
  H   H1392     1.0  0.57612  0.12286  0.47838  1.0000
  P   P57       1.0  0.52202  0.22853  0.33242  1.0000
  C   C1728     1.0  0.51459  0.23658  0.35701  1.0000
  C   C1729     1.0  0.53492  0.18327  0.33349  1.0000
  C   C1730     1.0  0.54323  0.17709  0.34878  1.0000
  C   C1731     1.0  0.55349  0.14300  0.34925  1.0000
  C   C1732     1.0  0.55562  0.11502  0.33445  1.0000
  C   C1733     1.0  0.54763  0.12164  0.31888  1.0000
  C   C1734     1.0  0.53734  0.15573  0.31833  1.0000
  C   C1735     1.0  0.52071  0.26055  0.36882  1.0000
  C   C1736     1.0  0.51499  0.26851  0.38759  1.0000
  H   H1393     1.0  0.54364  0.96652  0.34413  1.0000
  C   C1737     1.0  0.51334  0.00068  0.26273  1.0000
  C   C1738     1.0  0.70851  0.27272  0.48402  1.0000
  C   C1739     1.0  0.52935  0.27819  0.32215  1.0000
  C   C1740     1.0  0.52277  0.31983  0.32530  1.0000
  C   C1741     1.0  0.52861  0.35830  0.31813  1.0000
  C   C1742     1.0  0.54100  0.35557  0.30768  1.0000
  C   C1743     1.0  0.54761  0.31436  0.30445  1.0000
  C   C1744     1.0  0.54182  0.27577  0.31157  1.0000
  C   C1745     1.0  0.72834  0.14907  0.45280  1.0000
  C   C1746     1.0  0.73750  0.26084  0.32076  1.0000
  H   H1394     1.0  0.59306  0.18490  0.47212  1.0000
  C   C1747     1.0  0.49450  0.16850  0.30975  1.0000
  H   H1395     1.0  0.57262  0.76068  0.30669  1.0000
  H   H1396     1.0  0.54184  0.19840  0.36041  1.0000
  H   H1397     1.0  0.55973  0.13797  0.36128  1.0000
  H   H1398     1.0  0.56348  0.08827  0.33510  1.0000
  H   H1399     1.0  0.54938  0.10016  0.30731  1.0000
  H   H1400     1.0  0.53138  0.16071  0.30601  1.0000
  H   H1401     1.0  0.52992  0.27338  0.36345  1.0000
  H   H1402     1.0  0.51987  0.28717  0.39652  1.0000
  C   C1748     1.0  0.51193  0.94186  0.42347  1.0000
  C   C1749     1.0  0.68582  0.66227  0.36544  1.0000
  C   C1750     1.0  0.73584  0.23775  0.38957  1.0000
  H   H1403     1.0  0.71783  0.80474  0.37162  1.0000
  H   H1404     1.0  0.51324  0.32258  0.33364  1.0000
  C   C1751     1.0  0.72463  0.72600  0.35324  1.0000
  C   C1752     1.0  0.50801  0.69124  0.24730  1.0000
  C   C1753     1.0  0.50260  0.22043  0.36438  1.0000
  H   H1405     1.0  0.62833  0.04895  0.48351  1.0000
  C   C1754     1.0  0.69369  0.70301  0.39579  1.0000
  H   H1406     1.0  0.70544  0.66643  0.35174  1.0000
  H   H1407     1.0  0.71173  0.07339  0.33890  1.0000
  C   C1755     1.0  0.73259  0.75808  0.31420  1.0000
  C   C1756     1.0  0.71986  0.81422  0.41979  1.0000
  C   C1757     1.0  0.73815  0.38901  0.45798  1.0000
  C   C1758     1.0  0.51728  0.81219  0.25952  1.0000
  H   H1408     1.0  0.72292  0.50597  0.25491  1.0000
  H   H1409     1.0  0.66650  0.71473  0.24505  1.0000
  C   C1759     1.0  0.68060  0.26785  0.46494  1.0000
  H   H1410     1.0  0.70688  0.77002  0.34894  1.0000
  C   C1760     1.0  0.73659  0.48215  0.29870  1.0000
  H   H1411     1.0  0.73505  0.27150  0.44002  1.0000
  H   H1412     1.0  0.68274  0.64665  0.35365  1.0000
  C   C1761     1.0  0.57842  0.74465  0.25094  1.0000
  H   H1413     1.0  0.66688  0.66378  0.38201  1.0000
  H   H1414     1.0  0.56000  0.78635  0.24842  1.0000
  H   H1415     1.0  0.72069  0.23791  0.33932  1.0000
  C   C1762     1.0  0.73361  0.59857  0.25685  1.0000
  C   C1763     1.0  0.74200  0.66124  0.39375  1.0000
  C   C1764     1.0  0.70604  0.40229  0.43874  1.0000
  C   C1765     1.0  0.72514  0.26598  0.33147  1.0000
  C   C1766     1.0  0.52530  0.04167  0.31470  1.0000
  C   C1767     1.0  0.58552  0.73116  0.28406  1.0000
  C   C1768     1.0  0.73562  0.16417  0.32568  1.0000
  C   C1769     1.0  0.58533  0.20357  0.48055  1.0000
  Fe  Fe121     1.0  0.49596  0.97191  0.35752  1.0000
  H   H1416     1.0  0.56315  0.29406  0.47345  1.0000
  C   C1770     1.0  0.57889  0.24169  0.47104  1.0000
  H   H1417     1.0  0.72075  0.09136  0.30417  1.0000
  H   H1418     1.0  0.59257  0.71531  0.29409  1.0000
  H   H1419     1.0  0.51475  0.81384  0.29131  1.0000
  C   C1771     1.0  0.72117  0.76958  0.42726  1.0000
  C   C1772     1.0  0.58762  0.72543  0.26405  1.0000
  H   H1420     1.0  0.54463  0.14400  0.26210  1.0000
  H   H1421     1.0  0.49694  0.07772  0.47286  1.0000
  C   C1773     1.0  0.64744  0.55136  0.25682  1.0000
  H   H1422     1.0  0.72200  0.70269  0.42080  1.0000
  C   C1774     1.0  0.74064  0.72533  0.32456  1.0000
  C   C1775     1.0  0.56842  0.26536  0.48106  1.0000
  C   C1776     1.0  0.73204  0.14158  0.31085  1.0000
  H   H1423     1.0  0.74365  0.17369  0.40246  1.0000
  H   H1424     1.0  0.73931  0.24105  0.28034  1.0000
  H   H1425     1.0  0.74313  0.68410  0.35175  1.0000
  C   C1777     1.0  0.49689  0.22838  0.38320  1.0000
  H   H1426     1.0  0.74389  0.42853  0.25789  1.0000
  H   H1427     1.0  0.50699  0.15129  0.40535  1.0000
  C   C1778     1.0  0.50783  0.12512  0.26541  1.0000
  C   C1779     1.0  0.50741  0.93455  0.25129  1.0000
  C   C1780     1.0  0.72923  0.63796  0.24579  1.0000
  S   S240      1.0  0.49895  0.94390  0.32838  1.0000
  H   H1428     1.0  0.50188  0.95278  0.28046  1.0000
  H   H1429     1.0  0.69701  0.21778  0.49364  1.0000
  H   H1430     1.0  0.55310  0.16141  0.48894  1.0000
  H   H1431     1.0  0.63242  0.18600  0.48436  1.0000
  C   C1781     1.0  0.49593  0.98567  0.44361  1.0000
  C   C1782     1.0  0.50448  0.25046  0.30330  1.0000
  C   C1783     1.0  0.62659  0.15846  0.48796  1.0000
  C   C1784     1.0  0.56772  0.06186  0.48646  1.0000
  C   C1785     1.0  0.57490  0.09564  0.48986  1.0000
  C   C1786     1.0  0.62427  0.08111  0.48756  1.0000
  H   H1432     1.0  0.49753  0.12061  0.26613  1.0000
  C   C1787     1.0  0.49495  0.04392  0.29128  1.0000
  C   C1788     1.0  0.53330  0.19169  0.49257  1.0000
  C   C1789     1.0  0.52185  0.03921  0.49385  1.0000
  H   H1433     1.0  0.73233  0.17803  0.49393  1.0000
  C   C1790     1.0  0.56458  0.25146  0.50078  1.0000
  S   S241      1.0  0.51483  0.18812  0.60937  1.0000
  H   H1434     1.0  0.73074  0.49335  0.53307  1.0000
  H   H1435     1.0  0.73596  0.43099  0.50188  1.0000
  S   S242      1.0  0.52072  0.08219  0.60574  1.0000
  C   C1791     1.0  0.52404  0.02088  0.53773  1.0000
  Fe  Fe122     1.0  0.51398  0.12479  0.63014  1.0000
  S   S243      1.0  0.51852  0.11470  0.66286  1.0000
  Fe  Fe123     1.0  0.51995  0.14484  0.58450  1.0000
  S   S244      1.0  0.53653  0.14902  0.55919  1.0000
  H   H1436     1.0  0.54092  0.33990  0.63032  1.0000
  H   H1437     1.0  0.60983  0.19763  0.50030  1.0000
  H   H1438     1.0  0.71561  0.97641  0.71472  1.0000
  S   S245      1.0  0.72210  0.21512  0.59070  1.0000
  H   H1439     1.0  0.71203  0.27278  0.53996  1.0000
  H   H1440     1.0  0.53780  0.69527  0.58995  1.0000
  S   S246      1.0  0.71555  0.12117  0.61358  1.0000
  H   H1441     1.0  0.70534  0.12084  0.70832  1.0000
  Fe  Fe124     1.0  0.72026  0.14787  0.58165  1.0000
  S   S247      1.0  0.70755  0.14166  0.55612  1.0000
  Fe  Fe125     1.0  0.71937  0.18597  0.62279  1.0000
  S   S248      1.0  0.70511  0.21747  0.64668  1.0000
  C   C1792     1.0  0.65909  0.11994  0.66060  1.0000
  H   H1442     1.0  0.52365  0.93524  0.52418  1.0000
  H   H1443     1.0  0.53416  0.18910  0.71029  1.0000
  C   C1793     1.0  0.71651  0.06895  0.69282  1.0000
  C   C1794     1.0  0.69748  0.12542  0.52192  1.0000
  C   C1795     1.0  0.70845  0.11815  0.53310  1.0000
  C   C1796     1.0  0.71963  0.09263  0.52565  1.0000
  C   C1797     1.0  0.71965  0.07380  0.50778  1.0000
  C   C1798     1.0  0.58902  0.14738  0.57915  1.0000
  H   H1444     1.0  0.68874  0.14497  0.52736  1.0000
  H   H1445     1.0  0.72816  0.08652  0.53390  1.0000
  C   C1799     1.0  0.50819  0.70269  0.57123  1.0000
  C   C1800     1.0  0.70751  0.22893  0.71320  1.0000
  C   C1801     1.0  0.69584  0.24139  0.70425  1.0000
  C   C1802     1.0  0.69537  0.23786  0.68398  1.0000
  C   C1803     1.0  0.70644  0.22086  0.67231  1.0000
  C   C1804     1.0  0.71811  0.20795  0.68128  1.0000
  C   C1805     1.0  0.71867  0.21264  0.70144  1.0000
  H   H1446     1.0  0.68729  0.25523  0.71276  1.0000
  H   H1447     1.0  0.68637  0.24898  0.67722  1.0000
  H   H1448     1.0  0.72676  0.19494  0.67263  1.0000
  H   H1449     1.0  0.72785  0.20357  0.70796  1.0000
  C   C1806     1.0  0.62636  0.14004  0.70887  1.0000
  S   S249      1.0  0.70890  0.23467  0.73862  1.0000
  C   C1807     1.0  0.53119  0.23054  0.65985  1.0000
  H   H1450     1.0  0.54454  0.01626  0.58267  1.0000
  H   H1451     1.0  0.65737  0.09377  0.65229  1.0000
  C   C1808     1.0  0.49859  0.37600  0.71601  1.0000
  H   H1452     1.0  0.51087  0.98364  0.55840  1.0000
  C   C1809     1.0  0.53248  0.26028  0.70927  1.0000
  C   C1810     1.0  0.52240  0.19982  0.50630  1.0000
  C   C1811     1.0  0.52303  0.18582  0.52666  1.0000
  C   C1812     1.0  0.53461  0.16344  0.53352  1.0000
  C   C1813     1.0  0.54529  0.15388  0.51960  1.0000
  C   C1814     1.0  0.54471  0.16822  0.49934  1.0000
  H   H1453     1.0  0.51346  0.21771  0.50124  1.0000
  H   H1454     1.0  0.51467  0.19327  0.53708  1.0000
  H   H1455     1.0  0.55410  0.13532  0.52444  1.0000
  C   C1815     1.0  0.53796  0.29579  0.71513  1.0000
  C   C1816     1.0  0.55147  0.10072  0.70539  1.0000
  C   C1817     1.0  0.55454  0.10752  0.68478  1.0000
  C   C1818     1.0  0.54469  0.11161  0.67156  1.0000
  C   C1819     1.0  0.53154  0.10879  0.67873  1.0000
  C   C1820     1.0  0.52847  0.10202  0.69933  1.0000
  C   C1821     1.0  0.53831  0.09801  0.71257  1.0000
  H   H1456     1.0  0.56465  0.10960  0.67899  1.0000
  H   H1457     1.0  0.54728  0.11686  0.65582  1.0000
  H   H1458     1.0  0.51838  0.09956  0.70511  1.0000
  C   C1822     1.0  0.72178  0.02463  0.58016  1.0000
  H   H1459     1.0  0.69884  0.21969  0.52906  1.0000
  C   C1823     1.0  0.61402  0.12434  0.71252  1.0000
  H   H1460     1.0  0.68987  0.14284  0.68348  1.0000
  H   H1461     1.0  0.74022  0.53233  0.61619  1.0000
  P   P58       1.0  0.65170  0.14869  0.71764  1.0000
  C   C1824     1.0  0.65465  0.11853  0.68063  1.0000
  C   C1825     1.0  0.66365  0.18736  0.68205  1.0000
  C   C1826     1.0  0.49830  0.16872  0.71723  1.0000
  H   H1462     1.0  0.66905  0.27730  0.73816  1.0000
  H   H1463     1.0  0.72961  0.17290  0.53044  1.0000
  C   C1827     1.0  0.54323  0.03854  0.55182  1.0000
  P   P59       1.0  0.51967  0.26996  0.69267  1.0000
  P   P60       1.0  0.72928  0.05559  0.70952  1.0000
  H   H1464     1.0  0.49732  0.14777  0.73110  1.0000
  C   C1828     1.0  0.71752  0.30208  0.51040  1.0000
  C   C1829     1.0  0.56605  0.02614  0.50091  1.0000
  H   H1465     1.0  0.53919  0.05918  0.52217  1.0000
  H   H1466     1.0  0.72583  0.48376  0.56917  1.0000
  C   C1830     1.0  0.71099  0.27310  0.52437  1.0000
  C   C1831     1.0  0.62079  0.08124  0.74242  1.0000
  H   H1467     1.0  0.51348  0.86564  0.52592  1.0000
  H   H1468     1.0  0.72827  0.05335  0.50257  1.0000
  C   C1832     1.0  0.57896  0.05751  0.52211  1.0000
  C   C1833     1.0  0.63669  0.26802  0.73614  1.0000
  H   H1469     1.0  0.62828  0.16335  0.69596  1.0000
  C   C1834     1.0  0.66583  0.15494  0.65131  1.0000
  H   H1470     1.0  0.55181  0.31531  0.73302  1.0000
  C   C1835     1.0  0.70354  0.24311  0.51821  1.0000
  P   P61       1.0  0.51315  0.02823  0.51817  1.0000
  H   H1471     1.0  0.67365  0.08278  0.70627  1.0000
  H   H1472     1.0  0.55186  0.05605  0.55046  1.0000
  H   H1473     1.0  0.51166  0.32041  0.72634  1.0000
  H   H1474     1.0  0.60571  0.05952  0.49942  1.0000
  C   C1836     1.0  0.53579  0.04077  0.53574  1.0000
  H   H1475     1.0  0.51197  0.20666  0.72710  1.0000
  C   C1837     1.0  0.63770  0.22627  0.72967  1.0000
  H   H1476     1.0  0.50404  0.69533  0.55832  1.0000
  C   C1838     1.0  0.58933  0.14171  0.53849  1.0000
  H   H1477     1.0  0.57058  0.99581  0.52980  1.0000
  C   C1839     1.0  0.52175  0.69421  0.57230  1.0000
  C   C1840     1.0  0.50011  0.71975  0.58688  1.0000
  C   C1841     1.0  0.53744  0.23039  0.64078  1.0000
  C   C1842     1.0  0.70860  0.08050  0.49677  1.0000
  H   H1478     1.0  0.50622  0.12150  0.50068  1.0000
  C   C1843     1.0  0.50565  0.97738  0.51921  1.0000
  H   H1479     1.0  0.69176  0.10543  0.65323  1.0000
  H   H1480     1.0  0.72138  0.58411  0.62611  1.0000
  C   C1844     1.0  0.73013  0.30578  0.62469  1.0000
  C   C1845     1.0  0.57783  0.13654  0.55115  1.0000
  H   H1481     1.0  0.52354  0.72350  0.61806  1.0000
  S   S250      1.0  0.49901  0.14262  0.57897  1.0000
  C   C1846     1.0  0.52003  0.99833  0.55611  1.0000
  C   C1847     1.0  0.71455  0.01429  0.56559  1.0000
  H   H1482     1.0  0.73930  0.96910  0.53542  1.0000
  H   H1483     1.0  0.56783  0.20353  0.52564  1.0000
  C   C1848     1.0  0.52751  0.99602  0.57211  1.0000
  H   H1484     1.0  0.56890  0.13036  0.54558  1.0000
  H   H1485     1.0  0.49673  0.38823  0.73030  1.0000
  H   H1486     1.0  0.49417  0.81041  0.59093  1.0000
  C   C1849     1.0  0.57766  0.13955  0.57132  1.0000
  C   C1850     1.0  0.74215  0.08935  0.69907  1.0000
  H   H1487     1.0  0.71967  0.13672  0.72802  1.0000
  C   C1851     1.0  0.53754  0.21700  0.71567  1.0000
  C   C1852     1.0  0.58159  0.18939  0.50043  1.0000
  C   C1853     1.0  0.50758  0.89706  0.52333  1.0000
  C   C1854     1.0  0.73505  0.99778  0.70865  1.0000
  H   H1488     1.0  0.52996  0.34038  0.66412  1.0000
  C   C1855     1.0  0.72840  0.48370  0.60886  1.0000
  H   H1489     1.0  0.62878  0.21227  0.72812  1.0000
  C   C1856     1.0  0.71973  0.55331  0.62108  1.0000
  C   C1857     1.0  0.70694  0.54317  0.62038  1.0000
  C   C1858     1.0  0.70482  0.50341  0.61394  1.0000
  C   C1859     1.0  0.71549  0.47379  0.60820  1.0000
  H   H1490     1.0  0.74091  0.02364  0.59004  1.0000
  C   C1860     1.0  0.73458  0.98361  0.54825  1.0000
  H   H1491     1.0  0.66566  0.21361  0.69003  1.0000
  H   H1492     1.0  0.56865  0.13599  0.58084  1.0000
  C   C1861     1.0  0.72356  0.06572  0.73469  1.0000
  H   H1493     1.0  0.60650  0.13529  0.70253  1.0000
  C   C1862     1.0  0.66139  0.22151  0.72908  1.0000
  H   H1494     1.0  0.67102  0.20357  0.72680  1.0000
  P   P62       1.0  0.74207  0.44467  0.60158  1.0000
  C   C1863     1.0  0.55196  0.24476  0.73574  1.0000
  C   C1864     1.0  0.58026  0.09436  0.50793  1.0000
  P   P63       1.0  0.58942  0.13842  0.51224  1.0000
  H   H1495     1.0  0.54558  0.26967  0.61521  1.0000
  C   C1865     1.0  0.60072  0.14949  0.54652  1.0000
  Fe  Fe126     1.0  0.73730  0.10312  0.61484  1.0000
  H   H1496     1.0  0.55064  0.17575  0.73450  1.0000
  C   C1866     1.0  0.51927  0.71801  0.60491  1.0000
  H   H1497     1.0  0.69866  0.56608  0.62487  1.0000
  C   C1867     1.0  0.61378  0.16489  0.49689  1.0000
  H   H1498     1.0  0.71368  0.44310  0.60324  1.0000
  H   H1499     1.0  0.67362  0.21519  0.65488  1.0000
  Fe  Fe127     1.0  0.74354  0.19168  0.59262  1.0000
  H   H1500     1.0  0.70941  0.04445  0.64822  1.0000
  C   C1868     1.0  0.61143  0.08739  0.49645  1.0000
  C   C1869     1.0  0.70632  0.10288  0.69566  1.0000
  H   H1501     1.0  0.52397  0.98024  0.58641  1.0000
  H   H1502     1.0  0.72524  0.02198  0.67271  1.0000
  C   C1870     1.0  0.73044  0.52373  0.61537  1.0000
  C   C1871     1.0  0.70833  0.06015  0.66167  1.0000
  H   H1503     1.0  0.72712  0.27338  0.63006  1.0000
  H   H1504     1.0  0.58887  0.14969  0.59480  1.0000
  H   H1505     1.0  0.71685  0.04121  0.59233  1.0000
  C   C1872     1.0  0.73656  0.31345  0.60581  1.0000
  H   H1506     1.0  0.52863  0.19967  0.66792  1.0000
  C   C1873     1.0  0.57120  0.21387  0.51050  1.0000
  H   H1507     1.0  0.64959  0.09086  0.68768  1.0000
  H   H1508     1.0  0.53950  0.19957  0.63432  1.0000
  S   S251      1.0  0.74176  0.12546  0.58249  1.0000
  H   H1509     1.0  0.56039  0.00021  0.49830  1.0000
  C   C1874     1.0  0.69757  0.10713  0.50391  1.0000
  C   C1875     1.0  0.52811  0.27022  0.66828  1.0000
  C   C1876     1.0  0.66397  0.11437  0.73125  1.0000
  H   H1510     1.0  0.74102  0.22020  0.54783  1.0000
  H   H1511     1.0  0.52795  0.68109  0.56017  1.0000
  C   C1877     1.0  0.67356  0.08568  0.72182  1.0000
  C   C1878     1.0  0.66033  0.26335  0.73545  1.0000
  C   C1879     1.0  0.51329  0.93652  0.52236  1.0000
  H   H1512     1.0  0.69490  0.49545  0.61347  1.0000
  C   C1880     1.0  0.54703  0.20930  0.72918  1.0000
  C   C1881     1.0  0.50680  0.20173  0.71476  1.0000
  H   H1513     1.0  0.66940  0.15593  0.63583  1.0000
  C   C1882     1.0  0.65681  0.15241  0.69150  1.0000
  C   C1883     1.0  0.65009  0.20282  0.72591  1.0000
  S   S252      1.0  0.74097  0.16709  0.62512  1.0000
  C   C1884     1.0  0.63599  0.12664  0.72210  1.0000
  C   C1885     1.0  0.54764  0.28797  0.72838  1.0000
  C   C1886     1.0  0.72093  0.99356  0.54970  1.0000
  C   C1887     1.0  0.50858  0.22765  0.69649  1.0000
  C   C1888     1.0  0.69839  0.09439  0.66450  1.0000
  H   H1514     1.0  0.70404  0.02345  0.56633  1.0000
  C   C1889     1.0  0.54087  0.26984  0.63008  1.0000
  C   C1890     1.0  0.53192  0.30958  0.65770  1.0000
  H   H1515     1.0  0.50367  0.32933  0.66547  1.0000
  C   C1891     1.0  0.52730  0.70205  0.58909  1.0000
  C   C1892     1.0  0.60055  0.15226  0.56676  1.0000
  C   C1893     1.0  0.71734  0.04748  0.67572  1.0000
  Fe  Fe128     1.0  0.49940  0.08195  0.60100  1.0000
  C   C1894     1.0  0.73541  0.01464  0.57880  1.0000
  C   C1895     1.0  0.53819  0.30938  0.63859  1.0000
  C   C1896     1.0  0.64799  0.28664  0.73893  1.0000
  H   H1516     1.0  0.50253  0.24083  0.66685  1.0000
  H   H1517     1.0  0.53479  0.32946  0.70948  1.0000
  C   C1897     1.0  0.74257  0.22197  0.53192  1.0000
  C   C1898     1.0  0.53907  0.01634  0.57001  1.0000
  H   H1518     1.0  0.60937  0.15827  0.57285  1.0000
  C   C1899     1.0  0.50714  0.33770  0.71369  1.0000
  C   C1900     1.0  0.61122  0.09502  0.72932  1.0000
  H   H1519     1.0  0.60978  0.15340  0.53731  1.0000
  H   H1520     1.0  0.53573  0.09259  0.72831  1.0000
  C   C1901     1.0  0.72599  0.96623  0.71182  1.0000
  C   C1902     1.0  0.50948  0.32132  0.69530  1.0000
  H   H1521     1.0  0.71533  0.98673  0.53812  1.0000
  C   C1903     1.0  0.50261  0.34256  0.67953  1.0000
  C   C1904     1.0  0.50136  0.22118  0.68105  1.0000
  H   H1522     1.0  0.72324  0.89729  0.71336  1.0000
  C   C1905     1.0  0.50571  0.72646  0.60390  1.0000
  C   C1906     1.0  0.66815  0.18852  0.66205  1.0000
  H   H1523     1.0  0.72367  0.32424  0.51516  1.0000
  C   C1907     1.0  0.69734  0.11547  0.68154  1.0000
  C   C1908     1.0  0.50054  0.07193  0.52443  1.0000
  C   C1909     1.0  0.74361  0.90787  0.70704  1.0000
  S   S253      1.0  0.56445  0.09548  0.72129  1.0000
  H   H1524     1.0  0.58343  0.05484  0.53586  1.0000
  C   C1910     1.0  0.73027  0.92145  0.71108  1.0000
  H   H1525     1.0  0.68896  0.11275  0.49580  1.0000
  H   H1526     1.0  0.55626  0.26919  0.50844  1.0000
  C   C1911     1.0  0.73809  0.47644  0.54234  1.0000
  C   C1912     1.0  0.73537  0.47107  0.56288  1.0000
  H   H1527     1.0  0.52826  0.10101  0.49910  1.0000
  C   C1913     1.0  0.49954  0.11377  0.51339  1.0000
  C   C1914     1.0  0.74043  0.35519  0.59881  1.0000
  C   C1915     1.0  0.60608  0.12942  0.50115  1.0000
  C   C1916     1.0  0.57177  0.02376  0.51866  1.0000
  C   C1917     1.0  0.68328  0.06059  0.73246  1.0000
  H   H1528     1.0  0.69071  0.03886  0.72507  1.0000
  H   H1529     1.0  0.60157  0.08346  0.73238  1.0000
  C   C1918     1.0  0.70245  0.24240  0.49812  1.0000
  H   H1530     1.0  0.62712  0.28532  0.73967  1.0000
  C   C1919     1.0  0.73608  0.19519  0.52208  1.0000
  C   C1920     1.0  0.71933  0.10877  0.73926  1.0000
  S   S254      1.0  0.74208  0.03607  0.63234  1.0000
  H   H1531     1.0  0.72266  0.33371  0.65135  1.0000
  H   H1532     1.0  0.74325  0.06712  0.67014  1.0000
  H   H1533     1.0  0.49957  0.73805  0.61642  1.0000
  C   C1921     1.0  0.63308  0.09723  0.73897  1.0000
  H   H1534     1.0  0.73866  0.28686  0.59661  1.0000
  C   C1922     1.0  0.72762  0.33988  0.63668  1.0000
  C   C1923     1.0  0.73766  0.19813  0.50153  1.0000
  C   C1924     1.0  0.74191  0.99374  0.56292  1.0000
  C   C1925     1.0  0.73142  0.38176  0.62973  1.0000
  C   C1926     1.0  0.73770  0.38990  0.61061  1.0000
  H   H1535     1.0  0.72939  0.40786  0.63921  1.0000
  C   C1927     1.0  0.49420  0.89811  0.52119  1.0000
  S   S255      1.0  0.49415  0.01673  0.59261  1.0000
  Fe  Fe129     1.0  0.55557  0.72293  0.94316  1.0000
  S   S256      1.0  0.55743  0.65666  0.93200  1.0000
  S   S257      1.0  0.54723  0.73990  0.97402  1.0000
  Fe  Fe130     1.0  0.56361  0.77059  0.90126  1.0000
  S   S258      1.0  0.56535  0.70697  0.88755  1.0000
  S   S259      1.0  0.57077  0.83593  0.88595  1.0000
  Fe  Fe131     1.0  0.54682  0.69176  0.90655  1.0000
  S   S260      1.0  0.52767  0.66856  0.89981  1.0000
  Fe  Fe132     1.0  0.57591  0.67683  0.91408  1.0000
  S   S261      1.0  0.59407  0.62760  0.90850  1.0000
  S   S262      1.0  0.54426  0.75784  0.91834  1.0000
  S   S263      1.0  0.57491  0.74076  0.92715  1.0000
  H   H1536     1.0  0.50596  0.61754  0.90069  1.0000
  Fe  Fe133     1.0  0.56222  0.04460  0.79753  1.0000
  S   S264      1.0  0.56945  0.09966  0.81106  1.0000
  S   S265      1.0  0.55482  0.98011  0.81367  1.0000
  Fe  Fe134     1.0  0.56502  0.09369  0.75500  1.0000
  S   S266      1.0  0.57306  0.15064  0.76572  1.0000
  C   C1928     1.0  0.61029  0.46113  0.92552  1.0000
  Fe  Fe135     1.0  0.58508  0.10130  0.78530  1.0000
  S   S267      1.0  0.60702  0.09906  0.78953  1.0000
  Fe  Fe136     1.0  0.55690  0.14581  0.79055  1.0000
  S   S268      1.0  0.54575  0.21356  0.79422  1.0000
  S   S269      1.0  0.57844  0.04380  0.77275  1.0000
  S   S270      1.0  0.54830  0.09122  0.77884  1.0000
  Fe  Fe137     1.0  0.67122  0.60403  0.92530  1.0000
  S   S271      1.0  0.68013  0.53804  0.93913  1.0000
  S   S272      1.0  0.65119  0.63996  0.93477  1.0000
  Fe  Fe138     1.0  0.69701  0.62290  0.90098  1.0000
  S   S273      1.0  0.70749  0.55792  0.91294  1.0000
  S   S274      1.0  0.70586  0.67417  0.87780  1.0000
  Fe  Fe139     1.0  0.68923  0.52744  0.90802  1.0000
  S   S275      1.0  0.68844  0.45914  0.89634  1.0000
  Fe  Fe140     1.0  0.69764  0.57357  0.94293  1.0000
  C   C1929     1.0  0.62887  0.54940  0.84507  1.0000
  S   S276      1.0  0.67927  0.59214  0.89442  1.0000
  S   S277      1.0  0.68823  0.63969  0.93067  1.0000
  Fe  Fe141     1.0  0.66707  0.24352  0.78961  1.0000
  S   S278      1.0  0.67942  0.29788  0.77590  1.0000
  S   S279      1.0  0.64496  0.25144  0.78690  1.0000
  Fe  Fe142     1.0  0.69046  0.18924  0.80733  1.0000
  S   S280      1.0  0.70422  0.23954  0.79526  1.0000
  S   S281      1.0  0.69533  0.12164  0.82435  1.0000
  Fe  Fe143     1.0  0.68805  0.29097  0.80542  1.0000
  S   S282      1.0  0.69144  0.35460  0.81897  1.0000
  Fe  Fe144     1.0  0.69460  0.24280  0.76675  1.0000
  P   P64       1.0  0.64468  0.47311  0.85845  1.0000
  S   S283      1.0  0.67486  0.23968  0.81928  1.0000
  S   S284      1.0  0.68165  0.18961  0.77868  1.0000
  C   C1930     1.0  0.68946  0.43068  0.87454  1.0000
  C   C1931     1.0  0.68616  0.38683  0.87640  1.0000
  C   C1932     1.0  0.68682  0.36295  0.85982  1.0000
  C   C1933     1.0  0.69079  0.38243  0.84084  1.0000
  C   C1934     1.0  0.69423  0.42605  0.83900  1.0000
  C   C1935     1.0  0.69365  0.44978  0.85561  1.0000
  H   H1537     1.0  0.68307  0.37108  0.89085  1.0000
  H   H1538     1.0  0.68415  0.32954  0.86172  1.0000
  H   H1539     1.0  0.69734  0.44182  0.82454  1.0000
  H   H1540     1.0  0.69650  0.48290  0.85375  1.0000
  C   C1936     1.0  0.73613  0.05407  0.83753  1.0000
  C   C1937     1.0  0.73470  0.09830  0.82899  1.0000
  C   C1938     1.0  0.72232  0.11928  0.82434  1.0000
  C   C1939     1.0  0.71128  0.09601  0.82818  1.0000
  C   C1940     1.0  0.71281  0.05133  0.83604  1.0000
  C   C1941     1.0  0.72517  0.03041  0.84076  1.0000
  H   H1541     1.0  0.72126  0.15362  0.81821  1.0000
  H   H1542     1.0  0.70431  0.03311  0.83896  1.0000
  H   H1543     1.0  0.72616  0.99639  0.84733  1.0000
  C   C1942     1.0  0.73100  0.77900  0.89194  1.0000
  C   C1943     1.0  0.72707  0.77982  0.87302  1.0000
  C   C1944     1.0  0.71919  0.74807  0.86897  1.0000
  C   C1945     1.0  0.71530  0.71475  0.88374  1.0000
  C   C1946     1.0  0.71915  0.71416  0.90271  1.0000
  C   C1947     1.0  0.72690  0.74624  0.90680  1.0000
  Fe  Fe145     1.0  0.49820  0.35936  0.86235  1.0000
  C   C1948     1.0  0.72778  0.75835  0.80876  1.0000
  H   H1544     1.0  0.71620  0.68883  0.91420  1.0000
  C   C1949     1.0  0.61743  0.14215  0.78800  1.0000
  C   C1950     1.0  0.63071  0.13098  0.79146  1.0000
  C   C1951     1.0  0.63927  0.16387  0.79103  1.0000
  C   C1952     1.0  0.63468  0.20851  0.78698  1.0000
  C   C1953     1.0  0.62145  0.21968  0.78324  1.0000
  C   C1954     1.0  0.61287  0.18678  0.78372  1.0000
  H   H1545     1.0  0.63435  0.09663  0.79482  1.0000
  H   H1546     1.0  0.64937  0.15471  0.79414  1.0000
  H   H1547     1.0  0.61776  0.25405  0.78014  1.0000
  H   H1548     1.0  0.60270  0.19596  0.78101  1.0000
  C   C1955     1.0  0.51772  0.26669  0.84474  1.0000
  C   C1956     1.0  0.52216  0.22135  0.84583  1.0000
  C   C1957     1.0  0.53093  0.20432  0.83070  1.0000
  C   C1958     1.0  0.53536  0.23265  0.81438  1.0000
  C   C1959     1.0  0.53093  0.27787  0.81337  1.0000
  C   C1960     1.0  0.52214  0.29479  0.82837  1.0000
  S   S285      1.0  0.50454  0.41173  0.83883  1.0000
  H   H1549     1.0  0.53418  0.16938  0.83159  1.0000
  H   H1550     1.0  0.53436  0.30001  0.80089  1.0000
  H   H1551     1.0  0.51884  0.32963  0.82724  1.0000
  C   C1961     1.0  0.56673  0.87410  0.86497  1.0000
  C   C1962     1.0  0.55683  0.86858  0.85332  1.0000
  C   C1963     1.0  0.55367  0.90062  0.83734  1.0000
  C   C1964     1.0  0.56031  0.93874  0.83273  1.0000
  C   C1965     1.0  0.57046  0.94371  0.84410  1.0000
  C   C1966     1.0  0.57360  0.91168  0.86011  1.0000
  H   H1552     1.0  0.55152  0.83983  0.85669  1.0000
  H   H1553     1.0  0.54593  0.89612  0.82856  1.0000
  H   H1554     1.0  0.57569  0.97267  0.84080  1.0000
  H   H1555     1.0  0.58133  0.91633  0.86890  1.0000
  C   C1967     1.0  0.60994  0.63229  0.91558  1.0000
  C   C1968     1.0  0.62077  0.60416  0.90859  1.0000
  C   C1969     1.0  0.63348  0.60663  0.91402  1.0000
  C   C1970     1.0  0.63547  0.63655  0.92688  1.0000
  C   C1971     1.0  0.62467  0.66481  0.93378  1.0000
  C   C1972     1.0  0.61200  0.66293  0.92808  1.0000
  H   H1556     1.0  0.61933  0.58050  0.89884  1.0000
  H   H1557     1.0  0.64176  0.58539  0.90842  1.0000
  H   H1558     1.0  0.62609  0.68824  0.94368  1.0000
  H   H1559     1.0  0.60380  0.68478  0.93358  1.0000
  C   C1973     1.0  0.52621  0.61951  0.88950  1.0000
  C   C1974     1.0  0.53666  0.59906  0.87821  1.0000
  C   C1975     1.0  0.53522  0.56012  0.87019  1.0000
  C   C1976     1.0  0.52332  0.54112  0.87339  1.0000
  C   C1977     1.0  0.51275  0.56188  0.88449  1.0000
  C   C1978     1.0  0.51418  0.60119  0.89236  1.0000
  H   H1560     1.0  0.54575  0.61387  0.87537  1.0000
  H   H1561     1.0  0.54334  0.54476  0.86130  1.0000
  H   H1562     1.0  0.51877  0.19930  0.85840  1.0000
  C   C1979     1.0  0.71489  0.22450  0.86851  1.0000
  H   H1563     1.0  0.72995  0.80536  0.86165  1.0000
  C   C1980     1.0  0.72606  0.20354  0.94475  1.0000
  C   C1981     1.0  0.71358  0.20384  0.88798  1.0000
  C   C1982     1.0  0.70295  0.17972  0.89456  1.0000
  C   C1983     1.0  0.69371  0.17533  0.88161  1.0000
  C   C1984     1.0  0.69506  0.19533  0.86217  1.0000
  C   C1985     1.0  0.70554  0.22018  0.85562  1.0000
  H   H1564     1.0  0.61945  0.47180  0.88231  1.0000
  C   C1986     1.0  0.73614  0.58524  0.82792  1.0000
  C   C1987     1.0  0.52499  0.84981  0.88597  1.0000
  H   H1565     1.0  0.56727  0.40628  0.93877  1.0000
  C   C1988     1.0  0.71518  0.35650  0.89350  1.0000
  H   H1566     1.0  0.71129  0.14972  0.76187  1.0000
  C   C1989     1.0  0.61901  0.50165  0.87204  1.0000
  H   H1567     1.0  0.72075  0.20657  0.89809  1.0000
  H   H1568     1.0  0.70199  0.16380  0.90958  1.0000
  H   H1569     1.0  0.68558  0.15602  0.88651  1.0000
  H   H1570     1.0  0.68801  0.19112  0.85210  1.0000
  C   C1990     1.0  0.62996  0.37440  0.83498  1.0000
  C   C1991     1.0  0.49893  0.55283  0.81700  1.0000
  H   H1571     1.0  0.49543  0.27627  0.97909  1.0000
  P   P65       1.0  0.72875  0.25515  0.86039  1.0000
  C   C1992     1.0  0.64802  0.45828  0.88390  1.0000
  C   C1993     1.0  0.65792  0.50162  0.84520  1.0000
  C   C1994     1.0  0.66559  0.52507  0.85509  1.0000
  C   C1995     1.0  0.67551  0.54818  0.84459  1.0000
  C   C1996     1.0  0.67800  0.54758  0.82422  1.0000
  C   C1997     1.0  0.67045  0.52427  0.81426  1.0000
  C   C1998     1.0  0.64531  0.49009  0.89721  1.0000
  C   C1999     1.0  0.64854  0.48006  0.91666  1.0000
  C   C2000     1.0  0.65438  0.43800  0.92304  1.0000
  C   C2001     1.0  0.65688  0.40588  0.91000  1.0000
  C   C2002     1.0  0.65375  0.41595  0.89047  1.0000
  S   S286      1.0  0.71059  0.56866  0.96917  1.0000
  H   H1572     1.0  0.66410  0.52530  0.87092  1.0000
  H   H1573     1.0  0.68148  0.56575  0.85237  1.0000
  H   H1574     1.0  0.68585  0.56488  0.81619  1.0000
  H   H1575     1.0  0.67244  0.52348  0.79848  1.0000
  H   H1576     1.0  0.64684  0.50528  0.92665  1.0000
  H   H1577     1.0  0.65725  0.43065  0.93794  1.0000
  H   H1578     1.0  0.66166  0.37360  0.91485  1.0000
  H   H1579     1.0  0.65617  0.39103  0.88048  1.0000
  H   H1580     1.0  0.55258  0.02133  0.85214  1.0000
  H   H1581     1.0  0.61851  0.05900  0.75559  1.0000
  C   C2003     1.0  0.52401  0.34199  0.76614  1.0000
  C   C2004     1.0  0.54639  0.45211  0.90461  1.0000
  C   C2005     1.0  0.55715  0.44787  0.91597  1.0000
  H   H1582     1.0  0.53375  0.33432  0.75910  1.0000
  P   P66       1.0  0.56644  0.49428  0.91585  1.0000
  C   C2006     1.0  0.56811  0.52400  0.89151  1.0000
  C   C2007     1.0  0.55713  0.52819  0.93322  1.0000
  C   C2008     1.0  0.54509  0.55124  0.92840  1.0000
  C   C2009     1.0  0.53731  0.57550  0.94207  1.0000
  C   C2010     1.0  0.54139  0.57640  0.96078  1.0000
  C   C2011     1.0  0.55329  0.55315  0.96580  1.0000
  C   C2012     1.0  0.56113  0.52896  0.95212  1.0000
  C   C2013     1.0  0.56974  0.56912  0.88918  1.0000
  C   C2014     1.0  0.57204  0.59154  0.87030  1.0000
  C   C2015     1.0  0.57272  0.56913  0.85367  1.0000
  C   C2016     1.0  0.57139  0.52398  0.85591  1.0000
  C   C2017     1.0  0.56921  0.50134  0.87477  1.0000
  C   C2018     1.0  0.58333  0.47970  0.92103  1.0000
  C   C2019     1.0  0.59005  0.43902  0.91671  1.0000
  C   C2020     1.0  0.60344  0.42962  0.91918  1.0000
  H   H1583     1.0  0.52653  0.68697  0.96188  1.0000
  C   C2021     1.0  0.72288  0.12594  0.94762  1.0000
  Fe  Fe146     1.0  0.50430  0.45470  0.86312  1.0000
  H   H1584     1.0  0.71581  0.10651  0.86721  1.0000
  H   H1585     1.0  0.59974  0.52612  0.88422  1.0000
  C   C2022     1.0  0.73723  0.19602  0.93168  1.0000
  H   H1586     1.0  0.54405  0.48195  0.89485  1.0000
  H   H1587     1.0  0.72940  0.68793  0.84206  1.0000
  H   H1588     1.0  0.54174  0.55067  0.91403  1.0000
  H   H1589     1.0  0.52833  0.59480  0.93784  1.0000
  H   H1590     1.0  0.73293  0.79159  0.95242  1.0000
  C   C2023     1.0  0.71889  0.03860  0.76937  1.0000
  C   C2024     1.0  0.54101  0.37928  0.91850  1.0000
  H   H1591     1.0  0.56936  0.58700  0.90190  1.0000
  H   H1592     1.0  0.57323  0.62641  0.86861  1.0000
  H   H1593     1.0  0.57430  0.58676  0.83905  1.0000
  H   H1594     1.0  0.56839  0.46623  0.87620  1.0000
  H   H1595     1.0  0.58505  0.41495  0.91097  1.0000
  H   H1596     1.0  0.60858  0.39814  0.91589  1.0000
  C   C2025     1.0  0.60377  0.50220  0.92922  1.0000
  C   C2026     1.0  0.70658  0.05563  0.88627  1.0000
  C   C2027     1.0  0.67388  0.09192  0.76207  1.0000
  C   C2028     1.0  0.61665  0.90450  0.85249  1.0000
  C   C2029     1.0  0.61451  0.93838  0.86463  1.0000
  C   C2030     1.0  0.61611  0.92895  0.88476  1.0000
  C   C2031     1.0  0.61970  0.88554  0.89283  1.0000
  C   C2032     1.0  0.62165  0.85119  0.88077  1.0000
  C   C2033     1.0  0.62030  0.86112  0.86048  1.0000
  P   P67       1.0  0.62560  0.79459  0.89112  1.0000
  C   C2034     1.0  0.64292  0.77688  0.88637  1.0000
  C   C2035     1.0  0.62100  0.78951  0.91742  1.0000
  C   C2036     1.0  0.63030  0.79218  0.93068  1.0000
  C   C2037     1.0  0.62676  0.78740  0.95102  1.0000
  C   C2038     1.0  0.61388  0.78073  0.95827  1.0000
  C   C2039     1.0  0.60449  0.77922  0.94517  1.0000
  C   C2040     1.0  0.60801  0.78370  0.92482  1.0000
  C   C2041     1.0  0.65087  0.80053  0.87185  1.0000
  C   C2042     1.0  0.66426  0.78643  0.86845  1.0000
  C   C2043     1.0  0.66982  0.74866  0.87946  1.0000
  C   C2044     1.0  0.66198  0.72501  0.89390  1.0000
  C   C2045     1.0  0.64862  0.73903  0.89735  1.0000
  C   C2046     1.0  0.61584  0.76019  0.88042  1.0000
  C   C2047     1.0  0.62036  0.71592  0.87832  1.0000
  C   C2048     1.0  0.61259  0.68942  0.87042  1.0000
  C   C2049     1.0  0.60023  0.70669  0.86468  1.0000
  C   C2050     1.0  0.59565  0.75066  0.86674  1.0000
  C   C2051     1.0  0.60336  0.77722  0.87467  1.0000
  C   C2052     1.0  0.73030  0.83986  0.82129  1.0000
  H   H1597     1.0  0.61439  0.95527  0.89415  1.0000
  H   H1598     1.0  0.62071  0.87888  0.90849  1.0000
  H   H1599     1.0  0.62176  0.83516  0.85090  1.0000
  H   H1600     1.0  0.64031  0.79762  0.92538  1.0000
  H   H1601     1.0  0.63405  0.78849  0.96119  1.0000
  H   H1602     1.0  0.61115  0.77662  0.97403  1.0000
  H   H1603     1.0  0.59448  0.77414  0.95078  1.0000
  H   H1604     1.0  0.60057  0.78235  0.91496  1.0000
  H   H1605     1.0  0.64680  0.82983  0.86316  1.0000
  H   H1606     1.0  0.67036  0.80472  0.85725  1.0000
  H   H1607     1.0  0.68019  0.73758  0.87682  1.0000
  H   H1608     1.0  0.66625  0.69563  0.90244  1.0000
  H   H1609     1.0  0.64273  0.72028  0.90863  1.0000
  H   H1610     1.0  0.62969  0.70124  0.88318  1.0000
  H   H1611     1.0  0.61598  0.65499  0.86948  1.0000
  H   H1612     1.0  0.59407  0.68578  0.85912  1.0000
  H   H1613     1.0  0.58599  0.76415  0.86260  1.0000
  H   H1614     1.0  0.59940  0.81083  0.87665  1.0000
  C   C2053     1.0  0.53019  0.98315  0.88868  1.0000
  C   C2054     1.0  0.54860  0.90517  0.91473  1.0000
  C   C2055     1.0  0.55695  0.88032  0.92777  1.0000
  C   C2056     1.0  0.55182  0.85281  0.94381  1.0000
  C   C2057     1.0  0.54057  0.98258  0.87370  1.0000
  C   C2058     1.0  0.54475  0.02207  0.86401  1.0000
  C   C2059     1.0  0.53867  0.06253  0.86926  1.0000
  C   C2060     1.0  0.52842  0.06354  0.88430  1.0000
  C   C2061     1.0  0.52418  0.02406  0.89398  1.0000
  H   H1615     1.0  0.55290  0.92483  0.90202  1.0000
  H   H1616     1.0  0.56747  0.88111  0.92494  1.0000
  H   H1617     1.0  0.51409  0.23639  0.79173  1.0000
  C   C2062     1.0  0.71471  0.11645  0.75855  1.0000
  C   C2063     1.0  0.67094  0.70350  0.97367  1.0000
  H   H1618     1.0  0.54185  0.09306  0.86154  1.0000
  H   H1619     1.0  0.52368  0.09503  0.88827  1.0000
  C   C2064     1.0  0.73791  0.25321  0.80065  1.0000
  H   H1620     1.0  0.52566  0.78650  0.87524  1.0000
  C   C2065     1.0  0.49847  0.34500  0.97688  1.0000
  C   C2066     1.0  0.72601  0.08597  0.89315  1.0000
  H   H1621     1.0  0.71017  0.17447  0.96271  1.0000
  C   C2067     1.0  0.50719  0.13788  0.78035  1.0000
  C   C2068     1.0  0.52834  0.44543  0.96693  1.0000
  C   C2069     1.0  0.51812  0.43360  0.98108  1.0000
  H   H1622     1.0  0.51139  0.10369  0.78094  1.0000
  P   P68       1.0  0.50171  0.43464  0.97400  1.0000
  H   H1623     1.0  0.74102  0.89898  0.75866  1.0000
  C   C2070     1.0  0.49743  0.48089  0.95603  1.0000
  C   C2071     1.0  0.73583  0.33790  0.86496  1.0000
  C   C2072     1.0  0.51123  0.65616  0.98066  1.0000
  H   H1624     1.0  0.72224  0.42007  0.89217  1.0000
  H   H1625     1.0  0.50519  0.58470  0.93867  1.0000
  C   C2073     1.0  0.50379  0.51947  0.95416  1.0000
  C   C2074     1.0  0.50875  0.21320  0.78606  1.0000
  C   C2075     1.0  0.50927  0.68691  0.94673  1.0000
  C   C2076     1.0  0.73148  0.29319  0.79282  1.0000
  C   C2077     1.0  0.50339  0.57442  0.83133  1.0000
  H   H1626     1.0  0.70630  0.23567  0.84052  1.0000
  C   C2078     1.0  0.55146  0.37521  0.93029  1.0000
  H   H1627     1.0  0.53553  0.59603  0.97121  1.0000
  H   H1628     1.0  0.55831  0.83253  0.95360  1.0000
  C   C2079     1.0  0.68854  0.71333  0.99301  1.0000
  H   H1629     1.0  0.71643  0.00906  0.93055  1.0000
  H   H1630     1.0  0.50573  0.53084  0.80868  1.0000
  H   H1631     1.0  0.51346  0.70378  0.93309  1.0000
  C   C2080     1.0  0.68344  0.06373  0.75257  1.0000
  C   C2081     1.0  0.69507  0.73545  0.97635  1.0000
  H   H1632     1.0  0.72083  0.61582  0.84729  1.0000
  H   H1633     1.0  0.74275  0.22322  0.92543  1.0000
  H   H1634     1.0  0.66183  0.68997  0.97244  1.0000
  C   C2082     1.0  0.72522  0.85580  0.94019  1.0000
  C   C2083     1.0  0.73719  0.24142  0.82107  1.0000
  H   H1635     1.0  0.64011  0.08707  0.74973  1.0000
  H   H1636     1.0  0.51147  0.52224  0.96339  1.0000
  H   H1637     1.0  0.54528  0.95156  0.86928  1.0000
  C   C2084     1.0  0.71862  0.83269  0.81415  1.0000
  H   H1638     1.0  0.72297  0.23654  0.94870  1.0000
  C   C2085     1.0  0.50079  0.30245  0.94908  1.0000
  C   C2086     1.0  0.60783  0.53218  0.87314  1.0000
  H   H1639     1.0  0.71604  0.74952  0.85434  1.0000
  C   C2087     1.0  0.54387  0.42871  0.99172  1.0000
  C   C2088     1.0  0.72647  0.05817  0.91095  1.0000
  C   C2089     1.0  0.55945  0.40950  0.92916  1.0000
  H   H1640     1.0  0.62070  0.45408  0.92723  1.0000
  H   H1641     1.0  0.58564  0.54423  0.92910  1.0000
  H   H1642     1.0  0.73124  0.87116  0.82645  1.0000
  H   H1643     1.0  0.60911  0.52730  0.93356  1.0000
  H   H1644     1.0  0.49801  0.61726  0.85399  1.0000
  P   P69       1.0  0.71100  0.75360  0.97754  1.0000
  C   C2090     1.0  0.71227  0.80522  0.96191  1.0000
  C   C2091     1.0  0.72366  0.71215  0.96933  1.0000
  C   C2092     1.0  0.54112  0.44353  0.97234  1.0000
  H   H1645     1.0  0.51368  0.56948  0.83398  1.0000
  C   C2093     1.0  0.62970  0.51029  0.85815  1.0000
  C   C2094     1.0  0.73067  0.64906  0.95124  1.0000
  C   C2095     1.0  0.72091  0.68158  0.95716  1.0000
  C   C2096     1.0  0.72429  0.81517  0.95173  1.0000
  C   C2097     1.0  0.73460  0.66133  0.83451  1.0000
  C   C2098     1.0  0.71418  0.88661  0.93854  1.0000
  C   C2099     1.0  0.70219  0.87711  0.94871  1.0000
  C   C2100     1.0  0.70124  0.83668  0.96044  1.0000
  C   C2101     1.0  0.72347  0.03070  0.75006  1.0000
  C   C2102     1.0  0.68936  0.74152  0.95833  1.0000
  C   C2103     1.0  0.67730  0.72590  0.95707  1.0000
  C   C2104     1.0  0.51408  0.16908  0.78678  1.0000
  H   H1646     1.0  0.71711  0.09922  0.95364  1.0000
  H   H1647     1.0  0.71873  0.01159  0.78115  1.0000
  C   C2105     1.0  0.72381  0.38803  0.88669  1.0000
  P   P70       1.0  0.73869  0.06366  0.92721  1.0000
  H   H1648     1.0  0.50032  0.27165  0.94314  1.0000
  C   C2106     1.0  0.52103  0.38047  0.77535  1.0000
  H   H1649     1.0  0.50682  0.40840  0.93384  1.0000
  H   H1650     1.0  0.52648  0.45597  0.95170  1.0000
  H   H1651     1.0  0.49544  0.28043  0.81831  1.0000
  C   C2107     1.0  0.50644  0.95779  0.93097  1.0000
  H   H1652     1.0  0.72835  0.62511  0.94213  1.0000
  H   H1653     1.0  0.71121  0.68195  0.95242  1.0000
  H   H1654     1.0  0.65698  0.13947  0.75897  1.0000
  C   C2108     1.0  0.66423  0.11730  0.75145  1.0000
  H   H1655     1.0  0.51696  0.65048  0.99329  1.0000
  H   H1656     1.0  0.69360  0.90090  0.94740  1.0000
  H   H1657     1.0  0.57018  0.51057  0.95647  1.0000
  H   H1658     1.0  0.69441  0.75717  0.94510  1.0000
  H   H1659     1.0  0.67308  0.72967  0.94305  1.0000
  H   H1660     1.0  0.50349  0.54778  0.88687  1.0000
  C   C2109     1.0  0.49679  0.93956  0.90272  1.0000
  H   H1661     1.0  0.53441  0.82801  0.95908  1.0000
  H   H1662     1.0  0.69937  0.00578  0.90831  1.0000
  H   H1663     1.0  0.51496  0.96170  0.93835  1.0000
  S   S287      1.0  0.50666  0.28704  0.86399  1.0000
  H   H1664     1.0  0.62045  0.36482  0.83294  1.0000
  C   C2110     1.0  0.71740  0.79208  0.80772  1.0000
  H   H1665     1.0  0.59881  0.59583  0.86183  1.0000
  C   C2111     1.0  0.73421  0.11799  0.93479  1.0000
  H   H1666     1.0  0.71048  0.85850  0.81371  1.0000
  C   C2112     1.0  0.70685  0.02809  0.90410  1.0000
  H   H1667     1.0  0.70835  0.78647  0.80216  1.0000
  C   C2113     1.0  0.50856  0.38975  0.78495  1.0000
  H   H1668     1.0  0.57194  0.50653  0.84302  1.0000
  H   H1669     1.0  0.62190  0.43085  0.84939  1.0000
  C   C2114     1.0  0.71667  0.02964  0.91655  1.0000
  C   C2115     1.0  0.49913  0.36031  0.78560  1.0000
  C   C2116     1.0  0.71887  0.16854  0.95267  1.0000
  C   C2117     1.0  0.72966  0.62031  0.83745  1.0000
  H   H1670     1.0  0.73177  0.30190  0.77697  1.0000
  H   H1671     1.0  0.51710  0.28289  0.75946  1.0000
  H   H1672     1.0  0.73868  0.73252  0.98500  1.0000
  C   C2118     1.0  0.71443  0.08140  0.77357  1.0000
  H   H1673     1.0  0.72666  0.72707  0.80375  1.0000
  H   H1674     1.0  0.72970  0.91385  0.79125  1.0000
  C   C2119     1.0  0.53846  0.41780  0.90572  1.0000
  S   S288      1.0  0.52229  0.49160  0.86316  1.0000
  H   H1675     1.0  0.61527  0.91185  0.83692  1.0000
  H   H1676     1.0  0.51968  0.94918  0.85795  1.0000
  H   H1677     1.0  0.64068  0.32057  0.82064  1.0000
  C   C2120     1.0  0.50799  0.94308  0.91221  1.0000
  C   C2121     1.0  0.53500  0.90277  0.91768  1.0000
  H   H1678     1.0  0.64106  0.52308  0.89235  1.0000
  H   H1679     1.0  0.73707  0.16257  0.85634  1.0000
  H   H1680     1.0  0.53033  0.42122  0.89657  1.0000
  H   H1681     1.0  0.61153  0.97191  0.85842  1.0000
  C   C2122     1.0  0.52093  0.91378  0.86200  1.0000
  C   C2123     1.0  0.64135  0.34935  0.82807  1.0000
  P   P71       1.0  0.52423  0.93182  0.90001  1.0000
  C   C2124     1.0  0.71674  0.31580  0.88592  1.0000
  C   C2125     1.0  0.66038  0.50166  0.82466  1.0000
  H   H1682     1.0  0.70696  0.36449  0.90415  1.0000
  C   C2126     1.0  0.53831  0.85025  0.94688  1.0000
  H   H1683     1.0  0.51957  0.87084  0.93607  1.0000
  C   C2127     1.0  0.50211  0.32120  0.77671  1.0000
  C   C2128     1.0  0.52994  0.87483  0.93383  1.0000
  H   H1684     1.0  0.71736  0.33113  0.83524  1.0000
  H   H1685     1.0  0.70953  0.29298  0.89082  1.0000
  H   H1686     1.0  0.52687  0.83505  0.90068  1.0000
  H   H1687     1.0  0.69096  0.04443  0.76082  1.0000
  C   C2129     1.0  0.73633  0.70943  0.97555  1.0000
  C   C2130     1.0  0.51456  0.31259  0.76664  1.0000
  H   H1688     1.0  0.74074  0.40347  0.86703  1.0000
  C   C2131     1.0  0.51667  0.67722  0.96294  1.0000
  S   S289      1.0  0.49961  0.40023  0.88700  1.0000
  C   C2132     1.0  0.52345  0.89591  0.88128  1.0000
  C   C2133     1.0  0.52016  0.88594  0.84762  1.0000
  H   H1689     1.0  0.73325  0.10896  0.88885  1.0000
  H   H1690     1.0  0.55653  0.55446  0.98023  1.0000
  C   C2134     1.0  0.65456  0.39885  0.83996  1.0000
  H   H1691     1.0  0.66416  0.40796  0.84169  1.0000
  C   C2135     1.0  0.74125  0.15348  0.92660  1.0000
  H   H1692     1.0  0.66250  0.34229  0.82521  1.0000
  C   C2136     1.0  0.60725  0.57147  0.86042  1.0000
  H   H1693     1.0  0.50618  0.41960  0.79209  1.0000
  H   H1694     1.0  0.65456  0.48412  0.81664  1.0000
  H   H1695     1.0  0.53486  0.35268  0.91926  1.0000
  H   H1696     1.0  0.71493  0.91754  0.92916  1.0000
  C   C2137     1.0  0.64319  0.42457  0.84672  1.0000
  H   H1697     1.0  0.69896  0.05472  0.87660  1.0000
  C   C2138     1.0  0.72337  0.30938  0.82583  1.0000
  C   C2139     1.0  0.65364  0.36155  0.83062  1.0000
  C   C2140     1.0  0.50130  0.38299  0.96418  1.0000
  C   C2141     1.0  0.71613  0.08468  0.88088  1.0000
  H   H1698     1.0  0.63693  0.55707  0.83422  1.0000
  C   C2142     1.0  0.52187  0.84013  0.85236  1.0000
  C   C2143     1.0  0.63085  0.41184  0.84432  1.0000
  C   C2144     1.0  0.72715  0.30603  0.87164  1.0000
  H   H1699     1.0  0.71882  0.35154  0.79937  1.0000
  H   H1700     1.0  0.55332  0.34549  0.94036  1.0000
  C   C2145     1.0  0.72420  0.32119  0.80541  1.0000
  H   H1701     1.0  0.52152  0.81861  0.84112  1.0000
  H   H1702     1.0  0.72982  0.74543  0.92153  1.0000
  C   C2146     1.0  0.50434  0.37986  0.94393  1.0000
  C   C2147     1.0  0.73003  0.26972  0.83389  1.0000
  H   H1703     1.0  0.61719  0.61035  0.83636  1.0000
  C   C2148     1.0  0.59039  0.51157  0.92686  1.0000
  H   H1704     1.0  0.69190  0.82993  0.96837  1.0000
  H   H1705     1.0  0.73448  0.86297  0.93210  1.0000
  H   H1706     1.0  0.54890  0.45322  0.96145  1.0000
  C   C2149     1.0  0.52423  0.82207  0.87156  1.0000
  H   H1707     1.0  0.71071  0.08751  0.78845  1.0000
  C   C2150     1.0  0.61767  0.57982  0.84622  1.0000
  H   H1708     1.0  0.51611  0.02587  0.90535  1.0000
  H   H1709     1.0  0.52355  0.15914  0.79247  1.0000
  C   C2151     1.0  0.73417  0.37868  0.87248  1.0000
  H   H1710     1.0  0.67400  0.09451  0.77767  1.0000
  H   H1711     1.0  0.52841  0.40288  0.77525  1.0000
  H   H1712     1.0  0.51855  0.90000  0.83265  1.0000
  C   C2152     1.0  0.49638  0.67605  0.94829  1.0000
  H   H1713     1.0  0.73229  0.55342  0.83027  1.0000
  C   C2153     1.0  0.50016  0.55520  0.94034  1.0000
  C   C2154     1.0  0.49453  0.60130  0.84263  1.0000
  C   C2155     1.0  0.49842  0.64378  0.98221  1.0000
  C   C2156     1.0  0.70999  0.58705  0.99327  1.0000
  C   C2157     1.0  0.74317  0.64622  0.95768  1.0000
  H   H1714     1.0  0.72696  0.99726  0.74734  1.0000
  C   C2158     1.0  0.73895  0.02064  0.94770  1.0000
  C   C2159     1.0  0.49805  0.30506  0.96930  1.0000
  C   C2160     1.0  0.73973  0.03035  0.96698  1.0000
  C   C2161     1.0  0.74313  0.21930  0.86741  1.0000
  H   H1715     1.0  0.73971  0.06406  0.97007  1.0000
  H   H1716     1.0  0.49769  0.92918  0.88810  1.0000
  H   H1717     1.0  0.73767  0.96797  0.81006  1.0000
  H   H1718     1.0  0.54988  0.64431  0.98734  1.0000
  C   C2162     1.0  0.74117  0.99617  0.98240  1.0000
  C   C2163     1.0  0.73805  0.93108  0.78518  1.0000
  H   H1719     1.0  0.55924  0.23860  0.74638  1.0000
  H   H1720     1.0  0.74319  0.11659  0.82623  1.0000
  H   H1721     1.0  0.74021  0.96803  0.92910  1.0000
  S   S290      1.0  0.74059  0.81891  0.89800  1.0000
  C   C2164     1.0  0.74147  0.94230  0.95947  1.0000
  H   H1722     1.0  0.74278  0.14093  0.76351  1.0000
  C   C2165     1.0  0.74007  0.97631  0.94402  1.0000
  C   C2166     1.0  0.74206  0.95220  0.97862  1.0000
  H   H1723     1.0  0.50622  0.33733  0.92079  1.0000
  C   C2167     1.0  0.50407  0.33967  0.93645  1.0000
  H   H1724     1.0  0.74250  0.90819  0.95654  1.0000
  H   H1725     1.0  0.74218  0.21015  0.82659  1.0000
  H   H1726     1.0  0.74324  0.23098  0.79084  1.0000
  C   C2168     1.0  0.73940  0.76492  0.81648  1.0000
  C   C2169     1.0  0.74071  0.80627  0.82229  1.0000
  C   C2170     1.0  0.74250  0.96159  0.79571  1.0000
  C   C2171     1.0  0.49666  0.22685  0.77831  1.0000
  H   H1727     1.0  0.51460  0.56458  0.99213  1.0000
  C   C2172     1.0  0.67653  0.69741  0.99164  1.0000
  H   H1728     1.0  0.74358  0.92573  0.99039  1.0000
  H   H1729     1.0  0.49639  0.34627  0.99261  1.0000
  C   C2173     1.0  0.49485  0.15072  0.77352  1.0000
  H   H1730     1.0  0.74371  0.33158  0.85358  1.0000
  H   H1731     1.0  0.64715  0.31828  0.74463  1.0000
  S   S291      1.0  0.97990  0.25968  0.10785  1.0000
  C   C2174     1.0  0.89534  0.06651  0.15777  1.0000
  Fe  Fe147     1.0  0.94335  0.90761  0.05975  1.0000
  S   S292      1.0  0.95801  0.84877  0.05598  1.0000
  S   S293      1.0  0.94865  0.97660  0.06275  1.0000
  Fe  Fe148     1.0  0.92051  0.85851  0.05112  1.0000
  S   S294      1.0  0.93414  0.79668  0.04580  1.0000
  S   S295      1.0  0.89832  0.85330  0.05405  1.0000
  Fe  Fe149     1.0  0.94302  0.80688  0.07328  1.0000
  S   S296      1.0  0.94837  0.75641  0.10010  1.0000
  Fe  Fe150     1.0  0.94797  0.84348  0.02880  1.0000
  H   H1732     1.0  0.81900  0.14024  0.03931  1.0000
  S   S297      1.0  0.92903  0.86706  0.07907  1.0000
  S   S298      1.0  0.93367  0.90394  0.03207  1.0000
  Fe  Fe151     1.0  0.91010  0.46351  0.19419  1.0000
  S   S299      1.0  0.92151  0.45417  0.16498  1.0000
  S   S300      1.0  0.88760  0.46442  0.20045  1.0000
  Fe  Fe152     1.0  0.93463  0.48625  0.21209  1.0000
  S   S301      1.0  0.94725  0.48018  0.18347  1.0000
  C   C2175     1.0  0.75846  0.80483  0.08169  1.0000
  Fe  Fe153     1.0  0.93044  0.51705  0.16772  1.0000
  S   S302      1.0  0.93153  0.56622  0.13903  1.0000
  Fe  Fe154     1.0  0.93766  0.41851  0.18262  1.0000
  S   S303      1.0  0.95066  0.35318  0.18069  1.0000
  S   S304      1.0  0.91828  0.52785  0.19639  1.0000
  S   S305      1.0  0.92559  0.42329  0.21192  1.0000
  Fe  Fe155     1.0  0.82491  0.98003  0.04413  1.0000
  S   S306      1.0  0.81145  0.03996  0.03336  1.0000
  S   S307      1.0  0.84690  0.98529  0.03616  1.0000
  Fe  Fe156     1.0  0.80170  0.93374  0.06488  1.0000
  S   S308      1.0  0.78711  0.99151  0.05612  1.0000
  S   S309      1.0  0.79697  0.86763  0.08217  1.0000
  Fe  Fe157     1.0  0.79828  0.99161  0.02571  1.0000
  Fe  Fe158     1.0  0.80161  0.03512  0.06459  1.0000
  S   S310      1.0  0.79567  0.09860  0.08079  1.0000
  S   S311      1.0  0.81241  0.93258  0.03451  1.0000
  S   S312      1.0  0.81547  0.97660  0.07535  1.0000
  Fe  Fe159     1.0  0.82423  0.33536  0.18239  1.0000
  S   S313      1.0  0.81667  0.26956  0.19325  1.0000
  S   S314      1.0  0.84652  0.33908  0.17950  1.0000
  Fe  Fe160     1.0  0.79661  0.37749  0.17465  1.0000
  S   S315      1.0  0.78753  0.31404  0.18426  1.0000
  S   S316      1.0  0.78338  0.44232  0.17269  1.0000
  Fe  Fe161     1.0  0.79995  0.30850  0.20986  1.0000
  H   H1733     1.0  0.77648  0.64674  0.04931  1.0000
  Fe  Fe162     1.0  0.80492  0.28024  0.16660  1.0000
  S   S317      1.0  0.80619  0.22149  0.14730  1.0000
  S   S318      1.0  0.80843  0.37265  0.20076  1.0000
  S   S319      1.0  0.81309  0.34513  0.15522  1.0000
  C   C2176     1.0  0.76634  0.53982  0.13533  1.0000
  C   C2177     1.0  0.77023  0.51310  0.15230  1.0000
  C   C2178     1.0  0.77931  0.47552  0.15082  1.0000
  C   C2179     1.0  0.78497  0.46594  0.13224  1.0000
  C   C2180     1.0  0.92925  0.71260  0.19515  1.0000
  H   H1734     1.0  0.76601  0.52120  0.16666  1.0000
  C   C2181     1.0  0.79893  0.13167  0.09955  1.0000
  C   C2182     1.0  0.79139  0.17273  0.10133  1.0000
  C   C2183     1.0  0.79349  0.20022  0.11564  1.0000
  C   C2184     1.0  0.80321  0.18738  0.12873  1.0000
  C   C2185     1.0  0.81080  0.14635  0.12694  1.0000
  C   C2186     1.0  0.80873  0.11888  0.11254  1.0000
  H   H1735     1.0  0.78380  0.18346  0.09150  1.0000
  H   H1736     1.0  0.78752  0.23141  0.11654  1.0000
  H   H1737     1.0  0.81834  0.13564  0.13680  1.0000
  H   H1738     1.0  0.81473  0.08774  0.11152  1.0000
  C   C2187     1.0  0.78208  0.84403  0.08164  1.0000
  C   C2188     1.0  0.77119  0.86834  0.07355  1.0000
  C   C2189     1.0  0.76930  0.78051  0.09003  1.0000
  C   C2190     1.0  0.78101  0.80018  0.09011  1.0000
  H   H1739     1.0  0.76866  0.74664  0.09635  1.0000
  H   H1740     1.0  0.78932  0.78137  0.09669  1.0000
  C   C2191     1.0  0.87632  0.42941  0.19428  1.0000
  C   C2192     1.0  0.88047  0.39118  0.18524  1.0000
  C   C2193     1.0  0.87120  0.36420  0.18089  1.0000
  C   C2194     1.0  0.85764  0.37493  0.18542  1.0000
  C   C2195     1.0  0.85345  0.41330  0.19441  1.0000
  C   C2196     1.0  0.86273  0.44028  0.19878  1.0000
  H   H1741     1.0  0.89085  0.38222  0.18168  1.0000
  H   H1742     1.0  0.87459  0.33469  0.17394  1.0000
  H   H1743     1.0  0.84308  0.42218  0.19796  1.0000
  H   H1744     1.0  0.85937  0.46977  0.20574  1.0000
  C   C2197     1.0  0.94311  0.70423  0.11094  1.0000
  C   C2198     1.0  0.93519  0.68061  0.10167  1.0000
  C   C2199     1.0  0.93178  0.63875  0.11051  1.0000
  C   C2200     1.0  0.93602  0.61989  0.12891  1.0000
  C   C2201     1.0  0.94390  0.64358  0.13820  1.0000
  C   C2202     1.0  0.94741  0.68527  0.12929  1.0000
  H   H1745     1.0  0.93182  0.69434  0.08755  1.0000
  H   H1746     1.0  0.92581  0.62078  0.10298  1.0000
  H   H1747     1.0  0.94753  0.62943  0.15207  1.0000
  H   H1748     1.0  0.95363  0.70280  0.13660  1.0000
  C   C2203     1.0  0.88421  0.89054  0.04851  1.0000
  C   C2204     1.0  0.87169  0.87594  0.05340  1.0000
  C   C2205     1.0  0.86017  0.90434  0.04978  1.0000
  C   C2206     1.0  0.86103  0.94783  0.04117  1.0000
  C   C2207     1.0  0.87355  0.96231  0.03610  1.0000
  C   C2208     1.0  0.88507  0.93386  0.03966  1.0000
  H   H1749     1.0  0.87090  0.84240  0.06008  1.0000
  H   H1750     1.0  0.85063  0.89263  0.05362  1.0000
  H   H1751     1.0  0.87433  0.99569  0.02921  1.0000
  H   H1752     1.0  0.89457  0.94530  0.03528  1.0000
  C   C2209     1.0  0.97172  0.28498  0.12825  1.0000
  C   C2210     1.0  0.96306  0.32357  0.12486  1.0000
  C   C2211     1.0  0.95646  0.34474  0.14071  1.0000
  C   C2212     1.0  0.95847  0.32753  0.16014  1.0000
  C   C2213     1.0  0.96698  0.28857  0.16353  1.0000
  C   C2214     1.0  0.97364  0.26752  0.14770  1.0000
  H   H1753     1.0  0.96136  0.33692  0.10989  1.0000
  H   H1754     1.0  0.94967  0.37386  0.13793  1.0000
  H   H1755     1.0  0.96849  0.27455  0.17849  1.0000
  H   H1756     1.0  0.98026  0.23785  0.15055  1.0000
  C   C2215     1.0  0.98073  0.01625  0.09706  1.0000
  C   C2216     1.0  0.97850  0.97166  0.09801  1.0000
  C   C2217     1.0  0.96892  0.95881  0.08730  1.0000
  C   C2218     1.0  0.96137  0.99058  0.07563  1.0000
  C   C2219     1.0  0.96370  0.03514  0.07445  1.0000
  C   C2220     1.0  0.97336  0.04793  0.08504  1.0000
  H   H1757     1.0  0.96727  0.92442  0.08832  1.0000
  H   H1758     1.0  0.95788  0.06000  0.06552  1.0000
  H   H1759     1.0  0.97484  0.08238  0.08440  1.0000
  C   C2221     1.0  0.92604  0.88317  0.15288  1.0000
  C   C2222     1.0  0.93533  0.85838  0.14123  1.0000
  C   C2223     1.0  0.94077  0.87790  0.12320  1.0000
  C   C2224     1.0  0.93678  0.92198  0.11666  1.0000
  C   C2225     1.0  0.92729  0.94691  0.12808  1.0000
  C   C2226     1.0  0.92206  0.92739  0.14640  1.0000
  P   P72       1.0  0.92220  0.00369  0.11917  1.0000
  C   C2227     1.0  0.90709  0.02267  0.13302  1.0000
  C   C2228     1.0  0.93492  0.03838  0.12141  1.0000
  C   C2229     1.0  0.94717  0.01977  0.12754  1.0000
  C   C2230     1.0  0.95669  0.04688  0.13011  1.0000
  C   C2231     1.0  0.95425  0.09267  0.12618  1.0000
  C   C2232     1.0  0.94213  0.11156  0.12008  1.0000
  C   C2233     1.0  0.93246  0.08460  0.11786  1.0000
  C   C2234     1.0  0.90713  0.05087  0.14763  1.0000
  C   C2235     1.0  0.89512  0.00885  0.12945  1.0000
  C   C2236     1.0  0.91853  0.00478  0.09386  1.0000
  C   C2237     1.0  0.92122  0.04036  0.07958  1.0000
  C   C2238     1.0  0.91807  0.04072  0.06020  1.0000
  C   C2239     1.0  0.91228  0.00556  0.05490  1.0000
  C   C2240     1.0  0.90967  0.96993  0.06896  1.0000
  C   C2241     1.0  0.91277  0.96950  0.08831  1.0000
  H   H1760     1.0  0.92195  0.86811  0.16697  1.0000
  H   H1761     1.0  0.93840  0.82407  0.14611  1.0000
  H   H1762     1.0  0.94801  0.85868  0.11417  1.0000
  H   H1763     1.0  0.94107  0.93661  0.10260  1.0000
  H   H1764     1.0  0.91493  0.94611  0.15569  1.0000
  H   H1765     1.0  0.94952  0.98443  0.13036  1.0000
  H   H1766     1.0  0.96183  0.11339  0.12775  1.0000
  H   H1767     1.0  0.94027  0.14715  0.11712  1.0000
  H   H1768     1.0  0.92305  0.09980  0.11344  1.0000
  H   H1769     1.0  0.91622  0.06079  0.15130  1.0000
  H   H1770     1.0  0.89481  0.98594  0.11885  1.0000
  H   H1771     1.0  0.92614  0.06713  0.08302  1.0000
  H   H1772     1.0  0.92051  0.06757  0.04913  1.0000
  H   H1773     1.0  0.91012  0.00531  0.03980  1.0000
  H   H1774     1.0  0.90554  0.94199  0.06477  1.0000
  H   H1775     1.0  0.91083  0.94114  0.09884  1.0000
  H   H1776     1.0  0.81515  0.83349  0.03314  1.0000
  C   C2242     1.0  0.96191  0.04755  0.00115  1.0000
  C   C2243     1.0  0.99131  0.23654  0.21033  1.0000
  C   C2244     1.0  0.74711  0.57553  0.22807  1.0000
  C   C2245     1.0  0.76104  0.93011  0.02504  1.0000
  H   H1777     1.0  0.98090  0.46836  0.19397  1.0000
  S   S320      1.0  0.94434  0.50703  0.23783  1.0000
  C   C2246     1.0  0.77764  0.32077  0.13338  1.0000
  H   H1778     1.0  0.79199  0.82054  0.03362  1.0000
  H   H1779     1.0  0.78586  0.52620  0.18929  1.0000
  C   C2247     1.0  0.77723  0.68715  0.14217  1.0000
  C   C2248     1.0  0.79781  0.82565  0.01955  1.0000
  C   C2249     1.0  0.77618  0.67859  0.04038  1.0000
  H   H1780     1.0  0.86237  0.60438  0.10851  1.0000
  C   C2250     1.0  0.84244  0.59475  0.11973  1.0000
  H   H1781     1.0  0.76483  0.83374  0.12417  1.0000
  H   H1782     1.0  0.97310  0.31614  0.20546  1.0000
  C   C2251     1.0  0.75956  0.40390  0.23787  1.0000
  C   C2252     1.0  0.98437  0.44202  0.10309  1.0000
  H   H1783     1.0  0.75615  0.40131  0.16165  1.0000
  H   H1784     1.0  0.78154  0.88421  0.18179  1.0000
  C   C2253     1.0  0.97689  0.16320  0.21539  1.0000
  H   H1785     1.0  0.98070  0.54246  0.17476  1.0000
  H   H1786     1.0  0.76834  0.42424  0.09694  1.0000
  C   C2254     1.0  0.77617  0.45275  0.22609  1.0000
  H   H1787     1.0  0.77929  0.90364  0.01106  1.0000
  C   C2255     1.0  0.81238  0.46724  0.22824  1.0000
  C   C2256     1.0  0.88949  0.55006  0.15965  1.0000
  H   H1788     1.0  0.78679  0.72608  0.99491  1.0000
  C   C2257     1.0  0.81095  0.83297  0.01934  1.0000
  C   C2258     1.0  0.83642  0.28879  0.23137  1.0000
  C   C2259     1.0  0.98925  0.91004  0.03123  1.0000
  S   S321      1.0  0.96260  0.83318  0.00161  1.0000
  S   S322      1.0  0.78617  0.99703  0.99843  1.0000
  C   C2260     1.0  0.82744  0.26130  0.24146  1.0000
  C   C2261     1.0  0.97479  0.19390  0.22911  1.0000
  C   C2262     1.0  0.98734  0.37282  0.08859  1.0000
  H   H1789     1.0  0.84138  0.28129  0.21725  1.0000
  C   C2263     1.0  0.95710  0.00638  0.00500  1.0000
  H   H1790     1.0  0.97130  0.13497  0.21724  1.0000
  H   H1791     1.0  0.78672  0.68311  0.13385  1.0000
  H   H1792     1.0  0.84554  0.34805  0.23076  1.0000
  H   H1793     1.0  0.81829  0.17395  0.07036  1.0000
  P   P73       1.0  0.77531  0.81446  0.00274  1.0000
  H   H1794     1.0  0.98412  0.94691  0.10731  1.0000
  H   H1795     1.0  0.79373  0.66124  0.18739  1.0000
  H   H1796     1.0  0.82568  0.40823  0.22755  1.0000
  H   H1797     1.0  0.87846  0.55641  0.18769  1.0000
  H   H1798     1.0  0.74591  0.53727  0.07393  1.0000
  C   C2264     1.0  0.76367  0.82818  0.15613  1.0000
  C   C2265     1.0  0.77089  0.65017  0.15000  1.0000
  C   C2266     1.0  0.81683  0.47040  0.10547  1.0000
  C   C2267     1.0  0.82279  0.43709  0.11846  1.0000
  C   C2268     1.0  0.82693  0.44740  0.13591  1.0000
  C   C2269     1.0  0.82498  0.49092  0.14047  1.0000
  C   C2270     1.0  0.81884  0.52456  0.12763  1.0000
  C   C2271     1.0  0.81493  0.51407  0.10993  1.0000
  P   P74       1.0  0.81684  0.58055  0.13389  1.0000
  C   C2272     1.0  0.83327  0.59267  0.13639  1.0000
  C   C2273     1.0  0.85533  0.60277  0.12143  1.0000
  C   C2274     1.0  0.85922  0.60801  0.13981  1.0000
  C   C2275     1.0  0.85025  0.60486  0.15655  1.0000
  C   C2276     1.0  0.83732  0.59704  0.15491  1.0000
  C   C2277     1.0  0.80916  0.62014  0.11556  1.0000
  C   C2278     1.0  0.81480  0.65909  0.10800  1.0000
  C   C2279     1.0  0.80844  0.69038  0.09455  1.0000
  C   C2280     1.0  0.79635  0.68336  0.08869  1.0000
  C   C2281     1.0  0.79052  0.64535  0.09650  1.0000
  C   C2282     1.0  0.79684  0.61402  0.10999  1.0000
  H   H1799     1.0  0.81365  0.46235  0.09193  1.0000
  H   H1800     1.0  0.82424  0.40325  0.11503  1.0000
  H   H1801     1.0  0.83168  0.42160  0.14591  1.0000
  H   H1802     1.0  0.82830  0.49828  0.15404  1.0000
  H   H1803     1.0  0.81047  0.53918  0.09947  1.0000
  H   H1804     1.0  0.86924  0.61388  0.14110  1.0000
  H   H1805     1.0  0.85340  0.60782  0.17086  1.0000
  H   H1806     1.0  0.83064  0.59363  0.16813  1.0000
  H   H1807     1.0  0.82400  0.66591  0.11258  1.0000
  H   H1808     1.0  0.81282  0.72034  0.08871  1.0000
  H   H1809     1.0  0.79144  0.70760  0.07824  1.0000
  H   H1810     1.0  0.78103  0.64036  0.09221  1.0000
  H   H1811     1.0  0.79205  0.58512  0.11615  1.0000
  H   H1812     1.0  0.98807  0.14484  0.18870  1.0000
  C   C2283     1.0  0.76843  0.84424  0.13692  1.0000
  C   C2284     1.0  0.77785  0.87420  0.13397  1.0000
  C   C2285     1.0  0.98986  0.54505  0.08792  1.0000
  H   H1813     1.0  0.74780  0.81984  0.01898  1.0000
  H   H1814     1.0  0.88779  0.51584  0.15968  1.0000
  C   C2286     1.0  0.77119  0.41232  0.22636  1.0000
  H   H1815     1.0  0.78146  0.88649  0.11909  1.0000
  C   C2287     1.0  0.76471  0.85690  0.01425  1.0000
  H   H1816     1.0  0.91284  0.75109  0.18228  1.0000
  C   C2288     1.0  0.88631  0.71616  0.19721  1.0000
  H   H1817     1.0  0.83731  0.08375  0.03064  1.0000
  H   H1818     1.0  0.95929  0.07159  0.01156  1.0000
  C   C2289     1.0  0.82644  0.15005  0.06641  1.0000
  C   C2290     1.0  0.83622  0.13685  0.07925  1.0000
  C   C2291     1.0  0.84647  0.10425  0.07465  1.0000
  C   C2292     1.0  0.84683  0.08569  0.05690  1.0000
  P   P75       1.0  0.85878  0.08442  0.09152  1.0000
  C   C2293     1.0  0.85317  0.10126  0.11559  1.0000
  C   C2294     1.0  0.86093  0.02494  0.09257  1.0000
  C   C2295     1.0  0.84990  0.00157  0.09371  1.0000
  C   C2296     1.0  0.85143  0.95562  0.09423  1.0000
  C   C2297     1.0  0.86398  0.93267  0.09354  1.0000
  C   C2298     1.0  0.87502  0.95569  0.09196  1.0000
  C   C2299     1.0  0.87354  0.00170  0.09143  1.0000
  C   C2300     1.0  0.84768  0.07180  0.13071  1.0000
  C   C2301     1.0  0.84295  0.08601  0.14898  1.0000
  C   C2302     1.0  0.84359  0.12970  0.15225  1.0000
  C   C2303     1.0  0.84905  0.15916  0.13731  1.0000
  C   C2304     1.0  0.85386  0.14502  0.11908  1.0000
  C   C2305     1.0  0.87420  0.10619  0.08298  1.0000
  C   C2306     1.0  0.88299  0.11148  0.09663  1.0000
  C   C2307     1.0  0.89507  0.12727  0.09016  1.0000
  C   C2308     1.0  0.89854  0.13749  0.07001  1.0000
  C   C2309     1.0  0.88995  0.13172  0.05631  1.0000
  C   C2310     1.0  0.87783  0.11610  0.06275  1.0000
  H   H1819     1.0  0.95958  0.38057  0.21749  1.0000
  C   C2311     1.0  0.74728  0.45761  0.17540  1.0000
  H   H1820     1.0  0.98206  0.02122  0.02879  1.0000
  H   H1821     1.0  0.83540  0.15133  0.09294  1.0000
  H   H1822     1.0  0.85447  0.05989  0.05314  1.0000
  H   H1823     1.0  0.84010  0.01893  0.09380  1.0000
  H   H1824     1.0  0.84290  0.93794  0.09451  1.0000
  H   H1825     1.0  0.86517  0.89717  0.09341  1.0000
  H   H1826     1.0  0.88471  0.93777  0.09050  1.0000
  H   H1827     1.0  0.88223  0.01891  0.08967  1.0000
  H   H1828     1.0  0.84677  0.03817  0.12840  1.0000
  H   H1829     1.0  0.83843  0.06351  0.16043  1.0000
  H   H1830     1.0  0.83952  0.14115  0.16616  1.0000
  H   H1831     1.0  0.82862  0.84782  0.00128  1.0000
  H   H1832     1.0  0.85779  0.16859  0.10750  1.0000
  H   H1833     1.0  0.88053  0.10343  0.11229  1.0000
  H   H1834     1.0  0.90172  0.13167  0.10079  1.0000
  H   H1835     1.0  0.90792  0.14970  0.06499  1.0000
  H   H1836     1.0  0.89268  0.13930  0.04067  1.0000
  H   H1837     1.0  0.87139  0.11168  0.05185  1.0000
  H   H1838     1.0  0.84924  0.19332  0.13972  1.0000
  H   H1839     1.0  0.76478  0.96089  0.02672  1.0000
  H   H1840     1.0  0.89322  0.69245  0.20492  1.0000
  H   H1841     1.0  0.77545  0.61738  0.14762  1.0000
  H   H1842     1.0  0.96558  0.64949  0.09573  1.0000
  C   C2312     1.0  0.77791  0.87279  0.16929  1.0000
  P   P76       1.0  0.97381  0.48807  0.11198  1.0000
  C   C2313     1.0  0.95725  0.48459  0.10638  1.0000
  C   C2314     1.0  0.97523  0.48288  0.13822  1.0000
  C   C2315     1.0  0.97535  0.44106  0.14926  1.0000
  C   C2316     1.0  0.97744  0.43594  0.16925  1.0000
  C   C2317     1.0  0.75159  0.85055  0.02056  1.0000
  C   C2318     1.0  0.87802  0.75297  0.16694  1.0000
  H   H1843     1.0  0.98633  0.65627  0.07439  1.0000
  C   C2319     1.0  0.94822  0.46400  0.12019  1.0000
  C   C2320     1.0  0.93581  0.45856  0.11488  1.0000
  C   C2321     1.0  0.93219  0.47488  0.09607  1.0000
  C   C2322     1.0  0.94106  0.49609  0.08236  1.0000
  C   C2323     1.0  0.95358  0.50056  0.08741  1.0000
  C   C2324     1.0  0.97817  0.54109  0.10021  1.0000
  C   C2325     1.0  0.74810  0.92314  0.03179  1.0000
  H   H1844     1.0  0.78037  0.29169  0.14344  1.0000
  C   C2326     1.0  0.98409  0.62414  0.08157  1.0000
  C   C2327     1.0  0.97239  0.62035  0.09361  1.0000
  C   C2328     1.0  0.96941  0.57903  0.10285  1.0000
  C   C2329     1.0  0.97762  0.33812  0.21322  1.0000
  H   H1845     1.0  0.83963  0.58997  0.10543  1.0000
  C   C2330     1.0  0.80625  0.58492  0.15642  1.0000
  H   H1846     1.0  0.76491  0.83135  0.18726  1.0000
  H   H1847     1.0  0.79076  0.38646  0.09446  1.0000
  H   H1848     1.0  0.97374  0.41238  0.14248  1.0000
  H   H1849     1.0  0.97692  0.40405  0.17784  1.0000
  H   H1850     1.0  0.97980  0.14789  0.05697  1.0000
  H   H1851     1.0  0.81041  0.46808  0.21298  1.0000
  C   C2331     1.0  0.97720  0.51944  0.14757  1.0000
  H   H1852     1.0  0.95068  0.45203  0.13499  1.0000
  H   H1853     1.0  0.92896  0.44172  0.12535  1.0000
  H   H1854     1.0  0.92250  0.47111  0.09218  1.0000
  H   H1855     1.0  0.93825  0.50889  0.06779  1.0000
  H   H1856     1.0  0.96042  0.51634  0.07646  1.0000
  H   H1857     1.0  0.98041  0.25348  0.23757  1.0000
  H   H1858     1.0  0.96755  0.18947  0.24163  1.0000
  H   H1859     1.0  0.96939  0.43210  0.23523  1.0000
  H   H1860     1.0  0.78526  0.45867  0.21723  1.0000
  H   H1861     1.0  0.96024  0.57662  0.11207  1.0000
  C   C2332     1.0  0.93638  0.67099  0.19792  1.0000
  C   C2333     1.0  0.93269  0.63570  0.18956  1.0000
  C   C2334     1.0  0.92189  0.64192  0.17838  1.0000
  C   C2335     1.0  0.90301  0.72077  0.13825  1.0000
  C   C2336     1.0  0.89492  0.71757  0.12332  1.0000
  C   C2337     1.0  0.89681  0.74220  0.10483  1.0000
  C   C2338     1.0  0.90669  0.77042  0.10115  1.0000
  C   C2339     1.0  0.91471  0.77395  0.11592  1.0000
  C   C2340     1.0  0.91299  0.74895  0.13432  1.0000
  H   H1862     1.0  0.94477  0.66596  0.20655  1.0000
  H   H1863     1.0  0.93822  0.60339  0.19166  1.0000
  H   H1864     1.0  0.91935  0.61421  0.17184  1.0000
  C   C2341     1.0  0.78351  0.37397  0.10571  1.0000
  H   H1865     1.0  0.89066  0.73954  0.09325  1.0000
  H   H1866     1.0  0.90823  0.78925  0.08676  1.0000
  H   H1867     1.0  0.92250  0.79533  0.11294  1.0000
  H   H1868     1.0  0.91961  0.75150  0.14522  1.0000
  H   H1869     1.0  0.74518  0.31729  0.11217  1.0000
  H   H1870     1.0  0.77179  0.90222  0.06721  1.0000
  H   H1871     1.0  0.79209  0.43737  0.13099  1.0000
  C   C2342     1.0  0.91458  0.68342  0.17569  1.0000
  H   H1872     1.0  0.75385  0.55182  0.22075  1.0000
  C   C2343     1.0  0.75853  0.65560  0.16044  1.0000
  C   C2344     1.0  0.90008  0.61406  0.14469  1.0000
  C   C2345     1.0  0.77196  0.53025  0.11675  1.0000
  C   C2346     1.0  0.78139  0.49357  0.11524  1.0000
  C   C2347     1.0  0.75943  0.84897  0.07383  1.0000
  H   H1873     1.0  0.75103  0.86827  0.06782  1.0000
  C   C2348     1.0  0.88336  0.02433  0.13968  1.0000
  C   C2349     1.0  0.76848  0.84273  0.17232  1.0000
  C   C2350     1.0  0.88697  0.61639  0.17603  1.0000
  H   H1874     1.0  0.96615  0.03229  0.13474  1.0000
  H   H1875     1.0  0.89544  0.08869  0.16884  1.0000
  C   C2351     1.0  0.91835  0.71879  0.18415  1.0000
  H   H1876     1.0  0.97124  0.95276  0.03368  1.0000
  H   H1877     1.0  0.80083  0.51801  0.15951  1.0000
  H   H1878     1.0  0.95072  0.99859  0.01831  1.0000
  P   P77       1.0  0.90004  0.69085  0.16249  1.0000
  C   C2352     1.0  0.79962  0.54927  0.16556  1.0000
  C   C2353     1.0  0.77126  0.72955  0.14475  1.0000
  H   H1879     1.0  0.97710  0.55212  0.13957  1.0000
  H   H1880     1.0  0.75905  0.56794  0.13661  1.0000
  C   C2354     1.0  0.88345  0.05353  0.15370  1.0000
  H   H1881     1.0  0.88713  0.69625  0.12597  1.0000
  C   C2355     1.0  0.86817  0.77717  0.17796  1.0000
  H   H1882     1.0  0.80888  0.65349  0.15733  1.0000
  H   H1883     1.0  0.78580  0.48617  0.10086  1.0000
  C   C2356     1.0  0.89488  0.63739  0.16056  1.0000
  H   H1884     1.0  0.77636  0.75745  0.13829  1.0000
  C   C2357     1.0  0.79103  0.55387  0.18255  1.0000
  H   H1885     1.0  0.86115  0.80088  0.17049  1.0000
  C   C2358     1.0  0.80405  0.62534  0.16441  1.0000
  H   H1886     1.0  0.75914  0.74314  0.19713  1.0000
  H   H1887     1.0  0.87417  0.01377  0.13668  1.0000
  C   C2359     1.0  0.89738  0.57063  0.14424  1.0000
  H   H1888     1.0  0.78217  0.59774  0.20350  1.0000
  H   H1889     1.0  0.87432  0.06585  0.16150  1.0000
  C   C2360     1.0  0.76932  0.89723  0.01625  1.0000
  H   H1890     1.0  0.79683  0.31985  0.11763  1.0000
  C   C2361     1.0  0.76935  0.75720  0.03678  1.0000
  C   C2362     1.0  0.75888  0.73540  0.15538  1.0000
  C   C2363     1.0  0.83709  0.09917  0.04406  1.0000
  C   C2364     1.0  0.98184  0.95113  0.03118  1.0000
  C   C2365     1.0  0.79220  0.82547  0.00178  1.0000
  C   C2366     1.0  0.88423  0.57304  0.17547  1.0000
  H   H1891     1.0  0.76544  0.71370  0.06332  1.0000
  C   C2367     1.0  0.77072  0.39534  0.10718  1.0000
  C   C2368     1.0  0.79547  0.62983  0.18142  1.0000
  H   H1892     1.0  0.76471  0.78583  0.04342  1.0000
  C   C2369     1.0  0.97542  0.40374  0.23002  1.0000
  C   C2370     1.0  0.74920  0.43054  0.16018  1.0000
  C   C2371     1.0  0.97995  0.16070  0.02537  1.0000
  C   C2372     1.0  0.76989  0.71616  0.04825  1.0000
  H   H1893     1.0  0.96908  0.41352  0.09098  1.0000
  C   C2373     1.0  0.82683  0.13106  0.04889  1.0000
  C   C2374     1.0  0.78895  0.59411  0.19048  1.0000
  H   H1894     1.0  0.78986  0.91191  0.14772  1.0000
  C   C2375     1.0  0.78695  0.33664  0.11877  1.0000
  C   C2376     1.0  0.98378  0.13696  0.04294  1.0000
  H   H1895     1.0  0.82536  0.23252  0.23517  1.0000
  C   C2377     1.0  0.98627  0.16878  0.19929  1.0000
  H   H1896     1.0  0.87842  0.75847  0.15102  1.0000
  C   C2378     1.0  0.76125  0.37939  0.12173  1.0000
  C   C2379     1.0  0.82104  0.43316  0.23659  1.0000
  C   C2380     1.0  0.97938  0.51407  0.16756  1.0000
  S   S323      1.0  0.76757  0.56414  0.09525  1.0000
  C   C2381     1.0  0.98205  0.23027  0.22670  1.0000
  H   H1897     1.0  0.90675  0.62857  0.13309  1.0000
  C   C2382     1.0  0.97930  0.41032  0.09378  1.0000
  C   C2383     1.0  0.81853  0.84093  0.00141  1.0000
  H   H1898     1.0  0.79953  0.52620  0.23309  1.0000
  Fe  Fe163     1.0  0.74941  0.61326  0.09773  1.0000
  H   H1899     1.0  0.88324  0.63267  0.18885  1.0000
  C   C2384     1.0  0.76488  0.34216  0.13497  1.0000
  H   H1900     1.0  0.78727  0.65328  0.01510  1.0000
  H   H1901     1.0  0.77649  0.38713  0.21791  1.0000
  P   P78       1.0  0.75129  0.79003  0.15965  1.0000
  H   H1902     1.0  0.93215  0.73993  0.20162  1.0000
  C   C2385     1.0  0.96989  0.37466  0.22005  1.0000
  C   C2386     1.0  0.97958  0.47230  0.17837  1.0000
  C   C2387     1.0  0.77502  0.76106  0.01722  1.0000
  H   H1903     1.0  0.85977  0.78977  0.20708  1.0000
  H   H1904     1.0  0.75784  0.32941  0.14649  1.0000
  C   C2388     1.0  0.78176  0.72344  0.00963  1.0000
  C   C2389     1.0  0.98506  0.14656  0.00729  1.0000
  C   C2390     1.0  0.80627  0.49993  0.23956  1.0000
  C   C2391     1.0  0.78218  0.68228  0.02109  1.0000
  C   C2392     1.0  0.78260  0.88849  0.15012  1.0000
  H   H1905     1.0  0.97308  0.19020  0.02583  1.0000
  H   H1906     1.0  0.98329  0.34772  0.08198  1.0000
  C   C2393     1.0  0.88720  0.72232  0.17648  1.0000
  H   H1907     1.0  0.90197  0.55227  0.13238  1.0000
  C   C2394     1.0  0.98804  0.98989  0.02840  1.0000
  S   S324      1.0  0.99219  0.03076  0.11212  1.0000
  C   C2395     1.0  0.83879  0.32667  0.23918  1.0000
  H   H1908     1.0  0.75287  0.44912  0.18813  1.0000
  C   C2396     1.0  0.74953  0.76086  0.19995  1.0000
  H   H1909     1.0  0.74791  0.73635  0.23092  1.0000
  S   S325      1.0  0.79040  0.29010  0.24138  1.0000
  H   H1910     1.0  0.98435  0.88016  0.03326  1.0000
  H   H1911     1.0  0.86982  0.48407  0.24199  1.0000
  H   H1912     1.0  0.88761  0.42271  0.24220  1.0000
  C   C2397     1.0  0.75252  0.69801  0.16314  1.0000
  C   C2398     1.0  0.99348  0.20517  0.19679  1.0000
  C   C2399     1.0  0.98871  0.39626  0.23322  1.0000
  C   C2400     1.0  0.99102  0.33034  0.21627  1.0000
  H   H1913     1.0  0.98748  0.33406  0.17484  1.0000
  H   H1914     1.0  0.75336  0.62703  0.16574  1.0000
  C   C2401     1.0  0.76955  0.48487  0.23734  1.0000
  H   H1915     1.0  0.77370  0.51564  0.23735  1.0000
  P   P79       1.0  0.74461  0.40627  0.12374  1.0000
  C   C2402     1.0  0.74555  0.47936  0.09523  1.0000
  C   C2403     1.0  0.87645  0.74039  0.20818  1.0000
  C   C2404     1.0  0.86739  0.77093  0.19856  1.0000
  H   H1916     1.0  0.99276  0.34230  0.13892  1.0000
  H   H1917     1.0  0.99291  0.41862  0.24120  1.0000
  S   S326      1.0  0.74698  0.66904  0.11644  1.0000
  H   H1918     1.0  0.75176  0.49153  0.10461  1.0000
  H   H1919     1.0  0.74581  0.62101  0.20148  1.0000
  H   H1920     1.0  0.75598  0.37192  0.23849  1.0000
  C   C2405     1.0  0.99405  0.10879  0.00676  1.0000
  C   C2406     1.0  0.99292  0.09953  0.04247  1.0000
  H   H1921     1.0  0.87585  0.73547  0.22416  1.0000
  C   C2407     1.0  0.99281  0.58652  0.07870  1.0000
  H   H1922     1.0  0.95738  0.94230  0.99533  1.0000
  S   S327      1.0  0.99389  0.14322  0.13636  1.0000
  H   H1923     1.0  0.77433  0.20524  0.24364  1.0000
  Fe  Fe164     1.0  0.97648  0.42246  0.38898  1.0000
  S   S328      1.0  0.97366  0.47489  0.36304  1.0000
  S   S329      1.0  0.96455  0.43620  0.41829  1.0000
  H   H1924     1.0  0.78520  0.56176  0.31397  1.0000
  H   H1925     1.0  0.79607  0.37907  0.24786  1.0000
  H   H1926     1.0  0.84692  0.46960  0.25284  1.0000
  Fe  Fe165     1.0  0.97638  0.42031  0.34337  1.0000
  S   S330      1.0  0.96385  0.40524  0.31942  1.0000
  C   C2408     1.0  0.77056  0.50103  0.28613  1.0000
  S   S331      1.0  0.97755  0.36782  0.36971  1.0000
  H   H1927     1.0  0.74842  0.13370  0.44157  1.0000
  Fe  Fe166     1.0  0.76887  0.40495  0.39311  1.0000
  C   C2409     1.0  0.98404  0.59453  0.43179  1.0000
  S   S332      1.0  0.78204  0.41570  0.41725  1.0000
  Fe  Fe167     1.0  0.76907  0.39024  0.34818  1.0000
  H   H1928     1.0  0.75272  0.60176  0.27939  1.0000
  S   S333      1.0  0.78054  0.39804  0.31722  1.0000
  H   H1929     1.0  0.82369  0.27939  0.48608  1.0000
  H   H1930     1.0  0.88264  0.34605  0.25328  1.0000
  Fe  Fe168     1.0  0.75397  0.33290  0.38078  1.0000
  C   C2410     1.0  0.97062  0.19900  0.35724  1.0000
  S   S334      1.0  0.76462  0.45013  0.36513  1.0000
  S   S335      1.0  0.77512  0.34698  0.37555  1.0000
  C   C2411     1.0  0.77348  0.22823  0.35674  1.0000
  C   C2412     1.0  0.78100  0.43449  0.44130  1.0000
  C   C2413     1.0  0.76917  0.45119  0.45108  1.0000
  C   C2414     1.0  0.76901  0.46666  0.46975  1.0000
  C   C2415     1.0  0.78062  0.46553  0.47916  1.0000
  C   C2416     1.0  0.79240  0.44798  0.46955  1.0000
  C   C2417     1.0  0.79257  0.43272  0.45085  1.0000
  H   H1931     1.0  0.76015  0.45276  0.44414  1.0000
  H   H1932     1.0  0.75980  0.47996  0.47690  1.0000
  H   H1933     1.0  0.80145  0.44680  0.47639  1.0000
  H   H1934     1.0  0.80180  0.41993  0.44359  1.0000
  C   C2418     1.0  0.78742  0.32147  0.26206  1.0000
  C   C2419     1.0  0.79118  0.36407  0.26133  1.0000
  C   C2420     1.0  0.78872  0.38722  0.27813  1.0000
  C   C2421     1.0  0.78263  0.36814  0.29607  1.0000
  C   C2422     1.0  0.77888  0.32561  0.29678  1.0000
  C   C2423     1.0  0.78122  0.30262  0.27992  1.0000
  H   H1935     1.0  0.74553  0.48335  0.30553  1.0000
  H   H1936     1.0  0.79179  0.41993  0.27726  1.0000
  H   H1937     1.0  0.77440  0.31008  0.31045  1.0000
  H   H1938     1.0  0.77833  0.26972  0.28082  1.0000
  C   C2424     1.0  0.95953  0.40414  0.44080  1.0000
  C   C2425     1.0  0.95336  0.42601  0.45671  1.0000
  C   C2426     1.0  0.94881  0.40215  0.47464  1.0000
  C   C2427     1.0  0.95023  0.35593  0.47680  1.0000
  C   C2428     1.0  0.95653  0.33415  0.46095  1.0000
  C   C2429     1.0  0.96130  0.35798  0.44317  1.0000
  H   H1939     1.0  0.95198  0.46171  0.45511  1.0000
  C   C2430     1.0  0.76268  0.15605  0.34639  1.0000
  H   H1940     1.0  0.95762  0.29854  0.46250  1.0000
  H   H1941     1.0  0.96618  0.34075  0.43121  1.0000
  C   C2431     1.0  0.98153  0.55769  0.39739  1.0000
  C   C2432     1.0  0.95663  0.49943  0.27232  1.0000
  C   C2433     1.0  0.96108  0.47792  0.29028  1.0000
  C   C2434     1.0  0.95866  0.43424  0.29669  1.0000
  C   C2435     1.0  0.95192  0.41235  0.28465  1.0000
  C   C2436     1.0  0.94753  0.43377  0.26663  1.0000
  C   C2437     1.0  0.87763  0.41611  0.24733  1.0000
  H   H1942     1.0  0.96626  0.49536  0.29925  1.0000
  H   H1943     1.0  0.95000  0.37855  0.28932  1.0000
  C   C2438     1.0  0.76099  0.53346  0.27866  1.0000
  H   H1944     1.0  0.78661  0.48607  0.30446  1.0000
  C   C2439     1.0  0.97171  0.27548  0.34391  1.0000
  C   C2440     1.0  0.74671  0.35100  0.46233  1.0000
  H   H1945     1.0  0.98559  0.27381  0.37915  1.0000
  H   H1946     1.0  0.96748  0.17399  0.36871  1.0000
  H   H1947     1.0  0.98322  0.28665  0.31611  1.0000
  P   P80       1.0  0.95760  0.26087  0.38106  1.0000
  C   C2441     1.0  0.94518  0.22358  0.38873  1.0000
  C   C2442     1.0  0.96888  0.25796  0.39979  1.0000
  H   H1948     1.0  0.95445  0.24367  0.42447  1.0000
  H   H1949     1.0  0.98517  0.60947  0.44489  1.0000
  C   C2443     1.0  0.82081  0.27170  0.25936  1.0000
  C   C2444     1.0  0.80897  0.49890  0.25916  1.0000
  H   H1950     1.0  0.94940  0.53787  0.48842  1.0000
  C   C2445     1.0  0.93226  0.23506  0.38369  1.0000
  C   C2446     1.0  0.92269  0.20616  0.38966  1.0000
  C   C2447     1.0  0.92594  0.16553  0.40063  1.0000
  C   C2448     1.0  0.93879  0.15369  0.40561  1.0000
  C   C2449     1.0  0.94838  0.18251  0.39967  1.0000
  C   C2450     1.0  0.94949  0.31654  0.37740  1.0000
  C   C2451     1.0  0.94467  0.33352  0.35925  1.0000
  C   C2452     1.0  0.93913  0.37738  0.35620  1.0000
  C   C2453     1.0  0.93810  0.40436  0.37134  1.0000
  C   C2454     1.0  0.94238  0.38726  0.38968  1.0000
  C   C2455     1.0  0.94798  0.34349  0.39276  1.0000
  C   C2456     1.0  0.76795  0.18258  0.29338  1.0000
  C   C2457     1.0  0.86189  0.36426  0.25959  1.0000
  C   C2458     1.0  0.99078  0.26321  0.40888  1.0000
  C   C2459     1.0  0.75036  0.62348  0.39945  1.0000
  C   C2460     1.0  0.85166  0.39890  0.25933  1.0000
  H   H1951     1.0  0.97617  0.62415  0.38462  1.0000
  S   S336      1.0  0.74810  0.38805  0.39961  1.0000
  C   C2461     1.0  0.77856  0.55411  0.30394  1.0000
  H   H1952     1.0  0.97021  0.23685  0.44963  1.0000
  S   S337      1.0  0.75035  0.26188  0.39165  1.0000
  H   H1953     1.0  0.92948  0.26629  0.37520  1.0000
  H   H1954     1.0  0.91272  0.21538  0.38580  1.0000
  H   H1955     1.0  0.91850  0.14324  0.40529  1.0000
  C   C2462     1.0  0.86755  0.45079  0.24724  1.0000
  C   C2463     1.0  0.98202  0.26571  0.39445  1.0000
  H   H1956     1.0  0.94548  0.31342  0.34722  1.0000
  C   C2464     1.0  0.83233  0.33702  0.25739  1.0000
  H   H1957     1.0  0.93416  0.43870  0.36877  1.0000
  H   H1958     1.0  0.94170  0.40828  0.40140  1.0000
  H   H1959     1.0  0.95141  0.33140  0.40700  1.0000
  C   C2465     1.0  0.77583  0.30557  0.44895  1.0000
  C   C2466     1.0  0.95880  0.51796  0.48779  1.0000
  H   H1960     1.0  0.78506  0.31627  0.41938  1.0000
  C   C2467     1.0  0.96463  0.24819  0.41985  1.0000
  C   C2468     1.0  0.76397  0.23494  0.34326  1.0000
  C   C2469     1.0  0.82819  0.37231  0.33503  1.0000
  H   H1961     1.0  0.77747  0.25631  0.36103  1.0000
  H   H1962     1.0  0.80429  0.52432  0.26793  1.0000
  H   H1963     1.0  0.85987  0.33052  0.26431  1.0000
  H   H1964     1.0  0.76086  0.26837  0.33731  1.0000
  C   C2470     1.0  0.82469  0.34583  0.49226  1.0000
  H   H1965     1.0  0.95847  0.53333  0.26771  1.0000
  H   H1966     1.0  0.82653  0.36914  0.35098  1.0000
  H   H1967     1.0  0.75249  0.21240  0.43309  1.0000
  C   C2471     1.0  0.77956  0.21582  0.44408  1.0000
  H   H1968     1.0  0.75337  0.55231  0.40201  1.0000
  H   H1969     1.0  0.78800  0.23674  0.41474  1.0000
  C   C2472     1.0  0.76886  0.20398  0.25808  1.0000
  H   H1970     1.0  0.85308  0.37458  0.29848  1.0000
  C   C2473     1.0  0.75186  0.34240  0.48077  1.0000
  C   C2474     1.0  0.77207  0.14954  0.36007  1.0000
  H   H1971     1.0  0.77511  0.11652  0.36673  1.0000
  C   C2475     1.0  0.77354  0.22942  0.46188  1.0000
  H   H1972     1.0  0.84923  0.36709  0.33465  1.0000
  H   H1973     1.0  0.99334  0.25074  0.43990  1.0000
  H   H1974     1.0  0.78472  0.16684  0.27290  1.0000
  H   H1975     1.0  0.98161  0.15090  0.33985  1.0000
  C   C2476     1.0  0.75847  0.19888  0.33799  1.0000
  H   H1976     1.0  0.77467  0.34051  0.45063  1.0000
  H   H1977     1.0  0.81126  0.38628  0.29457  1.0000
  H   H1978     1.0  0.77071  0.20469  0.47375  1.0000
  P   P81       1.0  0.74929  0.51869  0.26338  1.0000
  H   H1979     1.0  0.78460  0.18079  0.37604  1.0000
  C   C2477     1.0  0.98689  0.54870  0.43138  1.0000
  H   H1980     1.0  0.77280  0.16641  0.30599  1.0000
  C   C2478     1.0  0.87480  0.37288  0.25350  1.0000
  H   H1981     1.0  0.78109  0.18104  0.44220  1.0000
  H   H1982     1.0  0.94131  0.12218  0.41413  1.0000
  C   C2479     1.0  0.77937  0.51147  0.29856  1.0000
  C   C2480     1.0  0.97351  0.24470  0.43419  1.0000
  C   C2481     1.0  0.94977  0.47772  0.26036  1.0000
  C   C2482     1.0  0.97960  0.26202  0.32746  1.0000
  C   C2483     1.0  0.81753  0.37768  0.32365  1.0000
  C   C2484     1.0  0.78353  0.24710  0.42865  1.0000
  C   C2485     1.0  0.96861  0.52840  0.47278  1.0000
  C   C2486     1.0  0.77121  0.27458  0.46417  1.0000
  C   C2487     1.0  0.99132  0.15071  0.39807  1.0000
  H   H1983     1.0  0.98273  0.17231  0.40235  1.0000
  C   C2488     1.0  0.83242  0.38091  0.29361  1.0000
  C   C2489     1.0  0.77745  0.18565  0.36526  1.0000
  P   P82       1.0  0.74657  0.20681  0.31995  1.0000
  C   C2490     1.0  0.85459  0.44232  0.25322  1.0000
  H   H1984     1.0  0.96665  0.55657  0.46195  1.0000
  C   C2491     1.0  0.97893  0.60323  0.39779  1.0000
  H   H1985     1.0  0.75959  0.62660  0.40511  1.0000
  H   H1986     1.0  0.80759  0.37861  0.33074  1.0000
  C   C2492     1.0  0.84097  0.37116  0.32581  1.0000
  H   H1987     1.0  0.77534  0.37372  0.48849  1.0000
  C   C2493     1.0  0.98009  0.62164  0.41504  1.0000
  C   C2494     1.0  0.78182  0.29189  0.43120  1.0000
  H   H1988     1.0  0.81871  0.36087  0.48061  1.0000
  H   H1989     1.0  0.98620  0.09657  0.41957  1.0000
  P   P83       1.0  0.83497  0.38731  0.26689  1.0000
  C   C2495     1.0  0.82318  0.30948  0.26727  1.0000
  C   C2496     1.0  0.74920  0.22462  0.27892  1.0000
  C   C2497     1.0  0.75764  0.47721  0.24855  1.0000
  C   C2498     1.0  0.81964  0.38198  0.30307  1.0000
  C   C2499     1.0  0.84310  0.37541  0.30520  1.0000
  H   H1990     1.0  0.95827  0.17271  0.40366  1.0000
  H   H1991     1.0  0.81990  0.46541  0.28256  1.0000
  C   C2500     1.0  0.82369  0.43150  0.25633  1.0000
  H   H1992     1.0  0.98406  0.43107  0.44783  1.0000
  H   H1993     1.0  0.96953  0.31049  0.34486  1.0000
  H   H1994     1.0  0.74933  0.32876  0.45117  1.0000
  H   H1995     1.0  0.98485  0.39639  0.28939  1.0000
  H   H1996     1.0  0.75242  0.29545  0.30256  1.0000
  H   H1997     1.0  0.76814  0.61932  0.30133  1.0000
  H   H1998     1.0  0.98751  0.49531  0.41325  1.0000
  H   H1999     1.0  0.74985  0.71193  0.31743  1.0000
  H   H2000     1.0  0.98080  0.54361  0.38392  1.0000
  C   C2501     1.0  0.76897  0.58648  0.29680  1.0000
  C   C2502     1.0  0.81776  0.46512  0.26747  1.0000
  C   C2503     1.0  0.75277  0.43620  0.24889  1.0000
  H   H2001     1.0  0.94233  0.41639  0.25768  1.0000
  H   H2002     1.0  0.81763  0.31719  0.28087  1.0000
  C   C2504     1.0  0.98312  0.21716  0.32595  1.0000
  C   C2505     1.0  0.74585  0.22770  0.49086  1.0000
  C   C2506     1.0  0.75521  0.20441  0.29571  1.0000
  C   C2507     1.0  0.76020  0.57626  0.28425  1.0000
  H   H2003     1.0  0.93606  0.39096  0.34183  1.0000
  P   P84       1.0  0.76285  0.29324  0.48659  1.0000
  H   H2004     1.0  0.75871  0.12760  0.34242  1.0000
  C   C2508     1.0  0.75606  0.22471  0.26021  1.0000
  C   C2509     1.0  0.97867  0.18567  0.34088  1.0000
  C   C2510     1.0  0.96692  0.24408  0.35884  1.0000
  C   C2511     1.0  0.77474  0.18250  0.27461  1.0000
  H   H2005     1.0  0.94395  0.41949  0.48659  1.0000
  H   H2006     1.0  0.74673  0.23057  0.47500  1.0000
  H   H2007     1.0  0.99195  0.44389  0.48501  1.0000
  C   C2512     1.0  0.98070  0.50199  0.47163  1.0000
  C   C2513     1.0  0.74687  0.58162  0.39771  1.0000
  H   H2008     1.0  0.77102  0.46732  0.28277  1.0000
  C   C2514     1.0  0.98655  0.25250  0.42873  1.0000
  C   C2515     1.0  0.98544  0.53041  0.41409  1.0000
  H   H2009     1.0  0.98289  0.32545  0.27699  1.0000
  H   H2010     1.0  0.98948  0.20682  0.31338  1.0000
  H   H2011     1.0  0.97819  0.65703  0.41528  1.0000
  H   H2012     1.0  0.74497  0.69345  0.39486  1.0000
  H   H2013     1.0  0.81349  0.25125  0.26679  1.0000
  C   C2516     1.0  0.98278  0.46502  0.48572  1.0000
  H   H2014     1.0  0.75156  0.24145  0.24734  1.0000
  S   S338      1.0  0.74831  0.37253  0.35254  1.0000
  C   C2517     1.0  0.99252  0.33495  0.27845  1.0000
  P   P85       1.0  0.99351  0.51488  0.45229  1.0000
  C   C2518     1.0  0.99332  0.10805  0.40785  1.0000
  Fe  Fe169     1.0  0.74421  0.42951  0.37076  1.0000
  C   C2519     1.0  0.99360  0.37495  0.28547  1.0000
  H   H2015     1.0  0.74431  0.52046  0.34242  1.0000
  Fe  Fe170     1.0  0.93898  0.98452  0.70523  1.0000
  S   S339      1.0  0.95017  0.97607  0.67550  1.0000
  C   C2520     1.0  0.83957  0.20908  0.56211  1.0000
  Fe  Fe171     1.0  0.91312  0.96057  0.69137  1.0000
  S   S340      1.0  0.92271  0.95062  0.66123  1.0000
  S   S341      1.0  0.89154  0.95155  0.70153  1.0000
  Fe  Fe172     1.0  0.93971  0.91517  0.67685  1.0000
  S   S342      1.0  0.94760  0.84357  0.67437  1.0000
  Fe  Fe173     1.0  0.93223  0.01326  0.66220  1.0000
  S   S343      1.0  0.93079  0.06268  0.63385  1.0000
  S   S344      1.0  0.92960  0.92184  0.70720  1.0000
  S   S345      1.0  0.92156  0.02513  0.69183  1.0000
  H   H2016     1.0  0.98133  0.90808  0.74090  1.0000
  S   S346      1.0  0.97995  0.54895  0.61680  1.0000
  Fe  Fe174     1.0  0.93738  0.31028  0.57361  1.0000
  S   S347      1.0  0.92623  0.37363  0.58245  1.0000
  S   S348      1.0  0.94454  0.25848  0.59863  1.0000
  Fe  Fe175     1.0  0.93646  0.34409  0.52914  1.0000
  S   S349      1.0  0.92455  0.40797  0.53535  1.0000
  H   H2017     1.0  0.86408  0.53240  0.55512  1.0000
  Fe  Fe176     1.0  0.93867  0.40959  0.55825  1.0000
  S   S350      1.0  0.94628  0.47702  0.55729  1.0000
  Fe  Fe177     1.0  0.91304  0.36697  0.55909  1.0000
  S   S351      1.0  0.89140  0.37288  0.57067  1.0000
  S   S352      1.0  0.95103  0.34725  0.55099  1.0000
  S   S353      1.0  0.92369  0.30215  0.55124  1.0000
  Fe  Fe178     1.0  0.83095  0.82753  0.67567  1.0000
  S   S354      1.0  0.82013  0.77120  0.69165  1.0000
  S   S355      1.0  0.85349  0.82787  0.67163  1.0000
  Fe  Fe179     1.0  0.80572  0.87392  0.65924  1.0000
  S   S356      1.0  0.79350  0.82056  0.67357  1.0000
  S   S357      1.0  0.79945  0.93719  0.63978  1.0000
  Fe  Fe180     1.0  0.80406  0.82421  0.70072  1.0000
  S   S358      1.0  0.78995  0.83280  0.72919  1.0000
  Fe  Fe181     1.0  0.81035  0.77157  0.66333  1.0000
  S   S359      1.0  0.80952  0.70390  0.65109  1.0000
  S   S360      1.0  0.81560  0.87987  0.68633  1.0000
  S   S361      1.0  0.82186  0.82540  0.64734  1.0000
  Fe  Fe182     1.0  0.82107  0.47209  0.54148  1.0000
  S   S362      1.0  0.80873  0.53378  0.53016  1.0000
  S   S363      1.0  0.84199  0.46408  0.52706  1.0000
  Fe  Fe183     1.0  0.79796  0.43838  0.56824  1.0000
  S   S364      1.0  0.78450  0.49850  0.55862  1.0000
  S   S365      1.0  0.79075  0.38582  0.59214  1.0000
  Fe  Fe184     1.0  0.79341  0.48808  0.52757  1.0000
  Fe  Fe185     1.0  0.80123  0.53785  0.56235  1.0000
  S   S366      1.0  0.79960  0.60425  0.57640  1.0000
  S   S367      1.0  0.80617  0.42645  0.53753  1.0000
  S   S368      1.0  0.81428  0.47771  0.57335  1.0000
  C   C2521     1.0  0.78149  0.34399  0.58716  1.0000
  C   C2522     1.0  0.77950  0.33833  0.56786  1.0000
  C   C2523     1.0  0.76877  0.28186  0.59929  1.0000
  C   C2524     1.0  0.77601  0.31583  0.60287  1.0000
  H   H2018     1.0  0.78355  0.36003  0.55568  1.0000
  H   H2019     1.0  0.77393  0.91978  0.66068  1.0000
  H   H2020     1.0  0.77744  0.32016  0.61787  1.0000
  C   C2525     1.0  0.80694  0.67703  0.62992  1.0000
  C   C2526     1.0  0.80359  0.70036  0.61189  1.0000
  C   C2527     1.0  0.80146  0.67762  0.59588  1.0000
  C   C2528     1.0  0.80272  0.63100  0.59732  1.0000
  C   C2529     1.0  0.80622  0.60763  0.61527  1.0000
  C   C2530     1.0  0.80826  0.63038  0.63132  1.0000
  H   H2021     1.0  0.80250  0.73606  0.61031  1.0000
  H   H2022     1.0  0.79875  0.69646  0.58223  1.0000
  H   H2023     1.0  0.80711  0.57198  0.61696  1.0000
  H   H2024     1.0  0.81081  0.61158  0.64506  1.0000
  C   C2531     1.0  0.78352  0.96600  0.63938  1.0000
  C   C2532     1.0  0.77264  0.95005  0.65081  1.0000
  C   C2533     1.0  0.76911  0.02810  0.62488  1.0000
  C   C2534     1.0  0.78171  0.00544  0.62665  1.0000
  H   H2025     1.0  0.76781  0.05812  0.61487  1.0000
  H   H2026     1.0  0.79008  0.01810  0.61786  1.0000
  C   C2535     1.0  0.87803  0.40118  0.55846  1.0000
  C   C2536     1.0  0.86557  0.40486  0.56896  1.0000
  C   C2537     1.0  0.85446  0.42470  0.55967  1.0000
  C   C2538     1.0  0.85576  0.44128  0.53973  1.0000
  C   C2539     1.0  0.86829  0.43899  0.52937  1.0000
  C   C2540     1.0  0.87942  0.41924  0.53872  1.0000
  H   H2027     1.0  0.86454  0.39235  0.58441  1.0000
  H   H2028     1.0  0.84489  0.42674  0.56788  1.0000
  H   H2029     1.0  0.86938  0.45200  0.51395  1.0000
  H   H2030     1.0  0.88899  0.41705  0.53054  1.0000
  C   C2541     1.0  0.97147  0.52822  0.59934  1.0000
  C   C2542     1.0  0.96702  0.48622  0.60395  1.0000
  C   C2543     1.0  0.95946  0.46962  0.59115  1.0000
  C   C2544     1.0  0.95615  0.49522  0.57370  1.0000
  C   C2545     1.0  0.96078  0.53687  0.56896  1.0000
  C   C2546     1.0  0.96851  0.55321  0.58158  1.0000
  H   H2031     1.0  0.96929  0.46659  0.61764  1.0000
  H   H2032     1.0  0.95600  0.43743  0.59499  1.0000
  H   H2033     1.0  0.95835  0.55659  0.55542  1.0000
  H   H2034     1.0  0.97194  0.58543  0.57775  1.0000
  C   C2547     1.0  0.93471  0.11734  0.62449  1.0000
  C   C2548     1.0  0.92915  0.13880  0.60742  1.0000
  C   C2549     1.0  0.93197  0.18177  0.59933  1.0000
  C   C2550     1.0  0.94046  0.20412  0.60816  1.0000
  C   C2551     1.0  0.94606  0.18260  0.62516  1.0000
  C   C2552     1.0  0.94328  0.13957  0.63320  1.0000
  H   H2035     1.0  0.92264  0.12196  0.60033  1.0000
  H   H2036     1.0  0.92763  0.19750  0.58620  1.0000
  H   H2037     1.0  0.95272  0.19917  0.63209  1.0000
  H   H2038     1.0  0.94794  0.12334  0.64595  1.0000
  C   C2553     1.0  0.88088  0.91927  0.69200  1.0000
  C   C2554     1.0  0.86801  0.91725  0.70106  1.0000
  C   C2555     1.0  0.85936  0.89076  0.69459  1.0000
  C   C2556     1.0  0.86347  0.86573  0.67894  1.0000
  C   C2557     1.0  0.87626  0.86861  0.66957  1.0000
  C   C2558     1.0  0.88490  0.89513  0.67604  1.0000
  H   H2039     1.0  0.86475  0.93584  0.71337  1.0000
  H   H2040     1.0  0.84961  0.88896  0.70200  1.0000
  H   H2041     1.0  0.87953  0.85024  0.65722  1.0000
  H   H2042     1.0  0.89473  0.89641  0.66885  1.0000
  C   C2559     1.0  0.95985  0.82445  0.65660  1.0000
  C   C2560     1.0  0.96385  0.77896  0.65768  1.0000
  C   C2561     1.0  0.97326  0.76182  0.64349  1.0000
  C   C2562     1.0  0.97899  0.79026  0.62835  1.0000
  C   C2563     1.0  0.97510  0.83586  0.62740  1.0000
  C   C2564     1.0  0.96554  0.85296  0.64147  1.0000
  H   H2043     1.0  0.95953  0.75695  0.66948  1.0000
  H   H2044     1.0  0.97602  0.72665  0.64413  1.0000
  C   C2565     1.0  0.75041  0.46092  0.53377  1.0000
  H   H2045     1.0  0.96254  0.88810  0.64052  1.0000
  H   H2046     1.0  0.94035  0.77344  0.74000  1.0000
  C   C2566     1.0  0.87742  0.26372  0.54387  1.0000
  C   C2567     1.0  0.89060  0.26992  0.53838  1.0000
  C   C2568     1.0  0.77994  0.34711  0.49818  1.0000
  C   C2569     1.0  0.85368  0.30689  0.57904  1.0000
  C   C2570     1.0  0.84938  0.32437  0.59675  1.0000
  C   C2571     1.0  0.83653  0.34413  0.59982  1.0000
  C   C2572     1.0  0.82789  0.34569  0.58533  1.0000
  C   C2573     1.0  0.88400  0.33152  0.51464  1.0000
  H   H2047     1.0  0.87509  0.23741  0.55530  1.0000
  H   H2048     1.0  0.89831  0.24878  0.54556  1.0000
  H   H2049     1.0  0.96915  0.39674  0.56725  1.0000
  H   H2050     1.0  0.86376  0.29282  0.57686  1.0000
  H   H2051     1.0  0.85616  0.32360  0.60786  1.0000
  H   H2052     1.0  0.83324  0.35841  0.61335  1.0000
  H   H2053     1.0  0.81792  0.36096  0.58772  1.0000
  C   C2574     1.0  0.86589  0.26060  0.68100  1.0000
  C   C2575     1.0  0.86694  0.25405  0.70132  1.0000
  C   C2576     1.0  0.87739  0.22609  0.70887  1.0000
  C   C2577     1.0  0.88680  0.20472  0.69611  1.0000
  C   C2578     1.0  0.88587  0.21128  0.67564  1.0000
  C   C2579     1.0  0.87529  0.23924  0.66818  1.0000
  P   P86       1.0  0.89794  0.18231  0.65945  1.0000
  C   C2580     1.0  0.89822  0.21085  0.63466  1.0000
  C   C2581     1.0  0.91357  0.18091  0.66935  1.0000
  C   C2582     1.0  0.91745  0.21954  0.67495  1.0000
  C   C2583     1.0  0.92922  0.21817  0.68360  1.0000
  C   C2584     1.0  0.93707  0.17811  0.68704  1.0000
  C   C2585     1.0  0.93319  0.13951  0.68173  1.0000
  C   C2586     1.0  0.92157  0.14097  0.67272  1.0000
  C   C2587     1.0  0.90792  0.23873  0.62732  1.0000
  C   C2588     1.0  0.90754  0.26230  0.60853  1.0000
  C   C2589     1.0  0.89760  0.25791  0.59680  1.0000
  C   C2590     1.0  0.88807  0.22953  0.60379  1.0000
  C   C2591     1.0  0.88839  0.20598  0.62261  1.0000
  C   C2592     1.0  0.89395  0.12659  0.65924  1.0000
  C   C2593     1.0  0.89878  0.10325  0.64323  1.0000
  C   C2594     1.0  0.89672  0.05893  0.64358  1.0000
  C   C2595     1.0  0.88975  0.03763  0.65987  1.0000
  C   C2596     1.0  0.88480  0.06070  0.67580  1.0000
  C   C2597     1.0  0.88691  0.10496  0.67556  1.0000
  H   H2054     1.0  0.85776  0.28214  0.67515  1.0000
  C   C2598     1.0  0.84887  0.22486  0.54723  1.0000
  H   H2055     1.0  0.75966  0.51363  0.59076  1.0000
  H   H2056     1.0  0.89477  0.18275  0.70223  1.0000
  H   H2057     1.0  0.87424  0.24478  0.65254  1.0000
  H   H2058     1.0  0.91140  0.25069  0.67255  1.0000
  H   H2059     1.0  0.93228  0.24813  0.68760  1.0000
  H   H2060     1.0  0.94619  0.17688  0.69373  1.0000
  H   H2061     1.0  0.76489  0.85480  0.52398  1.0000
  H   H2062     1.0  0.91896  0.11086  0.66826  1.0000
  H   H2063     1.0  0.91596  0.24205  0.63577  1.0000
  H   H2064     1.0  0.91513  0.28350  0.60291  1.0000
  H   H2065     1.0  0.89738  0.27639  0.58227  1.0000
  H   H2066     1.0  0.88045  0.22578  0.59460  1.0000
  H   H2067     1.0  0.88091  0.18418  0.62785  1.0000
  H   H2068     1.0  0.90465  0.11863  0.63081  1.0000
  H   H2069     1.0  0.90101  0.04069  0.63153  1.0000
  H   H2070     1.0  0.88846  0.00292  0.66043  1.0000
  H   H2071     1.0  0.87968  0.04363  0.68860  1.0000
  H   H2072     1.0  0.88331  0.12156  0.68832  1.0000
  C   C2599     1.0  0.83717  0.35313  0.51943  1.0000
  C   C2600     1.0  0.97290  0.45446  0.50058  1.0000
  C   C2601     1.0  0.79015  0.35563  0.50857  1.0000
  H   H2073     1.0  0.97943  0.85805  0.61565  1.0000
  H   H2074     1.0  0.75128  0.36436  0.50965  1.0000
  H   H2075     1.0  0.78432  0.93008  0.73844  1.0000
  H   H2076     1.0  0.76474  0.26005  0.61147  1.0000
  C   C2602     1.0  0.75746  0.93169  0.59705  1.0000
  C   C2603     1.0  0.88070  0.57133  0.59840  1.0000
  H   H2077     1.0  0.85963  0.27049  0.71124  1.0000
  H   H2078     1.0  0.76016  0.11398  0.65524  1.0000
  H   H2079     1.0  0.94000  0.60026  0.51483  1.0000
  H   H2080     1.0  0.83406  0.59545  0.51961  1.0000
  C   C2604     1.0  0.90446  0.83575  0.72425  1.0000
  H   H2081     1.0  0.88657  0.35829  0.50356  1.0000
  S   S369      1.0  0.77973  0.48635  0.50275  1.0000
  H   H2082     1.0  0.95327  0.47263  0.51319  1.0000
  C   C2605     1.0  0.76157  0.14304  0.68188  1.0000
  H   H2083     1.0  0.90410  0.30889  0.51961  1.0000
  C   C2606     1.0  0.76258  0.90289  0.61251  1.0000
  C   C2607     1.0  0.76543  0.95571  0.53959  1.0000
  H   H2084     1.0  0.85631  0.65327  0.58212  1.0000
  C   C2608     1.0  0.82619  0.47983  0.61837  1.0000
  C   C2609     1.0  0.75266  0.93904  0.70379  1.0000
  C   C2610     1.0  0.83141  0.60759  0.55007  1.0000
  H   H2085     1.0  0.96477  0.61694  0.72074  1.0000
  H   H2086     1.0  0.87818  0.22072  0.72463  1.0000
  C   C2611     1.0  0.96449  0.68753  0.74043  1.0000
  C   C2612     1.0  0.77458  0.90829  0.50758  1.0000
  C   C2613     1.0  0.74843  0.98380  0.70470  1.0000
  C   C2614     1.0  0.97266  0.70261  0.72383  1.0000
  H   H2087     1.0  0.85506  0.54822  0.52314  1.0000
  H   H2088     1.0  0.77570  0.00838  0.52305  1.0000
  H   H2089     1.0  0.75770  0.39722  0.63305  1.0000
  C   C2615     1.0  0.78248  0.27041  0.51219  1.0000
  C   C2616     1.0  0.84830  0.57159  0.57070  1.0000
  C   C2617     1.0  0.77496  0.50002  0.61026  1.0000
  H   H2090     1.0  0.93526  0.48174  0.61776  1.0000
  S   S370      1.0  0.75875  0.23206  0.57418  1.0000
  H   H2091     1.0  0.95473  0.80080  0.71092  1.0000
  C   C2618     1.0  0.94614  0.69345  0.65558  1.0000
  C   C2619     1.0  0.94985  0.66933  0.67313  1.0000
  C   C2620     1.0  0.94120  0.66961  0.69025  1.0000
  C   C2621     1.0  0.92887  0.69407  0.68981  1.0000
  C   C2622     1.0  0.92509  0.71858  0.67222  1.0000
  C   C2623     1.0  0.93381  0.71783  0.65506  1.0000
  P   P87       1.0  0.90940  0.75204  0.67207  1.0000
  C   C2624     1.0  0.90740  0.78321  0.69307  1.0000
  C   C2625     1.0  0.90965  0.79104  0.64999  1.0000
  C   C2626     1.0  0.91587  0.82962  0.64916  1.0000
  C   C2627     1.0  0.91647  0.85908  0.63188  1.0000
  C   C2628     1.0  0.91084  0.85040  0.61533  1.0000
  C   C2629     1.0  0.90480  0.81176  0.61591  1.0000
  C   C2630     1.0  0.90432  0.78195  0.63310  1.0000
  C   C2631     1.0  0.91846  0.79547  0.70051  1.0000
  C   C2632     1.0  0.91698  0.82126  0.71613  1.0000
  H   H2092     1.0  0.76297  0.92845  0.70032  1.0000
  C   C2633     1.0  0.75995  0.43965  0.54569  1.0000
  C   C2634     1.0  0.89484  0.79716  0.70163  1.0000
  C   C2635     1.0  0.89592  0.71860  0.67317  1.0000
  C   C2636     1.0  0.89753  0.67313  0.67956  1.0000
  C   C2637     1.0  0.88684  0.64819  0.68131  1.0000
  C   C2638     1.0  0.87448  0.66840  0.67666  1.0000
  C   C2639     1.0  0.87284  0.71347  0.67010  1.0000
  C   C2640     1.0  0.88350  0.73838  0.66829  1.0000
  H   H2093     1.0  0.95299  0.69423  0.64246  1.0000
  H   H2094     1.0  0.95953  0.65117  0.67344  1.0000
  H   H2095     1.0  0.94414  0.65153  0.70394  1.0000
  H   H2096     1.0  0.92235  0.69468  0.70327  1.0000
  H   H2097     1.0  0.93131  0.73700  0.64139  1.0000
  H   H2098     1.0  0.92035  0.83711  0.66176  1.0000
  H   H2099     1.0  0.92130  0.88876  0.63138  1.0000
  H   H2100     1.0  0.91119  0.87368  0.60207  1.0000
  H   H2101     1.0  0.90045  0.80503  0.60307  1.0000
  H   H2102     1.0  0.89978  0.75197  0.63316  1.0000
  H   H2103     1.0  0.92826  0.78642  0.69387  1.0000
  H   H2104     1.0  0.92554  0.83149  0.72139  1.0000
  C   C2641     1.0  0.85214  0.65003  0.59734  1.0000
  C   C2642     1.0  0.82955  0.37240  0.50428  1.0000
  H   H2105     1.0  0.88606  0.78940  0.69610  1.0000
  H   H2106     1.0  0.90693  0.65685  0.68345  1.0000
  H   H2107     1.0  0.88808  0.61327  0.68653  1.0000
  H   H2108     1.0  0.86614  0.64936  0.67832  1.0000
  H   H2109     1.0  0.86322  0.72962  0.66684  1.0000
  H   H2110     1.0  0.88190  0.77342  0.66355  1.0000
  C   C2643     1.0  0.84644  0.44810  0.63176  1.0000
  C   C2644     1.0  0.83303  0.44706  0.63052  1.0000
  H   H2111     1.0  0.85175  0.42285  0.64125  1.0000
  H   H2112     1.0  0.82791  0.42104  0.63902  1.0000
  H   H2113     1.0  0.81577  0.47923  0.61744  1.0000
  C   C2645     1.0  0.92797  0.59180  0.54235  1.0000
  C   C2646     1.0  0.93817  0.60887  0.52978  1.0000
  C   C2647     1.0  0.94605  0.63671  0.53656  1.0000
  C   C2648     1.0  0.94396  0.64665  0.55606  1.0000
  C   C2649     1.0  0.93372  0.62954  0.56886  1.0000
  C   C2650     1.0  0.92562  0.60258  0.56169  1.0000
  P   P88       1.0  0.93090  0.64183  0.59420  1.0000
  C   C2651     1.0  0.91366  0.65890  0.59987  1.0000
  C   C2652     1.0  0.93558  0.59367  0.61112  1.0000
  C   C2653     1.0  0.94065  0.59862  0.62884  1.0000
  C   C2654     1.0  0.94399  0.56177  0.64222  1.0000
  C   C2655     1.0  0.94194  0.51970  0.63832  1.0000
  C   C2656     1.0  0.93360  0.55115  0.60733  1.0000
  C   C2657     1.0  0.90794  0.65290  0.61939  1.0000
  C   C2658     1.0  0.89463  0.66662  0.62380  1.0000
  C   C2659     1.0  0.88701  0.68711  0.60889  1.0000
  C   C2660     1.0  0.89267  0.69367  0.58947  1.0000
  C   C2661     1.0  0.90595  0.67977  0.58495  1.0000
  C   C2662     1.0  0.94012  0.68663  0.59745  1.0000
  C   C2663     1.0  0.93388  0.72978  0.59810  1.0000
  C   C2664     1.0  0.94113  0.76433  0.60029  1.0000
  C   C2665     1.0  0.95463  0.75620  0.60168  1.0000
  C   C2666     1.0  0.96091  0.71346  0.60109  1.0000
  C   C2667     1.0  0.95372  0.67871  0.59898  1.0000
  H   H2114     1.0  0.92197  0.56965  0.53719  1.0000
  C   C2668     1.0  0.85299  0.48195  0.62087  1.0000
  H   H2115     1.0  0.95039  0.66757  0.56098  1.0000
  H   H2116     1.0  0.91755  0.58946  0.57106  1.0000
  H   H2117     1.0  0.94217  0.63084  0.63228  1.0000
  H   H2118     1.0  0.94841  0.56576  0.65544  1.0000
  H   H2119     1.0  0.93004  0.54561  0.59373  1.0000
  H   H2120     1.0  0.91371  0.63767  0.63123  1.0000
  H   H2121     1.0  0.89022  0.66168  0.63883  1.0000
  H   H2122     1.0  0.87672  0.69803  0.61242  1.0000
  H   H2123     1.0  0.88676  0.70972  0.57790  1.0000
  H   H2124     1.0  0.91021  0.68569  0.56986  1.0000
  H   H2125     1.0  0.92346  0.73712  0.59685  1.0000
  H   H2126     1.0  0.93632  0.79757  0.60087  1.0000
  H   H2127     1.0  0.96027  0.78312  0.60311  1.0000
  H   H2128     1.0  0.97139  0.70749  0.60225  1.0000
  H   H2129     1.0  0.95878  0.64576  0.59844  1.0000
  H   H2130     1.0  0.80435  0.32850  0.52895  1.0000
  H   H2131     1.0  0.75559  0.00730  0.70195  1.0000
  P   P89       1.0  0.98764  0.66903  0.71659  1.0000
  C   C2669     1.0  0.87206  0.54402  0.59279  1.0000
  H   H2132     1.0  0.82720  0.53843  0.59799  1.0000
  C   C2670     1.0  0.77383  0.43478  0.63392  1.0000
  H   H2133     1.0  0.86341  0.34840  0.51318  1.0000
  C   C2671     1.0  0.98592  0.43127  0.55650  1.0000
  H   H2134     1.0  0.77806  0.41210  0.64554  1.0000
  H   H2135     1.0  0.78012  0.87044  0.62479  1.0000
  C   C2672     1.0  0.85506  0.55391  0.55411  1.0000
  H   H2136     1.0  0.76894  0.16412  0.67513  1.0000
  C   C2673     1.0  0.98388  0.62313  0.70475  1.0000
  C   C2674     1.0  0.84017  0.30721  0.52256  1.0000
  H   H2137     1.0  0.90083  0.57911  0.60181  1.0000
  C   C2675     1.0  0.77758  0.95159  0.50741  1.0000
  C   C2676     1.0  0.78587  0.99093  0.69354  1.0000
  C   C2677     1.0  0.83526  0.28062  0.51043  1.0000
  H   H2138     1.0  0.82507  0.32850  0.55696  1.0000
  C   C2678     1.0  0.97957  0.57214  0.52565  1.0000
  H   H2139     1.0  0.79764  0.25278  0.53204  1.0000
  C   C2679     1.0  0.89923  0.51809  0.59041  1.0000
  C   C2680     1.0  0.97551  0.90249  0.71242  1.0000
  C   C2681     1.0  0.99007  0.57144  0.68042  1.0000
  H   H2140     1.0  0.78907  0.98731  0.67818  1.0000
  H   H2141     1.0  0.97490  0.75620  0.70026  1.0000
  C   C2682     1.0  0.77584  0.30465  0.50027  1.0000
  P   P90       1.0  0.85033  0.28330  0.54198  1.0000
  C   C2683     1.0  0.83206  0.32758  0.56776  1.0000
  H   H2142     1.0  0.75160  0.95920  0.65726  1.0000
  H   H2143     1.0  0.84918  0.72046  0.59859  1.0000
  C   C2684     1.0  0.75277  0.25374  0.50061  1.0000
  C   C2685     1.0  0.76343  0.49166  0.60300  1.0000
  C   C2686     1.0  0.99157  0.84993  0.72892  1.0000
  H   H2144     1.0  0.98660  0.82025  0.68412  1.0000
  H   H2145     1.0  0.87705  0.60243  0.60383  1.0000
  H   H2146     1.0  0.97583  0.52786  0.67699  1.0000
  C   C2687     1.0  0.75819  0.01110  0.63562  1.0000
  H   H2147     1.0  0.77999  0.06055  0.68807  1.0000
  C   C2688     1.0  0.94930  0.75357  0.73549  1.0000
  C   C2689     1.0  0.79276  0.27899  0.52245  1.0000
  C   C2690     1.0  0.76225  0.42643  0.62676  1.0000
  C   C2691     1.0  0.75731  0.43468  0.56619  1.0000
  C   C2692     1.0  0.84243  0.68462  0.62604  1.0000
  C   C2693     1.0  0.77668  0.03673  0.71900  1.0000
  H   H2148     1.0  0.87072  0.48142  0.58216  1.0000
  C   C2694     1.0  0.75662  0.11501  0.67065  1.0000
  C   C2695     1.0  0.76260  0.91204  0.53973  1.0000
  C   C2696     1.0  0.87081  0.32571  0.52020  1.0000
  H   H2149     1.0  0.86359  0.20650  0.52392  1.0000
  H   H2150     1.0  0.90969  0.50784  0.58942  1.0000
  C   C2697     1.0  0.76001  0.97242  0.64883  1.0000
  P   P91       1.0  0.85449  0.55950  0.59476  1.0000
  S   S371      1.0  0.94925  0.00686  0.72997  1.0000
  C   C2698     1.0  0.89422  0.55826  0.59727  1.0000
  H   H2151     1.0  0.98532  0.70791  0.67594  1.0000
  H   H2152     1.0  0.83327  0.23153  0.57085  1.0000
  C   C2699     1.0  0.93658  0.51450  0.62101  1.0000
  H   H2153     1.0  0.94478  0.49099  0.64846  1.0000
  H   H2154     1.0  0.96870  0.93233  0.71236  1.0000
  H   H2155     1.0  0.78922  0.47764  0.63105  1.0000
  H   H2156     1.0  0.75565  0.27214  0.52926  1.0000
  C   C2700     1.0  0.79652  0.32167  0.52076  1.0000
  C   C2701     1.0  0.84506  0.30848  0.56434  1.0000
  C   C2702     1.0  0.84469  0.60490  0.62707  1.0000
  C   C2703     1.0  0.75088  0.25126  0.52128  1.0000
  H   H2157     1.0  0.97127  0.88864  0.68387  1.0000
  H   H2158     1.0  0.98117  0.46239  0.56075  1.0000
  C   C2704     1.0  0.85659  0.19491  0.53580  1.0000
  H   H2159     1.0  0.76956  0.42820  0.53903  1.0000
  C   C2705     1.0  0.89389  0.30379  0.52376  1.0000
  C   C2706     1.0  0.76695  0.27586  0.57992  1.0000
  H   H2160     1.0  0.77288  0.06903  0.72300  1.0000
  H   H2161     1.0  0.82208  0.62760  0.54862  1.0000
  C   C2707     1.0  0.83644  0.59871  0.56846  1.0000
  H   H2162     1.0  0.95392  0.65012  0.52677  1.0000
  H   H2163     1.0  0.83086  0.61244  0.58097  1.0000
  H   H2164     1.0  0.97092  0.57442  0.51774  1.0000
  C   C2708     1.0  0.95739  0.76894  0.71907  1.0000
  C   C2709     1.0  0.89341  0.82339  0.71711  1.0000
  C   C2710     1.0  0.77612  0.89180  0.61254  1.0000
  H   H2165     1.0  0.84297  0.57321  0.63517  1.0000
  H   H2166     1.0  0.89456  0.45946  0.57965  1.0000
  C   C2711     1.0  0.78076  0.03218  0.69916  1.0000
  H   H2167     1.0  0.79509  0.90171  0.59751  1.0000
  H   H2168     1.0  0.86330  0.48259  0.62243  1.0000
  C   C2712     1.0  0.75691  0.45503  0.61131  1.0000
  C   C2713     1.0  0.84622  0.51462  0.60831  1.0000
  C   C2714     1.0  0.85001  0.56310  0.53573  1.0000
  C   C2715     1.0  0.85023  0.60816  0.60741  1.0000
  C   C2716     1.0  0.87719  0.50342  0.58622  1.0000
  C   C2717     1.0  0.98386  0.61023  0.53092  1.0000
  C   C2718     1.0  0.97805  0.55412  0.68489  1.0000
  C   C2719     1.0  0.78698  0.95427  0.70777  1.0000
  C   C2720     1.0  0.83274  0.51341  0.60727  1.0000
  H   H2169     1.0  0.83593  0.64074  0.65115  1.0000
  H   H2170     1.0  0.79093  0.92221  0.70348  1.0000
  C   C2721     1.0  0.84818  0.68811  0.60661  1.0000
  H   H2171     1.0  0.84083  0.37404  0.52869  1.0000
  C   C2722     1.0  0.97914  0.39391  0.56040  1.0000
  H   H2172     1.0  0.78620  0.95127  0.56963  1.0000
  H   H2173     1.0  0.98322  0.50190  0.52598  1.0000
  C   C2723     1.0  0.97191  0.60486  0.70949  1.0000
  C   C2724     1.0  0.98526  0.35293  0.55582  1.0000
  C   C2725     1.0  0.84628  0.13411  0.55478  1.0000
  H   H2174     1.0  0.84536  0.09903  0.55784  1.0000
  P   P92       1.0  0.75962  0.98481  0.56062  1.0000
  C   C2726     1.0  0.77774  0.99988  0.73338  1.0000
  C   C2727     1.0  0.76514  0.03915  0.55774  1.0000
  C   C2728     1.0  0.76048  0.07116  0.54287  1.0000
  C   C2729     1.0  0.76420  0.11398  0.54091  1.0000
  C   C2730     1.0  0.77238  0.12542  0.55402  1.0000
  C   C2731     1.0  0.77697  0.09387  0.56894  1.0000
  C   C2732     1.0  0.77339  0.05087  0.57080  1.0000
  C   C2733     1.0  0.97694  0.87789  0.69640  1.0000
  C   C2734     1.0  0.96901  0.57053  0.69956  1.0000
  C   C2735     1.0  0.78016  0.47157  0.62571  1.0000
  H   H2175     1.0  0.79309  0.38873  0.50714  1.0000
  C   C2736     1.0  0.77308  0.97522  0.52339  1.0000
  C   C2737     1.0  0.76590  0.94974  0.58148  1.0000
  C   C2738     1.0  0.77226  0.30452  0.56430  1.0000
  C   C2739     1.0  0.96895  0.74346  0.71312  1.0000
  C   C2740     1.0  0.78457  0.90953  0.59711  1.0000
  C   C2741     1.0  0.77950  0.93805  0.58154  1.0000
  H   H2176     1.0  0.77075  0.30061  0.54932  1.0000
  C   C2742     1.0  0.84079  0.64306  0.63629  1.0000
  C   C2743     1.0  0.74695  0.08841  0.67918  1.0000
  C   C2744     1.0  0.75701  0.14383  0.70176  1.0000
  H   H2177     1.0  0.77999  0.52819  0.60365  1.0000
  H   H2178     1.0  0.76044  0.13867  0.52961  1.0000
  H   H2179     1.0  0.77485  0.15907  0.55299  1.0000
  H   H2180     1.0  0.78304  0.10307  0.57941  1.0000
  H   H2181     1.0  0.77682  0.02740  0.58276  1.0000
  H   H2182     1.0  0.75379  0.06315  0.53300  1.0000
  C   C2745     1.0  0.86739  0.29158  0.53481  1.0000
  H   H2183     1.0  0.97999  0.32391  0.55902  1.0000
  C   C2746     1.0  0.89070  0.49073  0.58489  1.0000
  C   C2747     1.0  0.99269  0.82477  0.71294  1.0000
  C   C2748     1.0  0.83815  0.58963  0.53373  1.0000
  H   H2184     1.0  0.88368  0.83568  0.72303  1.0000
  H   H2185     1.0  0.93930  0.10841  0.68425  1.0000
  H   H2186     1.0  0.83887  0.71412  0.63303  1.0000
  H   H2187     1.0  0.77964  0.23720  0.51370  1.0000
  H   H2188     1.0  0.95976  0.55663  0.70319  1.0000
  H   H2189     1.0  0.86146  0.12664  0.53098  1.0000
  H   H2190     1.0  0.76495  0.41931  0.57524  1.0000
  H   H2191     1.0  0.97863  0.64232  0.52700  1.0000
  H   H2192     1.0  0.75272  0.46612  0.51792  1.0000
  H   H2193     1.0  0.97441  0.42539  0.51119  1.0000
  H   H2194     1.0  0.75607  0.88980  0.62471  1.0000
  H   H2195     1.0  0.76085  0.16557  0.71048  1.0000
  C   C2749     1.0  0.85536  0.14967  0.53968  1.0000
  C   C2750     1.0  0.78305  0.95874  0.72758  1.0000
  C   C2751     1.0  0.83835  0.16383  0.56593  1.0000
  S   S372      1.0  0.94393  0.32369  0.49852  1.0000
  C   C2752     1.0  0.98557  0.83920  0.69661  1.0000
  C   C2753     1.0  0.74742  0.11688  0.71037  1.0000
  C   C2754     1.0  0.96094  0.48108  0.50170  1.0000
  C   C2755     1.0  0.76713  0.88850  0.52376  1.0000
  H   H2196     1.0  0.83125  0.15177  0.57757  1.0000
  C   C2756     1.0  0.98278  0.88865  0.72860  1.0000
  C   C2757     1.0  0.74503  0.45039  0.57498  1.0000
  H   H2197     1.0  0.82745  0.40807  0.50192  1.0000
  S   S373      1.0  0.99058  0.77000  0.60990  1.0000
  C   C2758     1.0  0.99300  0.60556  0.69035  1.0000
  C   C2759     1.0  0.74769  0.37097  0.49516  1.0000
  H   H2198     1.0  0.90328  0.85767  0.73567  1.0000
  C   C2760     1.0  0.98651  0.53089  0.53051  1.0000
  H   H2199     1.0  0.74694  0.93951  0.59743  1.0000
  H   H2200     1.0  0.75688  0.89620  0.55224  1.0000
  H   H2201     1.0  0.74696  0.87326  0.70620  1.0000
  Fe  Fe186     1.0  0.99396  0.60246  0.61104  1.0000
  H   H2202     1.0  0.83738  0.24509  0.51248  1.0000
  C   C2761     1.0  0.82751  0.29994  0.49538  1.0000
  H   H2203     1.0  0.74556  0.35994  0.58424  1.0000
  H   H2204     1.0  0.74413  0.11804  0.72575  1.0000
  H   H2205     1.0  0.78344  0.96677  0.49493  1.0000
  H   H2206     1.0  0.77810  0.88998  0.49522  1.0000
  C   C2762     1.0  0.97377  0.02625  0.97059  1.0000
  C   C2763     1.0  0.76929  0.06292  0.76255  1.0000
  Fe  Fe187     1.0  0.98087  0.92584  0.83706  1.0000
  S   S374      1.0  0.98379  0.86716  0.86029  1.0000
  S   S375      1.0  0.97004  0.91013  0.81136  1.0000
  Fe  Fe188     1.0  0.97927  0.91465  0.88335  1.0000
  S   S376      1.0  0.96408  0.91139  0.91043  1.0000
  H   H2207     1.0  0.96190  0.03750  0.76025  1.0000
  S   S377      1.0  0.97474  0.97205  0.86023  1.0000
  H   H2208     1.0  0.96716  0.65624  0.74901  1.0000
  H   H2209     1.0  0.77300  0.02776  0.87385  1.0000
  Fe  Fe189     1.0  0.77591  0.91541  0.88900  1.0000
  S   S378      1.0  0.75409  0.93336  0.89045  1.0000
  S   S379      1.0  0.78915  0.92162  0.91382  1.0000
  Fe  Fe190     1.0  0.77593  0.88076  0.84701  1.0000
  S   S380      1.0  0.75403  0.89651  0.84680  1.0000
  S   S381      1.0  0.78976  0.85121  0.82203  1.0000
  Fe  Fe191     1.0  0.75717  0.95996  0.85825  1.0000
  C   C2764     1.0  0.93423  0.79365  0.94699  1.0000
  C   C2765     1.0  0.79793  0.95343  0.80212  1.0000
  C   C2766     1.0  0.81162  0.96569  0.77156  1.0000
  S   S382      1.0  0.77916  0.94525  0.85721  1.0000
  S   S383      1.0  0.77483  0.84899  0.87874  1.0000
  C   C2767     1.0  0.81032  0.95091  0.79168  1.0000
  C   C2768     1.0  0.79033  0.84020  0.75475  1.0000
  C   C2769     1.0  0.78722  0.97416  0.97527  1.0000
  C   C2770     1.0  0.79841  0.94889  0.96773  1.0000
  C   C2771     1.0  0.79880  0.93320  0.94905  1.0000
  C   C2772     1.0  0.78797  0.94177  0.93761  1.0000
  C   C2773     1.0  0.77668  0.96611  0.94538  1.0000
  C   C2774     1.0  0.77638  0.98250  0.96386  1.0000
  H   H2210     1.0  0.74976  0.14860  0.91614  1.0000
  H   H2211     1.0  0.80763  0.91443  0.94337  1.0000
  H   H2212     1.0  0.76826  0.97298  0.93694  1.0000
  H   H2213     1.0  0.76772  0.00223  0.96931  1.0000
  H   H2214     1.0  0.76001  0.18733  0.76859  1.0000
  C   C2775     1.0  0.77847  0.85253  0.76595  1.0000
  C   C2776     1.0  0.77809  0.85737  0.78628  1.0000
  C   C2777     1.0  0.78961  0.84907  0.79596  1.0000
  C   C2778     1.0  0.80147  0.83689  0.78476  1.0000
  C   C2779     1.0  0.80187  0.83291  0.76434  1.0000
  H   H2215     1.0  0.76945  0.85777  0.75887  1.0000
  H   H2216     1.0  0.76886  0.86653  0.79454  1.0000
  H   H2217     1.0  0.81045  0.83033  0.79195  1.0000
  C   C2780     1.0  0.97965  0.07145  0.90958  1.0000
  C   C2781     1.0  0.75513  0.94527  0.75884  1.0000
  C   C2782     1.0  0.96085  0.00295  0.76479  1.0000
  C   C2783     1.0  0.96543  0.98274  0.78284  1.0000
  C   C2784     1.0  0.96410  0.93815  0.78901  1.0000
  C   C2785     1.0  0.95824  0.91409  0.77673  1.0000
  C   C2786     1.0  0.95364  0.93433  0.75869  1.0000
  H   H2218     1.0  0.75966  0.81835  0.92528  1.0000
  H   H2219     1.0  0.96996  0.00174  0.79196  1.0000
  H   H2220     1.0  0.95726  0.87949  0.78120  1.0000
  H   H2221     1.0  0.98268  0.78966  0.81976  1.0000
  C   C2787     1.0  0.96313  0.85907  0.97678  1.0000
  C   C2788     1.0  0.95204  0.88220  0.96873  1.0000
  C   C2789     1.0  0.95262  0.89846  0.94850  1.0000
  C   C2790     1.0  0.96431  0.89248  0.93607  1.0000
  C   C2791     1.0  0.97555  0.87091  0.94427  1.0000
  C   C2792     1.0  0.97491  0.85395  0.96444  1.0000
  H   H2222     1.0  0.75698  0.11362  0.86404  1.0000
  H   H2223     1.0  0.94386  0.91515  0.94237  1.0000
  H   H2224     1.0  0.98466  0.86653  0.93503  1.0000
  H   H2225     1.0  0.98356  0.83620  0.97048  1.0000
  H   H2226     1.0  0.81886  0.93704  0.79919  1.0000
  H   H2227     1.0  0.74862  0.06231  0.75921  1.0000
  C   C2793     1.0  0.95560  0.76987  0.95850  1.0000
  C   C2794     1.0  0.75517  0.05949  0.91533  1.0000
  C   C2795     1.0  0.76399  0.20591  0.88187  1.0000
  H   H2228     1.0  0.80688  0.94209  0.97614  1.0000
  C   C2796     1.0  0.76555  0.06774  0.92560  1.0000
  C   C2797     1.0  0.75624  0.08191  0.76167  1.0000
  H   H2229     1.0  0.96119  0.99908  0.93881  1.0000
  C   C2798     1.0  0.75289  0.12657  0.76399  1.0000
  H   H2230     1.0  0.77420  0.14058  0.88079  1.0000
  C   C2799     1.0  0.76550  0.16245  0.87721  1.0000
  C   C2800     1.0  0.97681  0.79289  0.76461  1.0000
  C   C2801     1.0  0.98439  0.73354  0.88381  1.0000
  C   C2802     1.0  0.81304  0.84060  0.98366  1.0000
  C   C2803     1.0  0.96083  0.97469  0.99202  1.0000
  H   H2231     1.0  0.76670  0.77331  0.74932  1.0000
  H   H2232     1.0  0.97655  0.09513  0.87934  1.0000
  H   H2233     1.0  0.79607  0.69382  0.78175  1.0000
  Fe  Fe192     1.0  0.75307  0.86796  0.87897  1.0000
  H   H2234     1.0  0.79128  0.04003  0.89257  1.0000
  H   H2235     1.0  0.94288  0.88624  0.97794  1.0000
  H   H2236     1.0  0.94203  0.60109  0.88861  1.0000
  C   C2804     1.0  0.77271  0.73935  0.87382  1.0000
  C   C2805     1.0  0.77786  0.75582  0.85505  1.0000
  C   C2806     1.0  0.77176  0.75046  0.83841  1.0000
  C   C2807     1.0  0.75970  0.97594  0.76932  1.0000
  H   H2237     1.0  0.94042  0.91682  0.87542  1.0000
  C   C2808     1.0  0.98910  0.16947  0.94760  1.0000
  H   H2238     1.0  0.94618  0.85617  0.90092  1.0000
  H   H2239     1.0  0.94656  0.70090  0.75891  1.0000
  H   H2240     1.0  0.77734  0.97005  0.80090  1.0000
  H   H2241     1.0  0.76698  0.88470  0.93588  1.0000
  H   H2242     1.0  0.75816  0.75067  0.94870  1.0000
  H   H2243     1.0  0.92397  0.80530  0.95005  1.0000
  C   C2809     1.0  0.77697  0.70425  0.79765  1.0000
  H   H2244     1.0  0.97304  0.13003  0.94915  1.0000
  H   H2245     1.0  0.76431  0.74848  0.98269  1.0000
  H   H2246     1.0  0.80186  0.99418  0.74627  1.0000
  C   C2810     1.0  0.95789  0.02533  0.90930  1.0000
  C   C2811     1.0  0.97025  0.05741  0.98410  1.0000
  C   C2812     1.0  0.95487  0.97908  0.75259  1.0000
  C   C2813     1.0  0.76153  0.77938  0.95346  1.0000
  H   H2247     1.0  0.93850  0.79025  0.97731  1.0000
  H   H2248     1.0  0.96055  0.60329  0.90873  1.0000
  H   H2249     1.0  0.77725  0.74465  0.88674  1.0000
  H   H2250     1.0  0.78642  0.77392  0.85337  1.0000
  H   H2251     1.0  0.77562  0.76547  0.82416  1.0000
  H   H2252     1.0  0.97484  0.79449  0.74934  1.0000
  P   P93       1.0  0.98451  0.03833  0.94823  1.0000
  C   C2814     1.0  0.78605  0.70879  0.78106  1.0000
  H   H2253     1.0  0.78008  0.68522  0.81107  1.0000
  H   H2254     1.0  0.94484  0.90625  0.83994  1.0000
  C   C2815     1.0  0.76519  0.77820  0.97261  1.0000
  H   H2255     1.0  0.96799  0.67476  0.91309  1.0000
  C   C2816     1.0  0.76228  0.81764  0.94022  1.0000
  H   H2256     1.0  0.94914  0.91537  0.74950  1.0000
  C   C2817     1.0  0.96752  0.77723  0.77940  1.0000
  C   C2818     1.0  0.78121  0.04663  0.89870  1.0000
  C   C2819     1.0  0.98361  0.12964  0.94829  1.0000
  C   C2820     1.0  0.98114  0.78970  0.80437  1.0000
  C   C2821     1.0  0.98314  0.79462  0.90330  1.0000
  C   C2822     1.0  0.96211  0.05240  0.89249  1.0000
  C   C2823     1.0  0.76646  0.85504  0.94619  1.0000
  C   C2824     1.0  0.77022  0.85397  0.96525  1.0000
  C   C2825     1.0  0.75546  0.71114  0.85931  1.0000
  H   H2257     1.0  0.95851  0.76726  0.77548  1.0000
  C   C2826     1.0  0.75795  0.04487  0.89663  1.0000
  H   H2258     1.0  0.98730  0.89749  0.77490  1.0000
  H   H2259     1.0  0.76368  0.07748  0.94036  1.0000
  C   C2827     1.0  0.96967  0.77574  0.79925  1.0000
  H   H2260     1.0  0.75054  0.76597  0.77848  1.0000
  H   H2261     1.0  0.79600  0.83231  0.96983  1.0000
  C   C2828     1.0  0.75258  0.63226  0.81255  1.0000
  H   H2262     1.0  0.95511  0.83458  0.83021  1.0000
  H   H2263     1.0  0.98825  0.70313  0.75469  1.0000
  C   C2829     1.0  0.77852  0.06126  0.91731  1.0000
  C   C2830     1.0  0.78677  0.96961  0.79242  1.0000
  C   C2831     1.0  0.76944  0.75353  0.76279  1.0000
  H   H2264     1.0  0.97104  0.75233  0.93667  1.0000
  H   H2265     1.0  0.75983  0.93813  0.74462  1.0000
  H   H2266     1.0  0.94978  0.00605  0.90896  1.0000
  C   C2832     1.0  0.97537  0.04479  0.92672  1.0000
  H   H2267     1.0  0.74661  0.69483  0.86150  1.0000
  H   H2268     1.0  0.77153  0.21769  0.88911  1.0000
  H   H2269     1.0  0.96235  0.76447  0.81069  1.0000
  C   C2833     1.0  0.94237  0.78490  0.96238  1.0000
  C   C2834     1.0  0.97298  0.07542  0.89263  1.0000
  H   H2270     1.0  0.78311  0.15432  0.76999  1.0000
  H   H2271     1.0  0.82124  0.96354  0.76343  1.0000
  P   P94       1.0  0.77360  0.00538  0.75932  1.0000
  C   C2835     1.0  0.80053  0.98266  0.76185  1.0000
  H   H2272     1.0  0.93086  0.67086  0.87300  1.0000
  C   C2836     1.0  0.74757  0.59124  0.81543  1.0000
  H   H2273     1.0  0.96114  0.77293  0.85569  1.0000
  H   H2274     1.0  0.95719  0.05444  0.87915  1.0000
  H   H2275     1.0  0.97395  0.08920  0.98178  1.0000
  H   H2276     1.0  0.98705  0.21524  0.90165  1.0000
  C   C2837     1.0  0.98920  0.22974  0.80541  1.0000
  C   C2838     1.0  0.96451  0.02132  0.92632  1.0000
  H   H2277     1.0  0.79694  0.94149  0.81770  1.0000
  H   H2278     1.0  0.78653  0.06570  0.92568  1.0000
  C   C2839     1.0  0.77092  0.03907  0.88828  1.0000
  H   H2279     1.0  0.98835  0.08835  0.90903  1.0000
  C   C2840     1.0  0.78795  0.98411  0.77212  1.0000
  C   C2841     1.0  0.96913  0.98446  0.97493  1.0000
  H   H2280     1.0  0.75023  0.03702  0.88855  1.0000
  H   H2281     1.0  0.75640  0.00799  0.79614  1.0000
  H   H2282     1.0  0.97976  0.71076  0.87669  1.0000
  C   C2842     1.0  0.97689  0.76330  0.89558  1.0000
  P   P95       1.0  0.75258  0.72088  0.81884  1.0000
  P   P96       1.0  0.95922  0.76569  0.89862  1.0000
  C   C2843     1.0  0.95394  0.71370  0.89487  1.0000
  C   C2844     1.0  0.95276  0.77417  0.92355  1.0000
  C   C2845     1.0  0.93936  0.78779  0.92768  1.0000
  H   H2283     1.0  0.75259  0.56403  0.80803  1.0000
  C   C2846     1.0  0.76072  0.72683  0.84033  1.0000
  H   H2284     1.0  0.81109  0.82333  0.75613  1.0000
  C   C2847     1.0  0.96078  0.76427  0.93921  1.0000
  C   C2848     1.0  0.96002  0.67419  0.90404  1.0000
  C   C2849     1.0  0.95579  0.63370  0.90166  1.0000
  C   C2850     1.0  0.94535  0.63247  0.89035  1.0000
  C   C2851     1.0  0.93908  0.67177  0.88151  1.0000
  C   C2852     1.0  0.94330  0.71232  0.88385  1.0000
  C   C2853     1.0  0.95359  0.80924  0.88026  1.0000
  C   C2854     1.0  0.95617  0.80363  0.86017  1.0000
  C   C2855     1.0  0.95278  0.83830  0.84572  1.0000
  C   C2856     1.0  0.94699  0.87895  0.85120  1.0000
  C   C2857     1.0  0.94448  0.88486  0.87114  1.0000
  C   C2858     1.0  0.94775  0.85016  0.88563  1.0000
  H   H2285     1.0  0.77361  0.88314  0.96958  1.0000
  C   C2859     1.0  0.75321  0.98412  0.78778  1.0000
  H   H2286     1.0  0.74965  0.81237  0.82800  1.0000
  C   C2860     1.0  0.98833  0.80729  0.76965  1.0000
  H   H2287     1.0  0.97742  0.81964  0.91133  1.0000
  H   H2288     1.0  0.93290  0.79428  0.91595  1.0000
  H   H2289     1.0  0.93813  0.74245  0.87725  1.0000
  H   H2290     1.0  0.96189  0.76350  0.97049  1.0000
  H   H2291     1.0  0.81890  0.84715  0.96974  1.0000
  C   C2861     1.0  0.74600  0.67633  0.96987  1.0000
  C   C2862     1.0  0.99048  0.80513  0.78965  1.0000
  H   H2292     1.0  0.75058  0.62021  0.95342  1.0000
  C   C2863     1.0  0.99172  0.08954  0.94785  1.0000
  C   C2864     1.0  0.76036  0.74948  0.77941  1.0000
  C   C2865     1.0  0.76996  0.81515  0.97844  1.0000
  C   C2866     1.0  0.76142  0.71748  0.87596  1.0000
  C   C2867     1.0  0.98617  0.18609  0.80941  1.0000
  S   S384      1.0  0.75167  0.03056  0.84461  1.0000
  H   H2293     1.0  0.75197  0.26787  0.88060  1.0000
  H   H2294     1.0  0.78939  0.73796  0.75091  1.0000
  C   C2868     1.0  0.74614  0.66772  0.82212  1.0000
  H   H2295     1.0  0.97197  0.95913  0.96515  1.0000
  H   H2296     1.0  0.76145  0.63595  0.80287  1.0000
  C   C2869     1.0  0.95282  0.71277  0.74613  1.0000
  H   H2297     1.0  0.78910  0.07550  0.76610  1.0000
  C   C2870     1.0  0.75287  0.23436  0.87695  1.0000
  C   C2871     1.0  0.76409  0.72501  0.79703  1.0000
  C   C2872     1.0  0.75580  0.14717  0.86790  1.0000
  H   H2298     1.0  0.98281  0.20018  0.94837  1.0000
  H   H2299     1.0  0.75710  0.70625  0.89055  1.0000
  H   H2300     1.0  0.98397  0.25255  0.79483  1.0000
  C   C2873     1.0  0.79995  0.83257  0.98380  1.0000
  C   C2874     1.0  0.78229  0.73350  0.76366  1.0000
  C   C2875     1.0  0.77560  0.13410  0.76766  1.0000
  C   C2876     1.0  0.76258  0.15269  0.76691  1.0000
  H   H2301     1.0  0.97861  0.17504  0.80195  1.0000
  C   C2877     1.0  0.77896  0.08936  0.76549  1.0000
  C   C2878     1.0  0.74457  0.17520  0.86334  1.0000
  H   H2302     1.0  0.75566  0.67368  0.97507  1.0000
  H   H2303     1.0  0.98218  0.16516  0.99366  1.0000
  H   H2304     1.0  0.99058  0.12273  0.82630  1.0000
  C   C2879     1.0  0.99290  0.15664  0.82307  1.0000
  C   C2880     1.0  0.74437  0.92291  0.76677  1.0000
