data_image0
_chemical_formula_structural       H2FeSFeS3HSCHSFeSHC6H3C6H4FeC4H3C7H3C2HCSHCPC13HCFeC7H4CH5C5HCHSHPCH5C2HC3HSH2CHCHCFeHCHC2H3CH4C2HSHCHC2H3SC2HCPH2CHCHC3HCH2S2CH3CSCHCH2CHC2H4CHC4H2C3HCH2CHCH2C2HSHFeCH3C2H3SH2C3HFeH3CH2SHCH3C4FeCHCH4C2PH3C3HC6HC3HC2H2C4H2C3H4C2HCHC9HC4H3C2PC2H3CFeC4HC2HCHC2HC5HCPH2CH3C4HFeCHCHCHCHC2H2C2SFeCHSCSHSHS2HCHFeSCSFeSFeS3CSHCH3FeS2C7H4C3H5CHC8H3CH3CH3CHCHC3HC9H2CH2C2HFeH3CH5CH4CHC2HFeHC6H3C2H3CHSH2C2HCHC2H2CSCHC3PC10SC11H8FeCH7CHC7PC4HC3HC7H6CHCH2CH3C2SCFeC4PCHC2PH2CHC2H3C3HCHC4H2PHC2S2FeSFeS2FeSFeS3FeS2FeS2Fe2S5H2C6H2C6H4C4SCH3C6H4C6H4CH2C3HCH2C10HSC2HCHC4H2CSH2C3H2PCH4CH3C6PC18H18CH2CH2C2FeHCHC6PC13H3CH12C4PHC3HC2H3CH2CHC4SH2C2FeHCH3C12H3SH2CH3C2HCH4CHSH2CHCH2C2Fe2HC2HCH3CH2C3HC3H2CHCH7CHC4PCHCH2CPHCH2FeS2FeS2FeSFeS5FeSFeS2FeS2FeSFeS3CSCSC7H6C4H3C6H4C6H4C6H4C6H5C6H4C3H2CH2C2HCPCH4C2PC3HC12H10CFeCH5CFeC2HC4HCHCHCH2CHCFeCHC2H2CH2CH2C2HC4H5SH2CHC2HC2HCHC5HCHSHCH4CHC2H2C4H3CHC4HCH2C6HPC2SHC5H2C8H6C2H3PH4C2H2C4PC3HC4SC2HC5HCH4CHC2H2CH2C4HCHCH4CHCSCFeSFeSHCHSFeCSH2C2H3C2PC2H3C3H4CH2CH3C3PHC3H2C11SH2CHFeH3CHCHCH5C6HCHSH2C5HC3HC4SH2C2H3SC2H2C3HSHC2H3C2HC3SHC2FeSCPSCSFeSFeSC4HCHC3HCH2SC2HC2H2C2HPHC6SCH3CHC7H4CHC2H3C2H3CH2SCHCH4CPC2PHCHCH2CH2CHCPC3H3FeCHC3HC2H3C5HC2H3CH2C2H2CHCH2CHC3H2CHC3H3C4HC2HC5H2CH2CSHC6H3FeS2FeS2FeSFeS3HC3H2CFeS2FeSHFeSFeS5Fe2SC6H4C7H2C2HCHC8H4C6H2SHC2H4SC6H5CHCHC3HC2HCH2C2HC2HSC2HCH3C2HCHC7PH2C3HCH5CHSHC5HCH2C2H3CHCPHC3HC2PCHC6HC2H6C2H3CH2CH2CH5C2HFeSHC5HCH2CSCHCHCH2CHCH3C2HCH2CH2C2HC2H3Fe2S2FeS2Fe2S3FeS2Fe2S2CSFe2S2FeS2CSFeS2FeS2Fe2S3C6H4C6H4CHCSHCH2C9H4C6H4C6H4PCH3CHPC2HPHC2HCHC2H2CHC4HC3HCH3CH3CHC2HCH2C2H3CH2C4HCH3C2HC3PC19H15C6PC2H3C2HCHC2HC2H5CSH2C5HSC3H3C3H2C2H2CH3CHPHCH2C2HCPC2H2FeH3C4SH5CH2C3HC2HCSHC5H2CH2C4HC3HCHC3HCH2CHC2HPC2HC3SC2HC2HC2HCHCH2CHCHCSC2HCHCHCH2FeH2C2HCHCHC2HC2H3CHCH4C6H6CHCFeSHSHSC2SH2S2FeSFeSHC3SC2HC6H4C2HCPHC7H3C2HC3HC2HFeH3CHCH2C3H4C2HC2HCH2C2HC3H3C2H2SCH2CHSC3H2CHC5HCH6CH2C2HCH4CHC2HCHC3HCH2C7H2CHC3HCHC2PCH3CH3C3PHC2HC3H3C5PC8HC5HCHCH10CH4CHC2HCH3SC2H4C2SCHCH2C6HCHCHC2HC2HC2HCH4C2SFeSH2Fe2S2CSHFeSFeS3HSFe2S2C6H4C6H4C6FeH3C6H4C6PC18H21C2HCHC2HC4HCH4SC3SHCH2CHCSHC3H3C2HPHC2HC4H2C9HPCH2CHCHC2SC2PH8CHC2H2CFeHFeHC2HC3H2C4HC3SCHCHCFeHC2HC2H2CHC4SC5HC2H6CHCH2CHC3H2FeHC2HC4
_chemical_formula_sum              "H1152 Fe96 S192 C1440 P48"
_cell_length_a       64.8174
_cell_length_b       51.9137
_cell_length_c       34.0197
_cell_angle_alpha    90.1921
_cell_angle_beta     90.0292
_cell_angle_gamma    89.9828

_space_group_name_H-M_alt    "P 1"
_space_group_IT_number       1

loop_
  _space_group_symop_operation_xyz
  'x, y, z'

loop_
  _atom_site_type_symbol
  _atom_site_label
  _atom_site_symmetry_multiplicity
  _atom_site_fract_x
  _atom_site_fract_y
  _atom_site_fract_z
  _atom_site_occupancy
  H   H1        1.0  0.26093  0.37297  0.42253  1.0000
  H   H2        1.0  0.23610  0.31178  0.00808  1.0000
  Fe  Fe1       1.0  0.13979  0.45502  0.10735  1.0000
  S   S1        1.0  0.16564  0.42451  0.10528  1.0000
  Fe  Fe2       1.0  0.09175  0.46127  0.10871  1.0000
  S   S2        1.0  0.06107  0.44247  0.08844  1.0000
  S   S3        1.0  0.11583  0.46088  0.06066  1.0000
  S   S4        1.0  0.11559  0.45213  0.15522  1.0000
  H   H3        1.0  0.28470  0.44625  0.05784  1.0000
  S   S5        1.0  0.14151  0.01307  0.16872  1.0000
  C   C1        1.0  0.26631  0.00766  0.24744  1.0000
  H   H4        1.0  0.10163  0.04695  0.22947  1.0000
  S   S6        1.0  0.19333  0.00712  0.10647  1.0000
  Fe  Fe3       1.0  0.11310  0.01236  0.12998  1.0000
  S   S7        1.0  0.09119  0.04721  0.12905  1.0000
  H   H5        1.0  0.25685  0.04653  0.15206  1.0000
  C   C2        1.0  0.20700  0.02930  0.07586  1.0000
  C   C3        1.0  0.19704  0.04901  0.05534  1.0000
  C   C4        1.0  0.32063  0.18560  0.11290  1.0000
  C   C5        1.0  0.24332  0.02359  0.19703  1.0000
  C   C6        1.0  0.24009  0.04440  0.04879  1.0000
  C   C7        1.0  0.22863  0.02722  0.07251  1.0000
  H   H6        1.0  0.18056  0.05122  0.05828  1.0000
  H   H7        1.0  0.16553  0.46015  0.18499  1.0000
  H   H8        1.0  0.23658  0.01209  0.08823  1.0000
  C   C8        1.0  0.01999  0.05135  0.11718  1.0000
  C   C9        1.0  0.03055  0.02809  0.10987  1.0000
  C   C10       1.0  0.05221  0.02639  0.11392  1.0000
  C   C11       1.0  0.06372  0.04808  0.12465  1.0000
  C   C12       1.0  0.05318  0.07142  0.13157  1.0000
  C   C13       1.0  0.03146  0.07301  0.12828  1.0000
  H   H9        1.0  0.02190  0.01124  0.10107  1.0000
  H   H10       1.0  0.06008  0.00842  0.10813  1.0000
  H   H11       1.0  0.06190  0.08839  0.13970  1.0000
  H   H12       1.0  0.02365  0.09105  0.13396  1.0000
  Fe  Fe4       1.0  0.15887  0.99746  0.11636  1.0000
  C   C14       1.0  0.20154  0.40086  0.08020  1.0000
  C   C15       1.0  0.18715  0.42064  0.07287  1.0000
  C   C16       1.0  0.19028  0.43652  0.04026  1.0000
  C   C17       1.0  0.08868  0.00908  0.23666  1.0000
  H   H13       1.0  0.19926  0.38833  0.10516  1.0000
  H   H14       1.0  0.00222  0.99140  0.29752  1.0000
  H   H15       1.0  0.25662  0.04224  0.04610  1.0000
  C   C18       1.0  0.00380  0.40141  0.14135  1.0000
  C   C19       1.0  0.00458  0.40820  0.10160  1.0000
  C   C20       1.0  0.02221  0.42057  0.08611  1.0000
  C   C21       1.0  0.03918  0.42700  0.11018  1.0000
  C   C22       1.0  0.03825  0.42062  0.15010  1.0000
  C   C23       1.0  0.02074  0.40782  0.16545  1.0000
  C   C24       1.0  0.07073  0.99418  0.23571  1.0000
  H   H16       1.0  0.02269  0.42513  0.05518  1.0000
  H   H17       1.0  0.05111  0.42532  0.16911  1.0000
  H   H18       1.0  0.02037  0.40282  0.19628  1.0000
  C   C25       1.0  0.21890  0.39715  0.05563  1.0000
  C   C26       1.0  0.30598  0.00278  0.13152  1.0000
  H   H19       1.0  0.17152  0.48285  0.24824  1.0000
  C   C27       1.0  0.08761  0.03558  0.23022  1.0000
  S   S8        1.0  0.28232  0.35494  0.03858  1.0000
  H   H20       1.0  0.31079  0.34742  0.30455  1.0000
  C   C28       1.0  0.02117  0.47941  0.01960  1.0000
  P   P1        1.0  0.01090  0.28286  0.14628  1.0000
  C   C29       1.0  0.03363  0.27216  0.17226  1.0000
  C   C30       1.0  0.00042  0.25654  0.11745  1.0000
  C   C31       1.0  0.99078  0.31891  0.19392  1.0000
  C   C32       1.0  0.09547  0.02400  0.98976  1.0000
  C   C33       1.0  0.99169  0.29310  0.18151  1.0000
  C   C34       1.0  0.99335  0.21074  0.10984  1.0000
  C   C35       1.0  0.00171  0.23115  0.13153  1.0000
  C   C36       1.0  0.04752  0.25512  0.15406  1.0000
  C   C37       1.0  0.06540  0.24727  0.17370  1.0000
  C   C38       1.0  0.06962  0.25654  0.21147  1.0000
  C   C39       1.0  0.05598  0.27372  0.22960  1.0000
  C   C40       1.0  0.03806  0.28158  0.21007  1.0000
  C   C41       1.0  0.28928  0.44427  0.22672  1.0000
  H   H21       1.0  0.31943  0.25052  0.12615  1.0000
  C   C42       1.0  0.05147  0.00575  0.22846  1.0000
  Fe  Fe5       1.0  0.31383  0.37324  0.03933  1.0000
  C   C43       1.0  0.24257  0.46586  0.11039  1.0000
  C   C44       1.0  0.27983  0.03463  0.19493  1.0000
  C   C45       1.0  0.26646  0.42176  0.09494  1.0000
  C   C46       1.0  0.06092  0.01111  0.00797  1.0000
  C   C47       1.0  0.27891  0.12629  0.11597  1.0000
  C   C48       1.0  0.22215  0.41324  0.02328  1.0000
  C   C49       1.0  0.28547  0.23535  0.99300  1.0000
  H   H22       1.0  0.13891  0.06126  0.03359  1.0000
  H   H23       1.0  0.22262  0.35579  0.99561  1.0000
  H   H24       1.0  0.10998  0.03296  0.99743  1.0000
  H   H25       1.0  0.08410  0.44668  0.00333  1.0000
  C   C50       1.0  0.31007  0.02935  0.13109  1.0000
  H   H26       1.0  0.04463  0.24809  0.12452  1.0000
  H   H27       1.0  0.07606  0.23412  0.15949  1.0000
  H   H28       1.0  0.08355  0.25057  0.22656  1.0000
  H   H29       1.0  0.05937  0.28115  0.25871  1.0000
  H   H30       1.0  0.02785  0.29518  0.22440  1.0000
  C   C51       1.0  0.18268  0.48459  0.22462  1.0000
  C   C52       1.0  0.23008  0.06413  0.02823  1.0000
  C   C53       1.0  0.19313  0.47483  0.15795  1.0000
  C   C54       1.0  0.17922  0.47191  0.18898  1.0000
  C   C55       1.0  0.31612  0.43343  0.18009  1.0000
  H   H31       1.0  0.22982  0.38194  0.06186  1.0000
  C   C56       1.0  0.25986  0.03608  0.17885  1.0000
  H   H32       1.0  0.15173  0.01989  0.00785  1.0000
  S   S9        1.0  0.99252  0.05183  0.11252  1.0000
  H   H33       1.0  0.30222  0.07024  0.25116  1.0000
  P   P2        1.0  0.26666  0.46527  0.45857  1.0000
  C   C57       1.0  0.23745  0.44214  0.12759  1.0000
  H   H34       1.0  0.23473  0.01168  0.37696  1.0000
  H   H35       1.0  0.05075  0.30378  0.11835  1.0000
  H   H36       1.0  0.29830  0.44556  0.28738  1.0000
  H   H37       1.0  0.00882  0.22710  0.15963  1.0000
  H   H38       1.0  0.29825  0.01756  0.24131  1.0000
  C   C58       1.0  0.29810  0.10383  0.16653  1.0000
  C   C59       1.0  0.05056  0.03244  0.22202  1.0000
  H   H39       1.0  0.27757  0.06182  0.09986  1.0000
  C   C60       1.0  0.24650  0.00959  0.23150  1.0000
  C   C61       1.0  0.28626  0.01576  0.35921  1.0000
  C   C62       1.0  0.31373  0.21102  0.11005  1.0000
  H   H40       1.0  0.99516  0.35850  0.06357  1.0000
  S   S10       1.0  0.24352  0.08626  0.99715  1.0000
  H   H41       1.0  0.30932  0.30702  0.06792  1.0000
  H   H42       1.0  0.32327  0.32171  0.13201  1.0000
  C   C63       1.0  0.25020  0.48561  0.42888  1.0000
  H   H43       1.0  0.99382  0.19128  0.12129  1.0000
  C   C64       1.0  0.27167  0.44525  0.07775  1.0000
  H   H44       1.0  0.18998  0.46545  0.13014  1.0000
  C   C65       1.0  0.29001  0.48198  0.47274  1.0000
  Fe  Fe6       1.0  0.32130  0.10281  0.02047  1.0000
  H   H45       1.0  0.05314  0.48523  0.03475  1.0000
  C   C66       1.0  0.26304  0.41323  0.43773  1.0000
  H   H46       1.0  0.17931  0.45167  0.03397  1.0000
  C   C67       1.0  0.24854  0.48208  0.38802  1.0000
  C   C68       1.0  0.99619  0.00385  0.27485  1.0000
  H   H47       1.0  0.27323  0.44852  0.23285  1.0000
  H   H48       1.0  0.22255  0.45764  0.47522  1.0000
  H   H49       1.0  0.26414  0.48528  0.07191  1.0000
  C   C69       1.0  0.28539  0.39176  0.39081  1.0000
  H   H50       1.0  0.10352  1.00000  0.24150  1.0000
  H   H51       1.0  0.29016  0.37441  0.37549  1.0000
  H   H52       1.0  0.22800  0.02465  0.18410  1.0000
  H   H53       1.0  0.28451  0.44051  0.16430  1.0000
  C   C70       1.0  0.20847  0.06622  0.03170  1.0000
  C   C71       1.0  0.07965  0.02292  0.01750  1.0000
  H   H54       1.0  0.22993  0.48245  0.03545  1.0000
  S   S11       1.0  0.29382  0.12885  0.01220  1.0000
  H   H55       1.0  0.20049  0.08135  0.01607  1.0000
  C   C72       1.0  0.25990  0.46725  0.08563  1.0000
  H   H56       1.0  0.04889  0.01027  0.03002  1.0000
  C   C73       1.0  0.30358  0.44278  0.25747  1.0000
  C   C74       1.0  0.01760  0.30956  0.11468  1.0000
  H   H57       1.0  0.21149  0.99455  0.99214  1.0000
  H   H58       1.0  0.24522  0.40191  0.13281  1.0000
  H   H59       1.0  0.03178  0.36878  0.05018  1.0000
  S   S12       1.0  0.30455  0.06781  0.99669  1.0000
  C   C75       1.0  0.04342  0.33655  0.08316  1.0000
  C   C76       1.0  0.28295  0.01988  0.22905  1.0000
  H   H60       1.0  0.29843  0.02995  0.35624  1.0000
  C   C77       1.0  0.29558  0.43968  0.18806  1.0000
  P   P3        1.0  0.30150  0.04999  0.17069  1.0000
  H   H61       1.0  0.29793  0.45508  0.39884  1.0000
  H   H62       1.0  0.26249  0.04397  0.36970  1.0000
  C   C78       1.0  0.28979  0.43726  0.40428  1.0000
  H   H63       1.0  0.00118  0.33322  0.18193  1.0000
  C   C79       1.0  0.25038  0.00532  0.37125  1.0000
  H   H64       1.0  0.26877  0.99651  0.27390  1.0000
  C   C80       1.0  0.99747  0.02189  0.20940  1.0000
  C   C81       1.0  0.32228  0.05565  0.20534  1.0000
  C   C82       1.0  0.29297  0.08004  0.14926  1.0000
  H   H65       1.0  0.06789  0.06767  0.21678  1.0000
  C   C83       1.0  0.24948  0.42027  0.12012  1.0000
  H   H66       1.0  0.25037  0.41212  0.45835  1.0000
  H   H67       1.0  0.08195  0.03113  0.04653  1.0000
  S   S13       1.0  0.28631  0.28827  0.99645  1.0000
  S   S14       1.0  0.13100  0.99967  0.07621  1.0000
  C   C84       1.0  0.00580  0.00543  0.23791  1.0000
  H   H68       1.0  0.00464  0.02342  0.18083  1.0000
  H   H69       1.0  0.30745  0.44699  0.48362  1.0000
  H   H70       1.0  0.26463  0.10227  0.07188  1.0000
  C   C85       1.0  0.26897  0.39095  0.41740  1.0000
  S   S15       1.0  0.24388  0.40988  0.99129  1.0000
  C   C86       1.0  0.20754  0.43265  0.01552  1.0000
  H   H71       1.0  0.31268  0.17027  0.09725  1.0000
  C   C87       1.0  0.27356  0.43652  0.43156  1.0000
  H   H72       1.0  0.30028  0.21552  0.09235  1.0000
  H   H73       1.0  0.30856  0.41550  0.36386  1.0000
  C   C88       1.0  0.29110  0.12685  0.14987  1.0000
  H   H74       1.0  0.31192  0.39184  0.27988  1.0000
  C   C89       1.0  0.29575  0.41493  0.38420  1.0000
  C   C90       1.0  0.28118  0.07978  0.11458  1.0000
  H   H75       1.0  0.29745  0.99417  0.15542  1.0000
  H   H76       1.0  0.22407  0.44020  0.14629  1.0000
  H   H77       1.0  0.03616  0.04189  0.21513  1.0000
  H   H78       1.0  0.27549  0.40466  0.08847  1.0000
  C   C91       1.0  0.31794  0.06567  0.24290  1.0000
  H   H79       1.0  0.30774  0.10480  0.19237  1.0000
  C   C92       1.0  0.21079  0.49014  0.16239  1.0000
  C   C93       1.0  0.27392  0.10275  0.09842  1.0000
  C   C94       1.0  0.03836  0.31531  0.10645  1.0000
  C   C95       1.0  0.26604  0.02364  0.36693  1.0000
  H   H80       1.0  0.29531  0.14514  0.16295  1.0000
  H   H81       1.0  0.27356  0.14407  0.10285  1.0000
  C   C96       1.0  0.06857  0.04726  0.22313  1.0000
  C   C97       1.0  0.00206  0.32535  0.09903  1.0000
  C   C98       1.0  0.14775  0.06081  0.00651  1.0000
  H   H82       1.0  0.05944  0.34128  0.07765  1.0000
  C   C99       1.0  0.00719  0.34628  0.07523  1.0000
  H   H83       1.0  0.25728  0.46724  0.37314  1.0000
  H   H84       1.0  0.32087  0.42900  0.15019  1.0000
  C   C100      1.0  0.15510  0.03732  0.99188  1.0000
  H   H85       1.0  0.99164  0.40376  0.08275  1.0000
  C   C101      1.0  0.02784  0.35203  0.06757  1.0000
  H   H86       1.0  0.02400  0.46000  0.00941  1.0000
  H   H87       1.0  0.27302  0.23706  0.01402  1.0000
  C   C102      1.0  0.32145  0.03977  0.09988  1.0000
  C   C103      1.0  0.00125  0.99599  0.01085  1.0000
  H   H88       1.0  0.23361  0.00008  0.24561  1.0000
  S   S16       1.0  0.30392  0.40481  0.99781  1.0000
  H   H89       1.0  0.14686  0.10193  0.99867  1.0000
  Fe  Fe7       1.0  0.27311  0.38467  0.99437  1.0000
  C   C104      1.0  0.30754  0.46786  0.48412  1.0000
  H   H90       1.0  0.32304  0.48495  0.29199  1.0000
  H   H91       1.0  0.32306  0.18761  0.02714  1.0000
  H   H92       1.0  0.99076  0.46103  0.08727  1.0000
  C   C105      1.0  0.99032  0.26112  0.08158  1.0000
  C   C106      1.0  0.00119  0.48988  0.02028  1.0000
  H   H93       1.0  0.20963  0.44484  0.99016  1.0000
  H   H94       1.0  0.28324  0.19376  0.98945  1.0000
  H   H95       1.0  0.00452  0.00469  0.90010  1.0000
  S   S17       1.0  0.28253  0.35965  0.94285  1.0000
  H   H96       1.0  0.26362  0.18842  0.90320  1.0000
  H   H97       1.0  0.31933  0.27215  0.94166  1.0000
  C   C107      1.0  0.06199  0.44068  0.95704  1.0000
  C   C108      1.0  0.05439  0.47783  0.91597  1.0000
  C   C109      1.0  0.27467  0.43891  0.90796  1.0000
  H   H98       1.0  0.29964  0.39554  0.84065  1.0000
  Fe  Fe8       1.0  0.30694  0.13724  0.95291  1.0000
  H   H99       1.0  0.22277  0.43755  0.59736  1.0000
  H   H100      1.0  0.28494  0.46972  0.65694  1.0000
  H   H101      1.0  0.24569  0.04612  0.92811  1.0000
  C   C110      1.0  0.24052  0.24736  0.89937  1.0000
  H   H102      1.0  0.20371  0.44624  0.53548  1.0000
  H   H103      1.0  0.21205  0.03872  0.95939  1.0000
  S   S18       1.0  0.28877  0.10510  0.92379  1.0000
  H   H104      1.0  0.01362  0.41566  0.80649  1.0000
  C   C111      1.0  0.31297  0.40427  0.82702  1.0000
  H   H105      1.0  0.02210  0.03712  0.94381  1.0000
  H   H106      1.0  0.99561  0.37153  0.94278  1.0000
  H   H107      1.0  0.24054  0.46682  0.84546  1.0000
  C   C112      1.0  0.00952  0.43235  0.82403  1.0000
  C   C113      1.0  0.30686  0.20821  0.95104  1.0000
  C   C114      1.0  0.23431  0.33832  0.90170  1.0000
  C   C115      1.0  0.31181  0.41334  0.78782  1.0000
  Fe  Fe9       1.0  0.31628  0.07978  0.93618  1.0000
  C   C116      1.0  0.22761  0.34377  0.97129  1.0000
  H   H108      1.0  0.27220  0.42477  0.66243  1.0000
  C   C117      1.0  0.24148  0.31316  0.90839  1.0000
  H   H109      1.0  0.22214  0.37308  0.92809  1.0000
  H   H110      1.0  0.30941  0.03478  0.65697  1.0000
  H   H111      1.0  0.04083  0.44554  0.82942  1.0000
  H   H112      1.0  0.22632  0.25678  0.90805  1.0000
  C   C118      1.0  0.99861  0.43647  0.95607  1.0000
  C   C119      1.0  0.23991  0.01998  0.87985  1.0000
  P   P4        1.0  0.25224  0.29475  0.86818  1.0000
  H   H113      1.0  0.20827  0.30738  0.85648  1.0000
  H   H114      1.0  0.24158  0.43962  0.90512  1.0000
  H   H115      1.0  0.23465  0.34645  0.87245  1.0000
  C   C120      1.0  0.20137  0.01153  0.91535  1.0000
  C   C121      1.0  0.25532  0.46165  0.85799  1.0000
  C   C122      1.0  0.31137  0.25521  0.95209  1.0000
  H   H116      1.0  0.00047  0.99608  0.82949  1.0000
  C   C123      1.0  0.27862  0.46286  0.68448  1.0000
  C   C124      1.0  0.21565  0.02864  0.93232  1.0000
  C   C125      1.0  0.21481  0.30149  0.82858  1.0000
  C   C126      1.0  0.05135  0.45180  0.92563  1.0000
  C   C127      1.0  0.23480  0.03284  0.91466  1.0000
  C   C128      1.0  0.16705  0.03656  0.95753  1.0000
  H   H117      1.0  0.23137  0.21067  0.92335  1.0000
  C   C129      1.0  0.29792  0.33934  0.81997  1.0000
  C   C130      1.0  0.02487  0.44932  0.83698  1.0000
  C   C131      1.0  0.24338  0.28561  0.78946  1.0000
  H   H118      1.0  0.29058  0.21217  0.86718  1.0000
  C   C132      1.0  0.23112  0.44252  0.57088  1.0000
  C   C133      1.0  0.01495  0.99130  0.88619  1.0000
  H   H119      1.0  0.18590  0.30578  0.79796  1.0000
  H   H120      1.0  0.25481  0.02331  0.86628  1.0000
  C   C134      1.0  0.27659  0.31025  0.85830  1.0000
  C   C135      1.0  0.27655  0.22206  0.87588  1.0000
  C   C136      1.0  0.26370  0.42862  0.72331  1.0000
  C   C137      1.0  0.24202  0.30373  0.94699  1.0000
  H   H121      1.0  0.04068  0.43998  0.90934  1.0000
  H   H122      1.0  0.26100  0.44059  0.59849  1.0000
  C   C138      1.0  0.27134  0.43762  0.68750  1.0000
  C   C139      1.0  0.29201  0.00576  0.62587  1.0000
  C   C140      1.0  0.31135  0.32069  0.87983  1.0000
  H   H123      1.0  0.25835  0.40894  0.72572  1.0000
  H   H124      1.0  0.28616  0.25826  0.85232  1.0000
  H   H125      1.0  0.20489  0.48735  0.63396  1.0000
  H   H126      1.0  0.26671  0.32975  0.80523  1.0000
  C   C141      1.0  0.27878  0.47890  0.71756  1.0000
  C   C142      1.0  0.26345  0.45090  0.53755  1.0000
  H   H127      1.0  0.14475  0.02980  0.88856  1.0000
  C   C143      1.0  0.27918  0.32649  0.82572  1.0000
  H   H128      1.0  0.10493  0.01405  0.93103  1.0000
  C   C144      1.0  0.20200  0.30039  0.79549  1.0000
  C   C145      1.0  0.29525  0.25778  0.97918  1.0000
  C   C146      1.0  0.22581  0.00290  0.86270  1.0000
  C   C147      1.0  0.01964  0.47110  0.85948  1.0000
  C   C148      1.0  0.25263  0.44418  0.57155  1.0000
  C   C149      1.0  0.27177  0.46973  0.75402  1.0000
  C   C150      1.0  0.23507  0.31897  0.97826  1.0000
  C   C151      1.0  0.99290  0.39036  0.95562  1.0000
  C   C152      1.0  0.01196  0.02991  0.96656  1.0000
  H   H129      1.0  0.19991  0.29099  0.73386  1.0000
  C   C153      1.0  0.26386  0.44461  0.75649  1.0000
  C   C154      1.0  0.25580  0.44617  0.89159  1.0000
  C   C155      1.0  0.29128  0.21073  0.97923  1.0000
  C   C156      1.0  0.17128  0.05965  0.93767  1.0000
  H   H130      1.0  0.16768  0.10092  0.93746  1.0000
  H   H131      1.0  0.25843  0.43698  0.78415  1.0000
  H   H132      1.0  0.29760  0.41109  0.77167  1.0000
  C   C157      1.0  0.29949  0.01805  0.65955  1.0000
  C   C158      1.0  0.24321  0.22119  0.90771  1.0000
  P   P5        1.0  0.27319  0.49010  0.79715  1.0000
  C   C159      1.0  0.27381  0.47008  0.84061  1.0000
  C   C160      1.0  0.20988  0.29200  0.75940  1.0000
  H   H133      1.0  0.18037  0.05960  0.91097  1.0000
  H   H134      1.0  0.22981  0.99300  0.83567  1.0000
  H   H135      1.0  0.27502  0.42675  0.93379  1.0000
  C   C161      1.0  0.23569  0.29454  0.82558  1.0000
  Fe  Fe10      1.0  0.31381  0.37842  0.94819  1.0000
  C   C162      1.0  0.29309  0.44708  0.89082  1.0000
  C   C163      1.0  0.25620  0.26129  0.88048  1.0000
  C   C164      1.0  0.29274  0.30763  0.88541  1.0000
  C   C165      1.0  0.29272  0.46245  0.85713  1.0000
  H   H136      1.0  0.05930  0.42076  0.96492  1.0000
  C   C166      1.0  0.26127  0.20859  0.89614  1.0000
  C   C167      1.0  0.31698  0.23059  0.93786  1.0000
  H   H137      1.0  0.01225  0.41017  0.91430  1.0000
  C   C168      1.0  0.05790  0.00022  0.97053  1.0000
  H   H138      1.0  0.29064  0.29612  0.91155  1.0000
  C   C169      1.0  0.09257  0.01342  0.95236  1.0000
  C   C170      1.0  0.31397  0.33650  0.84708  1.0000
  H   H139      1.0  0.25928  0.27934  0.78694  1.0000
  C   C171      1.0  0.99883  0.47567  0.86870  1.0000
  C   C172      1.0  0.25279  0.45613  0.50251  1.0000
  C   C173      1.0  0.22726  0.35347  0.93304  1.0000
  C   C174      1.0  0.23054  0.28453  0.75643  1.0000
  C   C175      1.0  0.01382  0.00440  0.97982  1.0000
  H   H140      1.0  0.23658  0.27764  0.72861  1.0000
  C   C176      1.0  0.27406  0.24828  0.86798  1.0000
  P   P6        1.0  0.17670  0.00624  0.93877  1.0000
  H   H141      1.0  0.24847  0.28499  0.95342  1.0000
  H   H142      1.0  0.30773  0.44107  0.90329  1.0000
  C   C177      1.0  0.16400  0.08313  0.95246  1.0000
  H   H143      1.0  0.29623  0.01281  0.59701  1.0000
  H   H144      1.0  0.29990  0.35208  0.79507  1.0000
  H   H145      1.0  0.07209  0.99325  0.91369  1.0000
  C   C178      1.0  0.29476  0.00828  0.69666  1.0000
  C   C179      1.0  0.12941  0.99863  0.85922  1.0000
  C   C180      1.0  0.07951  0.48105  0.96899  1.0000
  C   C181      1.0  0.07607  0.45528  0.97866  1.0000
  H   H146      1.0  0.28007  0.45232  0.53908  1.0000
  Fe  Fe11      1.0  0.27794  0.09446  0.98505  1.0000
  C   C182      1.0  0.22040  0.44739  0.53605  1.0000
  H   H147      1.0  0.31468  0.47860  0.76816  1.0000
  C   C183      1.0  0.15227  0.08372  0.98691  1.0000
  H   H148      1.0  0.30101  0.01757  0.72267  1.0000
  C   C184      1.0  0.20660  0.99863  0.88038  1.0000
  H   H149      1.0  0.30725  0.46792  0.84395  1.0000
  C   C185      1.0  0.99718  0.04638  0.98291  1.0000
  H   H150      1.0  0.00570  0.45329  0.94315  1.0000
  C   C186      1.0  0.07384  0.00158  0.94267  1.0000
  C   C187      1.0  0.15815  0.99299  0.90440  1.0000
  H   H151      1.0  0.11851  0.01107  0.84434  1.0000
  H   H152      1.0  0.99581  0.06605  0.97270  1.0000
  C   C188      1.0  0.00235  0.41215  0.93972  1.0000
  C   C189      1.0  0.14431  0.00915  0.88439  1.0000
  S   S19       1.0  0.31319  0.17792  0.92934  1.0000
  Fe  Fe12      1.0  0.29428  0.33105  0.98797  1.0000
  C   C190      1.0  0.23117  0.45399  0.50192  1.0000
  H   H153      1.0  0.17941  0.98468  0.28162  1.0000
  S   S20       1.0  0.17183  0.78138  0.48376  1.0000
  C   C191      1.0  0.03787  0.49369  0.03396  1.0000
  S   S21       1.0  0.12412  0.52802  0.01731  1.0000
  H   H154      1.0  0.15313  0.73154  0.47787  1.0000
  S   S22       1.0  0.12038  0.51209  0.22646  1.0000
  H   H155      1.0  0.11257  0.52073  0.30890  1.0000
  S   S23       1.0  0.16100  0.62005  0.45527  1.0000
  S   S24       1.0  0.14497  0.49750  0.11697  1.0000
  H   H156      1.0  0.11853  0.56619  0.42664  1.0000
  C   C192      1.0  0.23859  0.50511  0.44700  1.0000
  H   H157      1.0  0.21613  0.53526  0.43954  1.0000
  Fe  Fe13      1.0  0.17410  0.58312  0.42929  1.0000
  S   S25       1.0  0.17266  0.56870  0.36423  1.0000
  C   C193      1.0  0.22087  0.95639  0.32608  1.0000
  S   S26       1.0  0.20656  0.59356  0.44840  1.0000
  Fe  Fe14      1.0  0.13422  0.97177  0.18411  1.0000
  S   S27       1.0  0.13460  0.96031  0.24996  1.0000
  Fe  Fe15      1.0  0.12360  0.95958  0.09702  1.0000
  S   S28       1.0  0.11108  0.92602  0.06014  1.0000
  S   S29       1.0  0.15267  0.95600  0.13350  1.0000
  S   S30       1.0  0.10451  0.97241  0.14900  1.0000
  C   C194      1.0  0.24566  0.52048  0.13077  1.0000
  S   S31       1.0  0.16000  0.85164  0.46414  1.0000
  H   H158      1.0  0.99259  0.97274  0.17710  1.0000
  C   C195      1.0  0.10284  0.74438  0.44301  1.0000
  H   H159      1.0  0.26081  0.85601  0.42022  1.0000
  H   H160      1.0  0.04879  0.94797  0.35344  1.0000
  H   H161      1.0  0.03557  0.90444  0.33678  1.0000
  Fe  Fe16      1.0  0.18506  0.87241  0.43128  1.0000
  S   S32       1.0  0.18340  0.88315  0.36534  1.0000
  S   S33       1.0  0.20883  0.84207  0.44696  1.0000
  C   C196      1.0  0.21766  0.96284  0.41326  1.0000
  C   C197      1.0  0.16958  0.90485  0.33401  1.0000
  C   C198      1.0  0.17279  0.90351  0.29306  1.0000
  C   C199      1.0  0.16223  0.92009  0.26690  1.0000
  C   C200      1.0  0.14838  0.93854  0.28132  1.0000
  C   C201      1.0  0.14518  0.93988  0.32230  1.0000
  C   C202      1.0  0.15566  0.92322  0.34844  1.0000
  H   H162      1.0  0.18352  0.88948  0.28139  1.0000
  H   H163      1.0  0.16490  0.91868  0.23559  1.0000
  H   H164      1.0  0.13451  0.95399  0.33395  1.0000
  H   H165      1.0  0.15291  0.92453  0.37973  1.0000
  C   C203      1.0  0.18592  0.51527  0.01531  1.0000
  C   C204      1.0  0.05020  0.94412  0.00559  1.0000
  C   C205      1.0  0.25490  0.56582  0.12853  1.0000
  H   H166      1.0  0.22314  0.90340  0.34626  1.0000
  H   H167      1.0  0.15348  0.63888  0.27637  1.0000
  H   H168      1.0  0.26744  0.49607  0.16143  1.0000
  H   H169      1.0  0.09716  0.88465  0.01059  1.0000
  H   H170      1.0  0.09767  0.63673  0.47923  1.0000
  C   C206      1.0  0.20328  0.97192  0.32137  1.0000
  H   H171      1.0  0.25137  0.58537  0.11968  1.0000
  C   C207      1.0  0.29056  0.50900  0.47481  1.0000
  C   C208      1.0  0.13571  0.52699  0.26450  1.0000
  C   C209      1.0  0.12760  0.52887  0.30290  1.0000
  C   C210      1.0  0.13867  0.54109  0.33372  1.0000
  C   C211      1.0  0.15805  0.55213  0.32670  1.0000
  C   C212      1.0  0.16623  0.55016  0.28832  1.0000
  C   C213      1.0  0.15525  0.53767  0.25758  1.0000
  C   C214      1.0  0.22343  0.51671  0.38450  1.0000
  H   H172      1.0  0.13213  0.54194  0.36290  1.0000
  H   H173      1.0  0.18113  0.55859  0.28219  1.0000
  H   H174      1.0  0.16172  0.53676  0.22832  1.0000
  C   C215      1.0  0.18691  0.64932  0.36649  1.0000
  H   H175      1.0  0.17360  0.71007  0.39390  1.0000
  H   H176      1.0  0.18550  0.93775  0.06836  1.0000
  H   H177      1.0  0.21285  0.52859  0.36765  1.0000
  C   C216      1.0  0.25910  0.92136  0.41422  1.0000
  H   H178      1.0  0.28380  0.57607  0.15575  1.0000
  H   H179      1.0  0.23424  0.86050  0.36800  1.0000
  H   H180      1.0  0.06310  0.91270  0.03869  1.0000
  C   C217      1.0  0.24161  0.87745  0.38015  1.0000
  H   H181      1.0  0.21497  0.96493  0.04776  1.0000
  C   C218      1.0  0.20129  0.95996  0.25258  1.0000
  H   H182      1.0  0.11741  0.82883  0.41551  1.0000
  C   C219      1.0  0.16514  0.95217  0.02352  1.0000
  C   C220      1.0  0.01721  0.91085  0.99005  1.0000
  C   C221      1.0  0.02312  0.93554  0.25200  1.0000
  H   H183      1.0  0.15213  0.94066  0.03305  1.0000
  C   C222      1.0  0.02487  0.91553  0.27925  1.0000
  C   C223      1.0  0.03486  0.51847  0.04886  1.0000
  C   C224      1.0  0.04374  0.96643  0.15563  1.0000
  C   C225      1.0  0.04192  0.95607  0.11777  1.0000
  C   C226      1.0  0.02243  0.95205  0.10134  1.0000
  C   C227      1.0  0.00473  0.95815  0.12287  1.0000
  C   C228      1.0  0.99823  0.51462  0.03621  1.0000
  C   C229      1.0  0.10367  0.62649  0.45388  1.0000
  C   C230      1.0  0.11879  0.84034  0.38929  1.0000
  H   H184      1.0  0.19176  0.94159  0.38942  1.0000
  H   H185      1.0  0.09595  0.73178  0.46468  1.0000
  C   C231      1.0  0.11356  0.86646  0.39152  1.0000
  H   H186      1.0  0.19337  0.96090  0.22449  1.0000
  H   H187      1.0  0.10278  0.58962  0.48275  1.0000
  C   C232      1.0  0.11737  0.76272  0.45471  1.0000
  C   C233      1.0  0.03085  0.96013  0.26101  1.0000
  H   H188      1.0  0.24298  0.93217  0.29580  1.0000
  Fe  Fe17      1.0  0.11983  0.49527  0.16275  1.0000
  H   H189      1.0  0.24109  0.98236  0.44774  1.0000
  H   H190      1.0  0.01903  0.89654  0.27203  1.0000
  H   H191      1.0  0.06341  0.95631  0.01127  1.0000
  C   C234      1.0  0.10545  0.92485  0.00892  1.0000
  H   H192      1.0  0.01584  0.93172  0.22395  1.0000
  H   H193      1.0  0.03405  0.88302  0.02438  1.0000
  H   H194      1.0  0.18979  0.52492  0.11372  1.0000
  H   H195      1.0  0.02102  0.94424  0.07194  1.0000
  H   H196      1.0  0.05899  0.96956  0.16758  1.0000
  C   C235      1.0  0.03416  0.91997  0.31574  1.0000
  H   H197      1.0  0.13794  0.79272  0.43635  1.0000
  H   H198      1.0  0.22858  0.71743  0.48201  1.0000
  H   H199      1.0  0.22705  0.55040  0.10401  1.0000
  H   H200      1.0  0.16909  0.94988  0.44623  1.0000
  C   C236      1.0  0.20417  0.74581  0.48255  1.0000
  H   H201      1.0  0.27893  0.95099  0.35586  1.0000
  C   C237      1.0  0.24114  0.54588  0.11959  1.0000
  C   C238      1.0  0.22905  0.94355  0.29318  1.0000
  H   H202      1.0  0.30940  0.96663  0.10079  1.0000
  Fe  Fe18      1.0  0.18419  0.82296  0.48330  1.0000
  H   H203      1.0  0.08189  0.54586  0.03240  1.0000
  C   C239      1.0  0.19881  0.69903  0.47854  1.0000
  C   C240      1.0  0.17752  0.70327  0.47705  1.0000
  C   C241      1.0  0.11562  0.88219  0.35853  1.0000
  C   C242      1.0  0.27761  0.53541  0.16061  1.0000
  C   C243      1.0  0.27315  0.56059  0.14892  1.0000
  C   C244      1.0  0.25655  0.87493  0.40952  1.0000
  H   H204      1.0  0.20260  0.51016  0.25688  1.0000
  H   H205      1.0  0.19701  0.98277  0.34580  1.0000
  H   H206      1.0  0.20009  0.63645  0.36625  1.0000
  C   C245      1.0  0.09864  0.90150  0.99220  1.0000
  C   C246      1.0  0.20022  0.49998  0.22938  1.0000
  H   H207      1.0  0.15418  0.60904  0.21974  1.0000
  H   H208      1.0  0.20399  0.68129  0.39052  1.0000
  H   H209      1.0  0.27655  0.89485  0.44985  1.0000
  C   C247      1.0  0.26386  0.51544  0.15182  1.0000
  H   H210      1.0  0.12192  0.76427  0.48529  1.0000
  S   S34       1.0  0.19346  0.89777  0.48303  1.0000
  H   H211      1.0  0.29173  0.53136  0.17652  1.0000
  H   H212      1.0  0.16713  0.68704  0.47470  1.0000
  C   C248      1.0  0.18463  0.95760  0.44604  1.0000
  C   C249      1.0  0.22523  0.52050  0.42500  1.0000
  H   H213      1.0  0.31693  0.51598  0.34580  1.0000
  C   C250      1.0  0.18910  0.67457  0.38018  1.0000
  H   H214      1.0  0.05572  0.95142  0.10109  1.0000
  C   C251      1.0  0.20376  0.50066  0.00920  1.0000
  C   C252      1.0  0.27517  0.97118  0.35952  1.0000
  H   H215      1.0  0.12689  0.57587  0.21189  1.0000
  H   H216      1.0  0.10836  0.87464  0.41915  1.0000
  C   C253      1.0  0.16759  0.64033  0.35445  1.0000
  S   S35       1.0  0.20961  0.66749  0.47705  1.0000
  C   C254      1.0  0.12648  0.77884  0.42687  1.0000
  H   H217      1.0  0.22520  0.93471  0.23156  1.0000
  C   C255      1.0  0.21177  0.50304  0.07899  1.0000
  C   C256      1.0  0.12612  0.82972  0.35390  1.0000
  C   C257      1.0  0.12841  0.84584  0.32103  1.0000
  P   P7        1.0  0.13444  0.79644  0.35119  1.0000
  C   C258      1.0  0.12115  0.77682  0.38702  1.0000
  C   C259      1.0  0.12921  0.78411  0.30246  1.0000
  C   C260      1.0  0.11088  0.79092  0.28307  1.0000
  C   C261      1.0  0.10688  0.78174  0.24512  1.0000
  C   C262      1.0  0.12107  0.76557  0.22638  1.0000
  C   C263      1.0  0.13921  0.75841  0.24572  1.0000
  C   C264      1.0  0.14328  0.76758  0.28366  1.0000
  C   C265      1.0  0.10638  0.75847  0.37548  1.0000
  C   C266      1.0  0.09731  0.74228  0.40341  1.0000
  C   C267      1.0  0.18287  0.75002  0.48154  1.0000
  S   S36       1.0  0.16787  0.56053  0.48478  1.0000
  C   C268      1.0  0.21207  0.72046  0.48103  1.0000
  C   C269      1.0  0.16186  0.79485  0.36052  1.0000
  C   C270      1.0  0.17476  0.81536  0.34983  1.0000
  C   C271      1.0  0.19601  0.81392  0.35643  1.0000
  C   C272      1.0  0.20457  0.79200  0.37370  1.0000
  C   C273      1.0  0.19189  0.77137  0.38403  1.0000
  C   C274      1.0  0.17062  0.77273  0.37746  1.0000
  C   C275      1.0  0.00650  0.96835  0.16082  1.0000
  C   C276      1.0  0.04161  0.94449  0.32513  1.0000
  C   C277      1.0  0.23540  0.90190  0.36775  1.0000
  C   C278      1.0  0.26539  0.89687  0.42631  1.0000
  H   H218      1.0  0.13486  0.83851  0.29385  1.0000
  H   H219      1.0  0.09977  0.80354  0.29717  1.0000
  H   H220      1.0  0.09287  0.78742  0.23003  1.0000
  H   H221      1.0  0.11807  0.75871  0.19678  1.0000
  H   H222      1.0  0.15027  0.74596  0.23113  1.0000
  H   H223      1.0  0.15749  0.76194  0.29799  1.0000
  H   H224      1.0  0.10194  0.75640  0.34504  1.0000
  H   H225      1.0  0.08605  0.72803  0.39436  1.0000
  Fe  Fe19      1.0  0.11931  0.50323  0.07239  1.0000
  C   C279      1.0  0.20064  0.96555  0.03141  1.0000
  H   H226      1.0  0.00292  0.97689  0.02294  1.0000
  H   H227      1.0  0.16855  0.83270  0.33687  1.0000
  H   H228      1.0  0.20569  0.83019  0.34897  1.0000
  H   H229      1.0  0.22097  0.79121  0.37975  1.0000
  H   H230      1.0  0.19849  0.75457  0.39809  1.0000
  H   H231      1.0  0.16106  0.75668  0.38625  1.0000
  H   H232      1.0  0.01266  0.54798  0.06239  1.0000
  C   C280      1.0  0.19342  0.97343  0.28486  1.0000
  H   H233      1.0  0.26541  0.93812  0.42898  1.0000
  C   C281      1.0  0.05014  0.91920  0.02110  1.0000
  C   C282      1.0  0.09951  0.70884  0.29709  1.0000
  C   C283      1.0  0.07885  0.70703  0.30852  1.0000
  C   C284      1.0  0.07224  0.68605  0.33087  1.0000
  C   C285      1.0  0.08630  0.66699  0.34208  1.0000
  C   C286      1.0  0.10720  0.66909  0.33173  1.0000
  C   C287      1.0  0.11360  0.68982  0.30830  1.0000
  P   P8        1.0  0.12515  0.64378  0.34386  1.0000
  C   C288      1.0  0.15026  0.65650  0.35611  1.0000
  C   C289      1.0  0.11735  0.62655  0.38737  1.0000
  C   C290      1.0  0.10910  0.63986  0.41975  1.0000
  C   C291      1.0  0.19746  0.95312  0.41371  1.0000
  H   H234      1.0  0.12529  0.88436  0.29813  1.0000
  C   C292      1.0  0.11546  0.58665  0.42439  1.0000
  C   C293      1.0  0.12098  0.59997  0.39036  1.0000
  C   C294      1.0  0.21430  0.50273  0.19843  1.0000
  H   H235      1.0  0.16608  0.62054  0.34480  1.0000
  C   C295      1.0  0.15247  0.68168  0.37083  1.0000
  C   C296      1.0  0.12578  0.62252  0.30171  1.0000
  C   C297      1.0  0.11006  0.60421  0.29630  1.0000
  C   C298      1.0  0.11051  0.58751  0.26397  1.0000
  C   C299      1.0  0.12638  0.58930  0.23640  1.0000
  C   C300      1.0  0.14180  0.60789  0.24101  1.0000
  C   C301      1.0  0.14144  0.62459  0.27339  1.0000
  H   H236      1.0  0.10456  0.72482  0.27913  1.0000
  H   H237      1.0  0.06790  0.72166  0.29952  1.0000
  H   H238      1.0  0.05613  0.68432  0.33901  1.0000
  H   H239      1.0  0.08078  0.65047  0.35837  1.0000
  H   H240      1.0  0.12946  0.69115  0.29843  1.0000
  H   H241      1.0  0.10723  0.66057  0.41895  1.0000
  C   C302      1.0  0.19401  0.51816  0.08465  1.0000
  H   H242      1.0  0.27719  0.52049  0.46749  1.0000
  C   C303      1.0  0.12304  0.87189  0.32331  1.0000
  H   H243      1.0  0.12859  0.58961  0.36685  1.0000
  H   H244      1.0  0.04787  0.52924  0.06035  1.0000
  C   C304      1.0  0.17191  0.69077  0.38215  1.0000
  H   H245      1.0  0.13922  0.69411  0.37456  1.0000
  H   H246      1.0  0.09765  0.60246  0.31742  1.0000
  H   H247      1.0  0.09883  0.57270  0.26061  1.0000
  C   C305      1.0  0.24422  0.92405  0.38446  1.0000
  C   C306      1.0  0.18116  0.52418  0.05294  1.0000
  S   S37       1.0  0.09437  0.50430  0.11852  1.0000
  C   C307      1.0  0.18398  0.95039  0.04325  1.0000
  Fe  Fe20      1.0  0.19278  0.62866  0.47784  1.0000
  C   C308      1.0  0.21915  0.94511  0.25668  1.0000
  C   C309      1.0  0.16963  0.72859  0.47863  1.0000
  C   C310      1.0  0.22522  0.97590  0.44651  1.0000
  C   C311      1.0  0.03375  0.90252  0.01315  1.0000
  P   P9        1.0  0.22773  0.49466  0.12078  1.0000
  C   C312      1.0  0.25491  0.97895  0.36822  1.0000
  H   H248      1.0  0.11200  0.90254  0.36047  1.0000
  C   C313      1.0  0.01503  0.52895  0.05001  1.0000
  C   C314      1.0  0.02605  0.97296  0.17732  1.0000
  P   P10       1.0  0.23447  0.95559  0.37247  1.0000
  H   H249      1.0  0.22757  0.51504  0.20257  1.0000
  H   H250      1.0  0.16711  0.53516  0.05763  1.0000
  C   C315      1.0  0.10665  0.59987  0.45602  1.0000
  H   H251      1.0  0.21456  0.76206  0.48472  1.0000
  C   C316      1.0  0.19211  0.97102  0.47874  1.0000
  C   C317      1.0  0.21663  0.49450  0.04087  1.0000
  H   H252      1.0  0.23968  0.50819  0.47838  1.0000
  H   H253      1.0  0.04561  0.98350  0.30580  1.0000
  H   H254      1.0  0.11210  0.96466  0.99727  1.0000
  C   C318      1.0  0.23515  0.49756  0.36597  1.0000
  C   C319      1.0  0.29081  0.98954  0.35538  1.0000
  C   C320      1.0  0.21245  0.98001  0.47909  1.0000
  H   H255      1.0  0.30649  0.98345  0.34931  1.0000
  C   C321      1.0  0.30832  0.52161  0.48808  1.0000
  H   H256      1.0  0.07204  0.97357  0.23985  1.0000
  C   C322      1.0  0.31278  0.98706  0.10062  1.0000
  C   C323      1.0  0.19852  0.98252  0.99984  1.0000
  C   C324      1.0  0.03986  0.96455  0.29800  1.0000
  C   C325      1.0  0.08585  0.55065  0.00243  1.0000
  H   H257      1.0  0.23364  0.49460  0.33457  1.0000
  H   H258      1.0  0.05746  0.57119  0.99135  1.0000
  P   P11       1.0  0.02836  0.98625  0.22639  1.0000
  H   H259      1.0  0.17552  0.51934  0.99112  1.0000
  C   C326      1.0  0.16294  0.96916  0.99203  1.0000
  C   C327      1.0  0.21921  0.94285  0.75952  1.0000
  S   S38       1.0  0.12807  0.60707  0.54913  1.0000
  S   S39       1.0  0.18835  0.60834  0.53555  1.0000
  Fe  Fe21      1.0  0.02632  0.58910  0.78161  1.0000
  S   S40       1.0  0.02734  0.61986  0.82845  1.0000
  Fe  Fe22      1.0  0.07297  0.59583  0.76207  1.0000
  S   S41       1.0  0.07707  0.62578  0.80952  1.0000
  S   S42       1.0  0.10136  0.58213  0.72694  1.0000
  Fe  Fe23      1.0  0.05710  0.60064  0.84774  1.0000
  S   S43       1.0  0.06001  0.59254  0.91379  1.0000
  Fe  Fe24      1.0  0.04738  0.64280  0.78695  1.0000
  S   S44       1.0  0.04501  0.68471  0.76569  1.0000
  S   S45       1.0  0.05527  0.56931  0.80245  1.0000
  S   S46       1.0  0.04404  0.61344  0.73796  1.0000
  Fe  Fe25      1.0  0.05507  0.83572  0.82041  1.0000
  S   S47       1.0  0.04658  0.84669  0.75845  1.0000
  S   S48       1.0  0.05057  0.79589  0.84854  1.0000
  Fe  Fe26      1.0  0.07475  0.88890  0.83847  1.0000
  S   S49       1.0  0.06836  0.90219  0.77664  1.0000
  S   S50       1.0  0.09047  0.92006  0.87626  1.0000
  Fe  Fe27      1.0  0.03653  0.88501  0.78502  1.0000
  Fe  Fe28      1.0  0.07888  0.86323  0.75543  1.0000
  S   S51       1.0  0.10320  0.84904  0.71075  1.0000
  S   S52       1.0  0.04285  0.87287  0.84740  1.0000
  S   S53       1.0  0.08749  0.85117  0.81696  1.0000
  S   S54       1.0  0.14523  0.89458  0.55500  1.0000
  S   S55       1.0  0.19246  0.84518  0.53818  1.0000
  H   H260      1.0  0.27189  0.57675  0.76740  1.0000
  H   H261      1.0  0.14808  0.97064  0.97775  1.0000
  C   C328      1.0  0.31530  0.54894  0.80661  1.0000
  C   C329      1.0  0.30019  0.91243  0.55431  1.0000
  C   C330      1.0  0.29505  0.93789  0.54522  1.0000
  C   C331      1.0  0.27548  0.94283  0.52872  1.0000
  C   C332      1.0  0.26116  0.92273  0.52198  1.0000
  C   C333      1.0  0.26626  0.89727  0.53146  1.0000
  H   H262      1.0  0.15137  0.57209  0.74739  1.0000
  H   H263      1.0  0.28433  0.53842  0.65802  1.0000
  C   C334      1.0  0.11505  0.86292  0.66842  1.0000
  C   C335      1.0  0.10775  0.88549  0.65081  1.0000
  C   C336      1.0  0.11722  0.89501  0.61632  1.0000
  C   C337      1.0  0.13405  0.88211  0.59893  1.0000
  C   C338      1.0  0.14148  0.85972  0.61680  1.0000
  C   C339      1.0  0.13207  0.85028  0.65126  1.0000
  H   H264      1.0  0.09470  0.89548  0.66352  1.0000
  H   H265      1.0  0.11136  0.91239  0.60291  1.0000
  H   H266      1.0  0.15442  0.84959  0.60397  1.0000
  H   H267      1.0  0.13809  0.83304  0.66462  1.0000
  C   C340      1.0  0.09572  0.92125  0.92761  1.0000
  C   C341      1.0  0.09361  0.89974  0.95190  1.0000
  C   C342      1.0  0.20106  0.61178  0.72805  1.0000
  C   C343      1.0  0.02535  0.96871  0.82703  1.0000
  S   S56       1.0  0.21997  0.54104  0.53220  1.0000
  C   C344      1.0  0.10264  0.94456  0.94431  1.0000
  H   H268      1.0  0.08836  0.88167  0.93953  1.0000
  H   H269      1.0  0.03302  0.51619  0.95529  1.0000
  H   H270      1.0  0.10441  0.96125  0.92577  1.0000
  C   C345      1.0  0.04645  0.71537  0.78958  1.0000
  C   C346      1.0  0.04562  0.73788  0.76663  1.0000
  C   C347      1.0  0.04683  0.76260  0.78406  1.0000
  C   C348      1.0  0.04889  0.76518  0.82483  1.0000
  C   C349      1.0  0.04938  0.74266  0.84783  1.0000
  C   C350      1.0  0.04826  0.71793  0.83037  1.0000
  H   H271      1.0  0.04399  0.73628  0.73511  1.0000
  H   H272      1.0  0.04618  0.77966  0.76595  1.0000
  H   H273      1.0  0.05061  0.74441  0.87941  1.0000
  H   H274      1.0  0.04861  0.70085  0.84846  1.0000
  C   C351      1.0  0.12122  0.60044  0.59902  1.0000
  C   C352      1.0  0.13296  0.58419  0.62291  1.0000
  C   C353      1.0  0.12662  0.57879  0.66175  1.0000
  C   C354      1.0  0.10848  0.58963  0.67751  1.0000
  C   C355      1.0  0.09680  0.60612  0.65376  1.0000
  C   C356      1.0  0.10313  0.61143  0.61482  1.0000
  H   H275      1.0  0.14666  0.57534  0.61113  1.0000
  H   H276      1.0  0.13567  0.56576  0.67946  1.0000
  H   H277      1.0  0.08278  0.61459  0.66523  1.0000
  H   H278      1.0  0.09381  0.62396  0.59669  1.0000
  C   C357      1.0  0.20019  0.50704  0.62865  1.0000
  H   H279      1.0  0.16804  0.95340  0.91214  1.0000
  H   H280      1.0  0.08864  0.83329  0.59582  1.0000
  C   C358      1.0  0.07714  0.57211  0.94031  1.0000
  C   C359      1.0  0.09613  0.56414  0.92493  1.0000
  C   C360      1.0  0.11014  0.55026  0.94864  1.0000
  H   H281      1.0  0.21871  0.95017  0.69769  1.0000
  C   C361      1.0  0.03035  0.97849  0.90773  1.0000
  H   H282      1.0  0.10031  0.56946  0.89527  1.0000
  H   H283      1.0  0.12504  0.54492  0.93686  1.0000
  C   C362      1.0  0.28776  0.53567  0.57430  1.0000
  C   C363      1.0  0.27991  0.55907  0.55965  1.0000
  C   C364      1.0  0.25934  0.56108  0.54619  1.0000
  C   C365      1.0  0.24618  0.53978  0.54797  1.0000
  C   C366      1.0  0.27463  0.51430  0.57576  1.0000
  C   C367      1.0  0.20534  0.64673  0.60861  1.0000
  C   C368      1.0  0.21541  0.54213  0.80252  1.0000
  C   C369      1.0  0.01878  0.53880  0.86527  1.0000
  C   C370      1.0  0.08027  0.51445  0.76992  1.0000
  C   C371      1.0  0.06858  0.49240  0.93808  1.0000
  H   H284      1.0  0.23352  0.98137  0.63689  1.0000
  S   S57       1.0  0.31264  0.96406  0.55217  1.0000
  C   C372      1.0  0.27987  0.98363  0.62924  1.0000
  C   C373      1.0  0.00919  0.56853  0.91706  1.0000
  H   H285      1.0  0.31570  0.56853  0.81765  1.0000
  C   C374      1.0  0.05950  0.50817  0.76460  1.0000
  H   H286      1.0  0.22404  0.93438  0.82081  1.0000
  C   C375      1.0  0.20410  0.55293  0.64136  1.0000
  C   C376      1.0  0.20968  0.93784  0.57746  1.0000
  C   C377      1.0  0.10169  0.79576  0.60665  1.0000
  C   C378      1.0  0.23763  0.91769  0.61333  1.0000
  H   H287      1.0  0.24656  0.90053  0.61908  1.0000
  H   H288      1.0  0.05260  0.50965  0.73566  1.0000
  C   C379      1.0  0.23602  0.60891  0.61183  1.0000
  S   S58       1.0  0.24924  0.87076  0.52257  1.0000
  H   H289      1.0  0.13757  0.80766  0.73565  1.0000
  H   H290      1.0  0.25922  0.88815  0.68756  1.0000
  C   C380      1.0  0.28891  0.87196  0.67427  1.0000
  C   C381      1.0  0.16875  0.60596  0.76274  1.0000
  C   C382      1.0  0.10724  0.94648  0.98476  1.0000
  H   H291      1.0  0.27133  0.96238  0.52119  1.0000
  H   H292      1.0  0.18225  0.97392  0.50410  1.0000
  P   P12       1.0  0.26174  0.94312  0.66994  1.0000
  C   C383      1.0  0.12844  0.80690  0.54468  1.0000
  H   H293      1.0  0.07100  0.51265  0.93194  1.0000
  H   H294      1.0  0.25402  0.51964  0.86078  1.0000
  H   H295      1.0  0.00325  0.57472  0.85557  1.0000
  H   H296      1.0  0.22429  0.66472  0.56440  1.0000
  C   C384      1.0  0.07686  0.50658  0.83983  1.0000
  H   H297      1.0  0.11635  0.96367  0.83517  1.0000
  H   H298      1.0  0.24277  0.50623  0.73723  1.0000
  H   H299      1.0  0.21843  0.98979  0.50487  1.0000
  C   C385      1.0  0.14443  0.66668  0.72988  1.0000
  C   C386      1.0  0.12703  0.65333  0.71664  1.0000
  C   C387      1.0  0.10811  0.65674  0.73558  1.0000
  C   C388      1.0  0.10657  0.67335  0.76790  1.0000
  C   C389      1.0  0.12407  0.68629  0.78213  1.0000
  C   C390      1.0  0.14299  0.68314  0.76247  1.0000
  P   P13       1.0  0.12173  0.70807  0.82354  1.0000
  C   C391      1.0  0.11196  0.73871  0.80654  1.0000
  C   C392      1.0  0.10465  0.69442  0.85994  1.0000
  C   C393      1.0  0.09201  0.71037  0.88306  1.0000
  C   C394      1.0  0.07910  0.69968  0.91165  1.0000
  C   C395      1.0  0.07876  0.67304  0.91744  1.0000
  C   C396      1.0  0.09153  0.65709  0.89504  1.0000
  C   C397      1.0  0.10446  0.66771  0.86643  1.0000
  C   C398      1.0  0.11571  0.76133  0.82814  1.0000
  C   C399      1.0  0.10879  0.78511  0.81412  1.0000
  C   C400      1.0  0.09810  0.78648  0.77850  1.0000
  C   C401      1.0  0.09408  0.76405  0.75717  1.0000
  C   C402      1.0  0.10069  0.74023  0.77141  1.0000
  C   C403      1.0  0.14680  0.71256  0.84595  1.0000
  C   C404      1.0  0.16036  0.73122  0.83111  1.0000
  C   C405      1.0  0.17977  0.73490  0.84822  1.0000
  C   C406      1.0  0.18582  0.71989  0.88023  1.0000
  C   C407      1.0  0.17249  0.70112  0.89503  1.0000
  C   C408      1.0  0.15307  0.69741  0.87796  1.0000
  H   H300      1.0  0.15902  0.66414  0.71486  1.0000
  H   H301      1.0  0.12814  0.64033  0.69170  1.0000
  H   H302      1.0  0.09459  0.64638  0.72527  1.0000
  H   H303      1.0  0.09165  0.67626  0.78166  1.0000
  H   H304      1.0  0.15662  0.69332  0.77216  1.0000
  H   H305      1.0  0.09174  0.73101  0.87870  1.0000
  H   H306      1.0  0.06902  0.71205  0.92872  1.0000
  H   H307      1.0  0.11418  0.65499  0.84924  1.0000
  H   H308      1.0  0.12374  0.76063  0.85602  1.0000
  H   H309      1.0  0.11137  0.80249  0.83113  1.0000
  H   H310      1.0  0.09255  0.80484  0.76768  1.0000
  H   H311      1.0  0.08522  0.76509  0.73020  1.0000
  H   H312      1.0  0.09655  0.72311  0.75533  1.0000
  H   H313      1.0  0.15584  0.74301  0.80647  1.0000
  H   H314      1.0  0.19005  0.74957  0.83687  1.0000
  H   H315      1.0  0.20079  0.72288  0.89370  1.0000
  H   H316      1.0  0.17713  0.68954  0.91997  1.0000
  H   H317      1.0  0.14302  0.68282  0.89006  1.0000
  C   C409      1.0  0.17969  0.98428  0.97958  1.0000
  H   H318      1.0  0.20279  0.94623  0.76290  1.0000
  H   H319      1.0  0.29012  0.87276  0.55483  1.0000
  C   C410      1.0  0.18482  0.51226  0.60098  1.0000
  H   H320      1.0  0.22134  0.52272  0.67067  1.0000
  H   H321      1.0  0.19593  0.98532  0.86672  1.0000
  C   C411      1.0  0.02780  0.52226  0.89293  1.0000
  C   C412      1.0  0.22284  0.64882  0.58486  1.0000
  Fe  Fe29      1.0  0.16974  0.87471  0.51714  1.0000
  H   H322      1.0  0.00281  0.58691  0.92608  1.0000
  C   C413      1.0  0.26688  0.57074  0.73843  1.0000
  H   H323      1.0  0.19700  0.93632  0.55675  1.0000
  C   C414      1.0  0.05960  0.72826  0.62925  1.0000
  C   C415      1.0  0.05892  0.71186  0.66173  1.0000
  C   C416      1.0  0.07693  0.70662  0.68273  1.0000
  C   C417      1.0  0.09555  0.71816  0.67194  1.0000
  C   C418      1.0  0.09626  0.73528  0.64013  1.0000
  C   C419      1.0  0.07826  0.73965  0.61807  1.0000
  P   P14       1.0  0.12068  0.74890  0.62544  1.0000
  C   C420      1.0  0.13425  0.75805  0.66992  1.0000
  C   C421      1.0  0.13534  0.72450  0.59937  1.0000
  C   C422      1.0  0.15648  0.72817  0.59200  1.0000
  C   C423      1.0  0.16807  0.70883  0.57365  1.0000
  C   C424      1.0  0.15872  0.68562  0.56273  1.0000
  C   C425      1.0  0.13775  0.68178  0.56993  1.0000
  C   C426      1.0  0.12606  0.70112  0.58804  1.0000
  C   C427      1.0  0.12991  0.78159  0.68866  1.0000
  C   C428      1.0  0.15631  0.77329  0.73724  1.0000
  C   C429      1.0  0.16024  0.74935  0.71982  1.0000
  C   C430      1.0  0.14915  0.74164  0.68649  1.0000
  C   C431      1.0  0.11707  0.77782  0.59633  1.0000
  C   C432      1.0  0.13033  0.78357  0.56484  1.0000
  H   H324      1.0  0.08394  0.50665  0.86853  1.0000
  H   H325      1.0  0.15721  0.61286  0.78333  1.0000
  H   H326      1.0  0.09110  0.63639  0.89947  1.0000
  C   C433      1.0  0.11332  0.82469  0.55556  1.0000
  H   H327      1.0  0.04564  0.73211  0.61278  1.0000
  H   H328      1.0  0.04448  0.70313  0.67080  1.0000
  H   H329      1.0  0.07631  0.69367  0.70759  1.0000
  H   H330      1.0  0.10938  0.71359  0.68834  1.0000
  H   H331      1.0  0.07856  0.75179  0.59229  1.0000
  H   H332      1.0  0.16401  0.74600  0.60040  1.0000
  H   H333      1.0  0.16767  0.67073  0.54813  1.0000
  H   H334      1.0  0.13054  0.66373  0.56141  1.0000
  H   H335      1.0  0.10985  0.69756  0.59330  1.0000
  H   H336      1.0  0.17201  0.73687  0.73191  1.0000
  H   H337      1.0  0.15232  0.72296  0.67364  1.0000
  H   H338      1.0  0.14245  0.77052  0.55595  1.0000
  C   C434      1.0  0.18659  0.62032  0.75572  1.0000
  C   C435      1.0  0.19791  0.58859  0.70744  1.0000
  C   C436      1.0  0.01767  0.55192  0.94494  1.0000
  C   C437      1.0  0.29656  0.50909  0.79472  1.0000
  P   P15       1.0  0.21553  0.57931  0.66847  1.0000
  H   H339      1.0  0.11801  0.79433  0.67800  1.0000
  C   C438      1.0  0.24719  0.57744  0.72496  1.0000
  C   C439      1.0  0.31456  0.49830  0.77865  1.0000
  C   C440      1.0  0.04040  0.95552  0.84836  1.0000
  H   H340      1.0  0.18382  0.57748  0.60767  1.0000
  C   C441      1.0  0.27385  0.54907  0.67688  1.0000
  C   C442      1.0  0.23865  0.51489  0.76511  1.0000
  H   H341      1.0  0.25145  0.63122  0.56730  1.0000
  H   H342      1.0  0.09145  0.79224  0.63122  1.0000
  H   H343      1.0  0.08945  0.52085  0.74514  1.0000
  C   C443      1.0  0.00957  0.56180  0.87733  1.0000
  H   H344      1.0  0.28445  0.85263  0.68256  1.0000
  H   H345      1.0  0.28036  0.49623  0.58707  1.0000
  C   C444      1.0  0.21426  0.96140  0.59543  1.0000
  H   H346      1.0  0.24974  0.55004  0.63382  1.0000
  C   C445      1.0  0.23040  0.96309  0.62267  1.0000
  C   C446      1.0  0.23811  0.62987  0.58640  1.0000
  C   C447      1.0  0.14100  0.78923  0.72190  1.0000
  C   C448      1.0  0.24212  0.94117  0.63213  1.0000
  S   S59       1.0  0.99953  0.56239  0.76290  1.0000
  H   H347      1.0  0.26155  0.92629  0.81289  1.0000
  H   H348      1.0  0.06845  0.66464  0.93899  1.0000
  C   C449      1.0  0.28018  0.91715  0.66543  1.0000
  C   C450      1.0  0.28589  0.89234  0.54760  1.0000
  Fe  Fe30      1.0  0.21572  0.86652  0.50058  1.0000
  H   H349      1.0  0.30502  0.94072  0.64227  1.0000
  C   C451      1.0  0.03362  0.95262  0.98237  1.0000
  H   H350      1.0  0.05008  0.94137  0.83381  1.0000
  H   H351      1.0  0.16711  0.54174  0.57209  1.0000
  H   H352      1.0  0.18899  0.63836  0.77116  1.0000
  C   C452      1.0  0.21849  0.60660  0.63585  1.0000
  C   C453      1.0  0.22742  0.53829  0.83613  1.0000
  C   C454      1.0  0.24496  0.52261  0.83438  1.0000
  C   C455      1.0  0.30029  0.92174  0.65176  1.0000
  C   C456      1.0  0.01252  0.98644  0.84597  1.0000
  C   C457      1.0  0.17887  0.53767  0.59385  1.0000
  C   C458      1.0  0.18852  0.55793  0.61383  1.0000
  C   C459      1.0  0.27508  0.97359  0.66640  1.0000
  C   C460      1.0  0.16550  0.58286  0.74253  1.0000
  C   C461      1.0  0.20300  0.62555  0.63354  1.0000
  C   C462      1.0  0.25395  0.51645  0.56296  1.0000
  C   C463      1.0  0.22140  0.91606  0.58635  1.0000
  H   H353      1.0  0.23723  0.58835  0.74421  1.0000
  H   H354      1.0  0.31994  0.86112  0.65850  1.0000
  H   H355      1.0  0.27784  0.92992  0.74759  1.0000
  S   S60       1.0  0.31379  0.53458  0.59141  1.0000
  H   H356      1.0  0.20511  0.97826  0.58864  1.0000
  H   H357      1.0  0.28364  0.54315  0.82230  1.0000
  C   C464      1.0  0.09990  0.81907  0.58645  1.0000
  H   H358      1.0  0.05443  0.94956  0.90467  1.0000
  H   H359      1.0  0.18886  0.62379  0.65024  1.0000
  H   H360      1.0  0.20172  0.55413  0.80393  1.0000
  C   C465      1.0  0.02671  0.52871  0.93305  1.0000
  C   C466      1.0  0.18001  0.57412  0.71509  1.0000
  H   H361      1.0  0.21800  0.89784  0.57207  1.0000
  C   C467      1.0  0.05591  0.50037  0.83485  1.0000
  H   H362      1.0  0.11247  0.84321  0.54096  1.0000
  H   H363      1.0  0.21164  0.53332  0.74112  1.0000
  H   H364      1.0  0.18425  0.71202  0.56715  1.0000
  H   H365      1.0  0.01894  0.53418  0.83421  1.0000
  C   C468      1.0  0.08894  0.51359  0.80749  1.0000
  H   H366      1.0  0.28500  0.49815  0.71486  1.0000
  S   S61       1.0  0.01063  0.91425  0.77110  1.0000
  H   H367      1.0  0.16502  0.77957  0.76270  1.0000
  H   H368      1.0  0.17678  0.55648  0.69922  1.0000
  C   C469      1.0  0.27464  0.89211  0.67690  1.0000
  H   H369      1.0  0.14109  0.93514  0.86884  1.0000
  C   C470      1.0  0.24957  0.94045  0.71763  1.0000
  H   H370      1.0  0.29560  0.55169  0.72441  1.0000
  H   H371      1.0  0.24384  0.49996  0.56469  1.0000
  C   C471      1.0  0.22835  0.94505  0.72242  1.0000
  C   C472      1.0  0.22100  0.53038  0.76710  1.0000
  Fe  Fe31      1.0  0.19983  0.57269  0.50466  1.0000
  Fe  Fe32      1.0  0.15705  0.59797  0.51233  1.0000
  H   H372      1.0  0.13913  0.81154  0.52127  1.0000
  C   C473      1.0  0.23116  0.93612  0.79211  1.0000
  C   C474      1.0  0.25227  0.93150  0.78763  1.0000
  H   H373      1.0  0.21445  0.62360  0.72190  1.0000
  C   C475      1.0  0.26144  0.93355  0.75055  1.0000
  H   H374      1.0  0.10491  0.51909  0.81171  1.0000
  H   H375      1.0  0.30842  0.54241  0.49105  1.0000
  H   H376      1.0  0.22302  0.54728  0.86369  1.0000
  C   C476      1.0  0.31459  0.90161  0.64969  1.0000
  H   H377      1.0  0.31530  0.90816  0.56605  1.0000
  H   H378      1.0  0.28987  0.57578  0.55850  1.0000
  C   C477      1.0  0.25421  0.55574  0.66329  1.0000
  C   C478      1.0  0.24062  0.56990  0.68726  1.0000
  C   C479      1.0  0.25064  0.51062  0.79891  1.0000
  H   H379      1.0  0.20729  0.49343  0.98008  1.0000
  C   C480      1.0  0.20966  0.52725  0.64911  1.0000
  C   C481      1.0  0.15739  0.96628  0.89751  1.0000
  C   C482      1.0  0.30889  0.87672  0.66070  1.0000
  H   H380      1.0  0.24799  0.59445  0.61201  1.0000
  H   H381      1.0  0.01776  0.55740  0.97565  1.0000
  C   C483      1.0  0.04281  0.96023  0.88856  1.0000
  H   H382      1.0  0.27975  0.97859  0.72919  1.0000
  C   C484      1.0  0.28022  0.55660  0.71437  1.0000
  H   H383      1.0  0.25364  0.57914  0.53470  1.0000
  H   H384      1.0  0.19328  0.66109  0.60664  1.0000
  H   H385      1.0  0.00371  0.92215  0.85816  1.0000
  H   H386      1.0  0.17768  0.49670  0.58463  1.0000
  H   H387      1.0  0.00444  0.94187  0.95622  1.0000
  H   H388      1.0  0.03110  0.49745  0.79210  1.0000
  H   H389      1.0  0.02340  0.96479  0.79591  1.0000
  C   C485      1.0  0.29712  0.53446  0.80914  1.0000
  H   H390      1.0  0.27488  0.97382  0.60275  1.0000
  C   C486      1.0  0.12828  0.97198  0.85372  1.0000
  C   C487      1.0  0.14232  0.95584  0.87270  1.0000
  C   C488      1.0  0.10520  0.54365  0.98765  1.0000
  C   C489      1.0  0.07204  0.56504  0.97906  1.0000
  P   P16       1.0  0.03970  0.49261  0.87659  1.0000
  C   C490      1.0  0.28268  0.98608  0.70015  1.0000
  H   H391      1.0  0.24622  0.92690  0.50930  1.0000
  C   C491      1.0  0.01713  0.93581  0.97471  1.0000
  H   H392      1.0  0.09040  0.49232  0.98606  1.0000
  H   H393      1.0  0.00468  0.89777  0.98326  1.0000
  C   C492      1.0  0.04735  0.50127  0.79685  1.0000
  P   P17       1.0  0.03388  0.98404  0.95983  1.0000
  H   H394      1.0  0.00016  0.87853  0.88620  1.0000
  C   C493      1.0  0.99140  0.91819  0.87887  1.0000
  H   H395      1.0  0.99430  0.49231  0.88581  1.0000
  H   H396      1.0  0.34620  0.42683  0.20363  1.0000
  Fe  Fe33      1.0  0.42835  0.32561  0.31506  1.0000
  S   S62       1.0  0.44935  0.33470  0.26450  1.0000
  S   S63       1.0  0.41842  0.28527  0.33506  1.0000
  Fe  Fe34      1.0  0.41993  0.38326  0.33279  1.0000
  S   S64       1.0  0.43968  0.39573  0.28156  1.0000
  S   S65       1.0  0.40760  0.41746  0.36899  1.0000
  Fe  Fe35      1.0  0.42448  0.36328  0.24748  1.0000
  S   S66       1.0  0.41441  0.36463  0.18266  1.0000
  Fe  Fe36      1.0  0.46269  0.36655  0.30270  1.0000
  S   S67       1.0  0.49648  0.37508  0.31994  1.0000
  S   S68       1.0  0.40307  0.35316  0.29684  1.0000
  S   S69       1.0  0.44335  0.35500  0.35507  1.0000
  S   S70       1.0  0.61913  0.46517  0.32795  1.0000
  S   S71       1.0  0.62812  0.46204  0.23210  1.0000
  Fe  Fe37      1.0  0.60043  0.46678  0.27202  1.0000
  S   S72       1.0  0.56819  0.45028  0.25786  1.0000
  Fe  Fe38      1.0  0.46160  0.07841  0.29324  1.0000
  S   S73       1.0  0.44756  0.10710  0.33575  1.0000
  S   S74       1.0  0.48981  0.05567  0.31569  1.0000
  Fe  Fe39      1.0  0.42531  0.08522  0.23475  1.0000
  S   S75       1.0  0.40872  0.11341  0.27346  1.0000
  S   S76       1.0  0.41445  0.07196  0.17409  1.0000
  Fe  Fe40      1.0  0.43982  0.13159  0.28280  1.0000
  S   S77       1.0  0.44628  0.17439  0.27066  1.0000
  Fe  Fe41      1.0  0.41746  0.08692  0.32354  1.0000
  S   S78       1.0  0.39231  0.07500  0.36694  1.0000
  S   S79       1.0  0.45636  0.10440  0.24127  1.0000
  S   S80       1.0  0.43165  0.05717  0.28380  1.0000
  C   C494      1.0  0.35428  0.06433  0.25969  1.0000
  S   S81       1.0  0.57432  0.01565  0.23826  1.0000
  C   C495      1.0  0.48603  0.46693  0.42909  1.0000
  S   S82       1.0  0.61739  0.00436  0.32178  1.0000
  C   C496      1.0  0.32756  0.47987  0.32160  1.0000
  C   C497      1.0  0.39224  0.08319  0.14871  1.0000
  C   C498      1.0  0.38878  0.07507  0.10973  1.0000
  C   C499      1.0  0.37130  0.08345  0.08859  1.0000
  C   C500      1.0  0.35695  0.09984  0.10647  1.0000
  C   C501      1.0  0.36020  0.10747  0.14570  1.0000
  C   C502      1.0  0.37786  0.09955  0.16654  1.0000
  H   H397      1.0  0.39978  0.06233  0.09573  1.0000
  H   H398      1.0  0.36896  0.07728  0.05851  1.0000
  H   H399      1.0  0.34891  0.11940  0.16025  1.0000
  H   H400      1.0  0.38021  0.10583  0.19655  1.0000
  H   H401      1.0  0.37936  0.28045  0.11045  1.0000
  H   H402      1.0  0.36919  0.35843  0.36201  1.0000
  C   C503      1.0  0.41485  0.06312  0.43428  1.0000
  C   C504      1.0  0.39598  0.06143  0.41442  1.0000
  C   C505      1.0  0.37913  0.04985  0.43357  1.0000
  C   C506      1.0  0.48913  0.17759  0.48535  1.0000
  H   H403      1.0  0.43406  0.00606  0.44691  1.0000
  H   H404      1.0  0.42793  0.07193  0.41990  1.0000
  H   H405      1.0  0.37548  0.37976  0.48761  1.0000
  C   C507      1.0  0.51293  0.04424  0.29303  1.0000
  C   C508      1.0  0.51848  0.05085  0.25464  1.0000
  C   C509      1.0  0.53724  0.04183  0.23846  1.0000
  C   C510      1.0  0.55087  0.02642  0.26051  1.0000
  C   C511      1.0  0.54536  0.01992  0.29900  1.0000
  C   C512      1.0  0.52641  0.02849  0.31489  1.0000
  H   H406      1.0  0.50829  0.06279  0.23730  1.0000
  H   H407      1.0  0.54125  0.04691  0.20861  1.0000
  H   H408      1.0  0.55557  0.00800  0.31625  1.0000
  H   H409      1.0  0.52217  0.02286  0.34437  1.0000
  C   C513      1.0  0.42585  0.25472  0.31552  1.0000
  C   C514      1.0  0.41563  0.23239  0.32863  1.0000
  C   C515      1.0  0.42147  0.20771  0.31506  1.0000
  C   C516      1.0  0.43775  0.20499  0.28835  1.0000
  C   C517      1.0  0.44782  0.22733  0.27498  1.0000
  C   C518      1.0  0.44194  0.25202  0.28843  1.0000
  H   H410      1.0  0.40316  0.23422  0.34955  1.0000
  H   H411      1.0  0.41339  0.19084  0.32530  1.0000
  H   H412      1.0  0.46038  0.22553  0.25424  1.0000
  H   H413      1.0  0.45001  0.26894  0.27813  1.0000
  C   C519      1.0  0.51613  0.39626  0.30207  1.0000
  C   C520      1.0  0.53497  0.39796  0.32268  1.0000
  C   C521      1.0  0.55112  0.41414  0.30959  1.0000
  C   C522      1.0  0.54867  0.42891  0.27555  1.0000
  C   C523      1.0  0.52985  0.42716  0.25490  1.0000
  C   C524      1.0  0.51366  0.41110  0.26812  1.0000
  H   H414      1.0  0.53715  0.38648  0.34882  1.0000
  H   H415      1.0  0.56553  0.41496  0.32556  1.0000
  H   H416      1.0  0.52771  0.43845  0.22854  1.0000
  H   H417      1.0  0.49936  0.41001  0.25178  1.0000
  C   C525      1.0  0.35027  0.37282  0.12379  1.0000
  C   C526      1.0  0.36826  0.37118  0.10120  1.0000
  C   C527      1.0  0.38766  0.36832  0.11968  1.0000
  C   C528      1.0  0.38936  0.36662  0.16088  1.0000
  C   C529      1.0  0.37126  0.36698  0.18330  1.0000
  C   C530      1.0  0.35191  0.37053  0.16494  1.0000
  H   H418      1.0  0.36730  0.37288  0.06957  1.0000
  H   H419      1.0  0.40150  0.36782  0.10194  1.0000
  H   H420      1.0  0.37219  0.36455  0.21476  1.0000
  H   H421      1.0  0.33810  0.37148  0.18274  1.0000
  H   H422      1.0  0.46688  0.13375  0.46473  1.0000
  C   C531      1.0  0.32450  0.30077  0.07734  1.0000
  C   C532      1.0  0.38993  0.44214  0.43235  1.0000
  C   C533      1.0  0.39488  0.41814  0.41536  1.0000
  C   C534      1.0  0.38969  0.39568  0.43565  1.0000
  C   C535      1.0  0.47998  0.42068  0.43136  1.0000
  C   C536      1.0  0.40064  0.14968  0.09833  1.0000
  H   H423      1.0  0.39379  0.45964  0.41684  1.0000
  H   H424      1.0  0.39331  0.37708  0.42299  1.0000
  H   H425      1.0  0.35825  0.30812  0.15307  1.0000
  H   H426      1.0  0.35216  0.43332  0.37458  1.0000
  C   C537      1.0  0.34208  0.22501  0.15144  1.0000
  C   C538      1.0  0.45809  0.21878  0.40569  1.0000
  C   C539      1.0  0.51817  0.16665  0.44364  1.0000
  H   H427      1.0  0.36446  0.04847  0.41855  1.0000
  H   H428      1.0  0.33042  0.28003  0.02399  1.0000
  C   C540      1.0  0.49253  0.47394  0.30542  1.0000
  H   H429      1.0  0.36857  0.31388  0.00377  1.0000
  H   H430      1.0  0.57994  0.07937  0.23285  1.0000
  C   C541      1.0  0.59629  0.06919  0.32651  1.0000
  C   C542      1.0  0.35640  0.27769  0.06395  1.0000
  H   H431      1.0  0.33265  0.23325  0.03514  1.0000
  C   C543      1.0  0.43210  0.28533  0.04537  1.0000
  P   P18       1.0  0.34261  0.43383  0.28963  1.0000
  C   C544      1.0  0.47741  0.00531  0.37680  1.0000
  H   H432      1.0  0.44614  0.20891  0.42193  1.0000
  H   H433      1.0  0.58825  0.17397  0.43239  1.0000
  H   H434      1.0  0.33928  0.33052  0.34598  1.0000
  H   H435      1.0  0.43364  0.11160  0.47543  1.0000
  C   C545      1.0  0.61236  0.41442  0.42979  1.0000
  C   C546      1.0  0.49695  0.17147  0.44800  1.0000
  P   P19       1.0  0.48009  0.17234  0.40580  1.0000
  C   C547      1.0  0.45589  0.15629  0.41539  1.0000
  C   C548      1.0  0.47620  0.20594  0.39411  1.0000
  C   C549      1.0  0.59466  0.00573  0.41549  1.0000
  H   H436      1.0  0.55199  0.10211  0.26867  1.0000
  C   C550      1.0  0.49157  0.21970  0.37405  1.0000
  C   C551      1.0  0.43913  0.16047  0.39012  1.0000
  C   C552      1.0  0.42042  0.14768  0.39616  1.0000
  C   C553      1.0  0.41843  0.13026  0.42711  1.0000
  C   C554      1.0  0.41652  0.05436  0.47338  1.0000
  C   C555      1.0  0.45394  0.13832  0.44596  1.0000
  C   C556      1.0  0.49095  0.15478  0.36486  1.0000
  C   C557      1.0  0.48890  0.16405  0.32635  1.0000
  C   C558      1.0  0.49590  0.14940  0.29447  1.0000
  C   C559      1.0  0.50503  0.12540  0.30079  1.0000
  C   C560      1.0  0.50717  0.11609  0.33902  1.0000
  C   C561      1.0  0.49987  0.13048  0.37092  1.0000
  H   H437      1.0  0.37328  0.40243  0.24851  1.0000
  H   H438      1.0  0.34963  0.15471  0.01420  1.0000
  H   H439      1.0  0.55231  0.10396  0.34119  1.0000
  H   H440      1.0  0.44772  0.44888  0.36558  1.0000
  H   H441      1.0  0.64076  0.40927  0.34605  1.0000
  H   H442      1.0  0.47298  0.18246  0.48903  1.0000
  H   H443      1.0  0.60841  0.05877  0.26964  1.0000
  H   H444      1.0  0.50580  0.21035  0.36543  1.0000
  H   H445      1.0  0.44078  0.17311  0.36509  1.0000
  H   H446      1.0  0.40767  0.15063  0.37611  1.0000
  C   C562      1.0  0.33910  0.19332  0.02535  1.0000
  Fe  Fe42      1.0  0.64727  0.46320  0.28817  1.0000
  C   C563      1.0  0.47008  0.25791  0.37456  1.0000
  H   H447      1.0  0.48115  0.18212  0.32054  1.0000
  H   H448      1.0  0.49346  0.15630  0.26477  1.0000
  H   H449      1.0  0.50979  0.11361  0.27603  1.0000
  H   H450      1.0  0.51369  0.09717  0.34360  1.0000
  H   H451      1.0  0.50071  0.12235  0.40011  1.0000
  C   C564      1.0  0.55293  0.46988  0.38351  1.0000
  Fe  Fe43      1.0  0.60279  0.99525  0.26371  1.0000
  C   C565      1.0  0.33650  0.28535  0.05254  1.0000
  C   C566      1.0  0.32829  0.02403  0.06915  1.0000
  H   H452      1.0  0.37461  0.05047  0.21426  1.0000
  C   C567      1.0  0.55040  0.09213  0.45726  1.0000
  C   C568      1.0  0.33230  0.30889  0.11358  1.0000
  C   C569      1.0  0.45505  0.24461  0.39573  1.0000
  C   C570      1.0  0.35873  0.05447  0.22240  1.0000
  H   H453      1.0  0.43228  0.44032  0.45049  1.0000
  C   C571      1.0  0.62625  0.42858  0.45283  1.0000
  H   H454      1.0  0.62650  0.17222  0.43314  1.0000
  C   C572      1.0  0.32440  0.43717  0.24962  1.0000
  H   H455      1.0  0.34686  0.04318  0.16625  1.0000
  C   C573      1.0  0.36823  0.44071  0.27160  1.0000
  H   H456      1.0  0.45554  0.27010  0.08375  1.0000
  H   H457      1.0  0.44178  0.30080  0.03460  1.0000
  C   C574      1.0  0.32456  0.23073  0.12902  1.0000
  H   H458      1.0  0.48388  0.45711  0.31461  1.0000
  C   C575      1.0  0.36400  0.28556  0.10084  1.0000
  Fe  Fe44      1.0  0.64802  0.00487  0.29052  1.0000
  C   C576      1.0  0.38100  0.04030  0.47222  1.0000
  H   H459      1.0  0.40406  0.11986  0.43113  1.0000
  C   C577      1.0  0.33976  0.35015  0.33525  1.0000
  C   C578      1.0  0.37953  0.42157  0.25198  1.0000
  H   H460      1.0  0.36785  0.03163  0.48664  1.0000
  H   H461      1.0  0.49998  0.25589  0.34737  1.0000
  C   C579      1.0  0.47029  0.46915  0.40084  1.0000
  H   H462      1.0  0.60885  0.07040  0.46587  1.0000
  H   H463      1.0  0.47205  0.00633  0.34661  1.0000
  C   C580      1.0  0.38027  0.20794  0.01696  1.0000
  H   H464      1.0  0.61208  0.00814  0.14097  1.0000
  H   H465      1.0  0.40736  0.41234  0.22045  1.0000
  C   C581      1.0  0.65624  0.02522  0.40206  1.0000
  C   C582      1.0  0.64554  0.43586  0.43750  1.0000
  H   H466      1.0  0.49913  0.07819  0.46426  1.0000
  C   C583      1.0  0.47755  0.02242  0.44300  1.0000
  C   C584      1.0  0.60501  0.05255  0.45110  1.0000
  C   C585      1.0  0.35663  0.36582  0.34423  1.0000
  C   C586      1.0  0.35408  0.17473  0.01745  1.0000
  H   H467      1.0  0.64491  0.48846  0.40838  1.0000
  H   H468      1.0  0.54153  0.05952  0.37192  1.0000
  H   H469      1.0  0.37536  0.17608  0.10062  1.0000
  H   H470      1.0  0.49732  0.00317  0.48427  1.0000
  H   H471      1.0  0.46731  0.27770  0.36582  1.0000
  S   S83       1.0  0.32558  0.37902  0.10255  1.0000
  H   H472      1.0  0.59743  0.40912  0.44155  1.0000
  H   H473      1.0  0.50645  0.05817  0.39931  1.0000
  C   C587      1.0  0.34901  0.19942  0.15491  1.0000
  H   H474      1.0  0.48378  0.40180  0.44273  1.0000
  C   C588      1.0  0.34150  0.40086  0.30671  1.0000
  C   C589      1.0  0.32373  0.35971  0.31198  1.0000
  H   H475      1.0  0.52477  0.16322  0.41488  1.0000
  C   C590      1.0  0.62779  0.13169  0.41954  1.0000
  C   C591      1.0  0.33714  0.45610  0.32935  1.0000
  H   H476      1.0  0.50252  0.44041  0.46661  1.0000
  C   C592      1.0  0.59607  0.15580  0.42738  1.0000
  H   H477      1.0  0.39832  0.14518  0.06756  1.0000
  C   C593      1.0  0.34400  0.45091  0.36771  1.0000
  C   C594      1.0  0.43340  0.44863  0.47961  1.0000
  C   C595      1.0  0.34466  0.21919  0.02992  1.0000
  C   C596      1.0  0.61764  0.40724  0.39148  1.0000
  C   C597      1.0  0.32389  0.99770  0.06940  1.0000
  H   H478      1.0  0.36670  0.06774  0.28054  1.0000
  C   C598      1.0  0.40690  0.24606  0.07440  1.0000
  H   H479      1.0  0.38610  0.16772  0.00514  1.0000
  S   S84       1.0  0.32616  0.34812  0.99061  1.0000
  H   H480      1.0  0.52151  0.45862  0.32504  1.0000
  C   C599      1.0  0.49189  0.00364  0.45414  1.0000
  H   H481      1.0  0.35204  0.13118  0.31923  1.0000
  H   H482      1.0  0.53408  0.01507  0.44599  1.0000
  H   H483      1.0  0.60685  0.39645  0.37346  1.0000
  H   H484      1.0  0.56142  0.03493  0.48620  1.0000
  C   C600      1.0  0.33829  0.17989  0.13476  1.0000
  H   H485      1.0  0.35014  0.24070  0.16568  1.0000
  C   C601      1.0  0.39647  0.47074  0.26084  1.0000
  C   C602      1.0  0.34286  0.05030  0.19519  1.0000
  H   H486      1.0  0.37096  0.40257  0.33612  1.0000
  H   H487      1.0  0.37996  0.26990  0.26677  1.0000
  C   C603      1.0  0.35517  0.14334  0.29409  1.0000
  C   C604      1.0  0.42728  0.24839  0.08751  1.0000
  C   C605      1.0  0.38738  0.16687  0.11752  1.0000
  C   C606      1.0  0.35758  0.39093  0.32967  1.0000
  H   H488      1.0  0.60887  0.05999  0.34203  1.0000
  H   H489      1.0  0.44073  0.25425  0.40335  1.0000
  H   H490      1.0  0.40621  0.29655  0.01043  1.0000
  C   C607      1.0  0.35201  0.30121  0.12539  1.0000
  H   H491      1.0  0.46606  0.48756  0.38867  1.0000
  C   C608      1.0  0.40745  0.45161  0.24081  1.0000
  C   C609      1.0  0.37204  0.16005  0.29475  1.0000
  C   C610      1.0  0.39909  0.26308  0.04595  1.0000
  C   C611      1.0  0.37687  0.46539  0.27600  1.0000
  H   H492      1.0  0.39720  0.23109  0.08660  1.0000
  C   C612      1.0  0.48841  0.24552  0.36397  1.0000
  H   H493      1.0  0.56801  0.13473  0.41805  1.0000
  H   H494      1.0  0.32963  0.12893  0.26007  1.0000
  C   C613      1.0  0.33389  0.06993  0.26994  1.0000
  C   C614      1.0  0.61362  0.02954  0.46487  1.0000
  C   C615      1.0  0.41645  0.13753  0.11913  1.0000
  C   C616      1.0  0.41921  0.14281  0.15904  1.0000
  C   C617      1.0  0.40582  0.15966  0.17848  1.0000
  C   C618      1.0  0.38943  0.17131  0.15813  1.0000
  H   H495      1.0  0.39023  0.18719  0.26258  1.0000
  P   P20       1.0  0.37150  0.19172  0.18456  1.0000
  C   C619      1.0  0.46481  0.42301  0.40242  1.0000
  C   C620      1.0  0.36417  0.17384  0.22807  1.0000
  S   S85       1.0  0.33485  0.11159  0.08137  1.0000
  H   H496      1.0  0.36205  0.23017  0.24511  1.0000
  C   C621      1.0  0.37966  0.39728  0.47242  1.0000
  C   C622      1.0  0.34262  0.14204  0.26076  1.0000
  C   C623      1.0  0.34701  0.15727  0.22796  1.0000
  C   C624      1.0  0.43518  0.12556  0.45198  1.0000
  C   C625      1.0  0.51458  0.07899  0.45216  1.0000
  H   H497      1.0  0.47190  0.03623  0.46435  1.0000
  H   H498      1.0  0.45676  0.40607  0.39166  1.0000
  C   C626      1.0  0.53112  0.16657  0.47656  1.0000
  C   C627      1.0  0.38439  0.22098  0.19985  1.0000
  C   C628      1.0  0.40276  0.22886  0.18169  1.0000
  C   C629      1.0  0.41259  0.25157  0.19373  1.0000
  C   C630      1.0  0.40420  0.26646  0.22404  1.0000
  C   C631      1.0  0.38603  0.25862  0.24252  1.0000
  C   C632      1.0  0.37609  0.23603  0.23040  1.0000
  C   C633      1.0  0.63674  0.41440  0.37605  1.0000
  H   H499      1.0  0.42631  0.12356  0.10464  1.0000
  H   H500      1.0  0.43136  0.13318  0.17526  1.0000
  H   H501      1.0  0.40823  0.16320  0.20951  1.0000
  H   H502      1.0  0.42261  0.45563  0.22890  1.0000
  H   H503      1.0  0.56265  0.10100  0.47421  1.0000
  H   H504      1.0  0.43336  0.23504  0.10902  1.0000
  C   C634      1.0  0.39890  0.42712  0.23619  1.0000
  C   C635      1.0  0.36540  0.22665  0.02675  1.0000
  H   H505      1.0  0.33715  0.15557  0.20261  1.0000
  H   H506      1.0  0.38196  0.16080  0.32034  1.0000
  H   H507      1.0  0.57578  0.02789  0.37647  1.0000
  P   P21       1.0  0.37260  0.26027  0.02963  1.0000
  H   H508      1.0  0.62450  0.09179  0.40414  1.0000
  H   H509      1.0  0.40966  0.21733  0.15867  1.0000
  H   H510      1.0  0.42693  0.25748  0.18015  1.0000
  H   H511      1.0  0.41203  0.28381  0.23392  1.0000
  C   C636      1.0  0.37662  0.17509  0.26188  1.0000
  C   C637      1.0  0.60854  0.00614  0.44687  1.0000
  H   H512      1.0  0.54745  0.16274  0.47311  1.0000
  H   H513      1.0  0.56807  0.47876  0.17806  1.0000
  C   C638      1.0  0.45981  0.44724  0.38752  1.0000
  C   C639      1.0  0.58465  0.13347  0.41972  1.0000
  C   C640      1.0  0.59475  0.10989  0.41325  1.0000
  C   C641      1.0  0.61640  0.10936  0.41185  1.0000
  P   P22       1.0  0.58024  0.08153  0.40008  1.0000
  C   C642      1.0  0.59168  0.05229  0.41850  1.0000
  C   C643      1.0  0.55445  0.08143  0.42010  1.0000
  C   C644      1.0  0.49047  0.44256  0.44483  1.0000
  H   H514      1.0  0.34369  0.16019  0.13532  1.0000
  C   C645      1.0  0.43984  0.26808  0.07315  1.0000
  C   C646      1.0  0.51868  0.06768  0.41568  1.0000
  C   C647      1.0  0.53856  0.06869  0.39993  1.0000
  C   C648      1.0  0.58630  0.02865  0.40123  1.0000
  S   S86       1.0  0.63304  0.99905  0.23092  1.0000
  C   C649      1.0  0.53046  0.09113  0.47303  1.0000
  C   C650      1.0  0.38046  0.44374  0.46966  1.0000
  H   H515      1.0  0.52571  0.45224  0.40623  1.0000
  C   C651      1.0  0.58013  0.08114  0.34709  1.0000
  C   C652      1.0  0.56452  0.09382  0.32602  1.0000
  C   C653      1.0  0.56446  0.09321  0.28492  1.0000
  C   C654      1.0  0.58028  0.08058  0.26466  1.0000
  C   C655      1.0  0.59628  0.06880  0.28545  1.0000
  H   H516      1.0  0.64451  0.13112  0.41853  1.0000
  C   C656      1.0  0.41184  0.28284  0.03172  1.0000
  H   H517      1.0  0.32498  0.06011  0.09922  1.0000
  H   H518      1.0  0.36860  0.48054  0.29112  1.0000
  H   H519      1.0  0.34633  0.46470  0.42725  1.0000
  H   H520      1.0  0.55891  0.45205  0.37141  1.0000
  C   C657      1.0  0.47037  0.02331  0.40428  1.0000
  H   H521      1.0  0.45943  0.03800  0.39531  1.0000
  C   C658      1.0  0.34087  0.46886  0.39784  1.0000
  C   C659      1.0  0.54256  0.00325  0.46658  1.0000
  H   H522      1.0  0.33694  0.03237  0.04505  1.0000
  H   H523      1.0  0.62169  0.43393  0.48228  1.0000
  C   C660      1.0  0.51382  0.47478  0.31134  1.0000
  H   H524      1.0  0.40314  0.48970  0.26457  1.0000
  H   H525      1.0  0.64699  0.02780  0.37589  1.0000
  C   C661      1.0  0.61763  0.15487  0.42758  1.0000
  C   C662      1.0  0.32450  0.38500  0.29791  1.0000
  C   C663      1.0  0.65044  0.42904  0.39866  1.0000
  C   C664      1.0  0.53403  0.47015  0.40340  1.0000
  H   H526      1.0  0.62777  0.99415  0.07776  1.0000
  C   C665      1.0  0.37463  0.18208  0.01273  1.0000
  H   H527      1.0  0.39618  0.21332  0.01192  1.0000
  C   C666      1.0  0.33050  0.43220  0.21067  1.0000
  H   H528      1.0  0.42334  0.48619  0.46114  1.0000
  H   H529      1.0  0.37707  0.46233  0.48258  1.0000
  H   H530      1.0  0.33053  0.07762  0.29889  1.0000
  H   H531      1.0  0.43097  0.05655  0.48891  1.0000
  C   C667      1.0  0.55818  0.01458  0.48913  1.0000
  H   H532      1.0  0.62437  0.02978  0.48925  1.0000
  C   C668      1.0  0.42822  0.47442  0.48569  1.0000
  S   S87       1.0  0.37457  0.44867  0.64188  1.0000
  C   C669      1.0  0.48255  0.35861  0.56577  1.0000
  Fe  Fe45      1.0  0.34391  0.45798  0.67016  1.0000
  S   S88       1.0  0.33426  0.39401  0.89752  1.0000
  Fe  Fe46      1.0  0.35871  0.45315  0.58312  1.0000
  S   S89       1.0  0.36170  0.42194  0.53548  1.0000
  H   H533      1.0  0.36896  0.23844  0.94956  1.0000
  C   C670      1.0  0.45518  0.02187  0.79336  1.0000
  H   H534      1.0  0.33819  0.00224  0.84897  1.0000
  S   S90       1.0  0.34764  0.02912  0.70963  1.0000
  Fe  Fe47      1.0  0.38124  0.00677  0.57856  1.0000
  C   C671      1.0  0.34202  0.01335  0.78816  1.0000
  S   S91       1.0  0.34876  0.01376  0.59897  1.0000
  H   H535      1.0  0.58213  0.00822  0.53204  1.0000
  H   H536      1.0  0.42962  0.45373  0.65267  1.0000
  C   C672      1.0  0.63601  0.45961  0.57447  1.0000
  C   C673      1.0  0.34167  0.03356  0.76094  1.0000
  H   H537      1.0  0.43119  0.05360  0.61282  1.0000
  H   H538      1.0  0.38043  0.36793  0.65123  1.0000
  H   H539      1.0  0.51038  0.40091  0.51110  1.0000
  C   C674      1.0  0.36942  0.27466  0.98165  1.0000
  C   C675      1.0  0.43479  0.46951  0.55542  1.0000
  P   P23       1.0  0.44884  0.42372  0.58962  1.0000
  C   C676      1.0  0.47563  0.02589  0.80494  1.0000
  C   C677      1.0  0.49844  0.39383  0.53055  1.0000
  H   H540      1.0  0.44540  0.01350  0.51576  1.0000
  H   H541      1.0  0.49160  0.43751  0.61270  1.0000
  H   H542      1.0  0.47337  0.48444  0.50859  1.0000
  C   C678      1.0  0.44565  0.03879  0.76685  1.0000
  C   C679      1.0  0.34845  0.41799  0.82980  1.0000
  C   C680      1.0  0.34718  0.42747  0.79080  1.0000
  H   H543      1.0  0.33595  0.07422  0.75421  1.0000
  H   H544      1.0  0.36048  0.43638  0.77731  1.0000
  H   H545      1.0  0.49594  0.18210  0.54699  1.0000
  H   H546      1.0  0.48161  0.48530  0.71383  1.0000
  C   C681      1.0  0.45424  0.46999  0.68661  1.0000
  H   H547      1.0  0.43494  0.47795  0.58457  1.0000
  H   H548      1.0  0.44378  0.47941  0.70700  1.0000
  C   C682      1.0  0.36570  0.27056  0.91076  1.0000
  H   H549      1.0  0.34577  0.99409  0.77835  1.0000
  H   H550      1.0  0.48416  0.43092  0.53754  1.0000
  H   H551      1.0  0.36455  0.25851  0.88478  1.0000
  C   C683      1.0  0.48359  0.41075  0.54558  1.0000
  C   C684      1.0  0.41314  0.04927  0.70685  1.0000
  C   C685      1.0  0.42666  0.04678  0.67481  1.0000
  P   P24       1.0  0.41916  0.03368  0.75276  1.0000
  H   H552      1.0  0.50244  0.05016  0.79969  1.0000
  C   C686      1.0  0.44035  0.44366  0.54934  1.0000
  C   C687      1.0  0.45658  0.06035  0.75330  1.0000
  C   C688      1.0  0.50212  0.17752  0.51820  1.0000
  H   H553      1.0  0.40902  0.40709  0.55501  1.0000
  H   H554      1.0  0.50929  0.35461  0.52862  1.0000
  C   C689      1.0  0.36559  0.31282  0.94094  1.0000
  C   C690      1.0  0.43965  0.99480  0.50685  1.0000
  C   C691      1.0  0.52309  0.17186  0.51385  1.0000
  C   C692      1.0  0.44624  0.45535  0.65567  1.0000
  C   C693      1.0  0.33140  0.40629  0.84835  1.0000
  C   C694      1.0  0.65064  0.46670  0.50954  1.0000
  C   C695      1.0  0.40408  0.04663  0.79291  1.0000
  C   C696      1.0  0.40054  0.07327  0.79559  1.0000
  C   C697      1.0  0.38872  0.08338  0.82640  1.0000
  C   C698      1.0  0.38077  0.06705  0.85521  1.0000
  C   C699      1.0  0.38483  0.04065  0.85350  1.0000
  S   S92       1.0  0.39220  0.99746  0.63999  1.0000
  H   H555      1.0  0.38250  0.06143  0.72450  1.0000
  H   H556      1.0  0.44070  0.40056  0.66645  1.0000
  C   C700      1.0  0.47552  0.47332  0.69039  1.0000
  H   H557      1.0  0.44116  0.03662  0.67801  1.0000
  Fe  Fe48      1.0  0.35896  0.00166  0.65978  1.0000
  H   H558      1.0  0.44929  0.07416  0.73396  1.0000
  H   H559      1.0  0.48545  0.08094  0.75432  1.0000
  H   H560      1.0  0.36445  0.33361  0.93831  1.0000
  C   C701      1.0  0.38820  0.07012  0.66408  1.0000
  H   H561      1.0  0.50537  0.46426  0.66645  1.0000
  C   C702      1.0  0.48094  0.44642  0.63297  1.0000
  H   H562      1.0  0.32345  0.31924  0.90166  1.0000
  C   C703      1.0  0.42715  0.40580  0.60873  1.0000
  H   H563      1.0  0.37291  0.07805  0.65963  1.0000
  H   H564      1.0  0.37836  0.02806  0.87567  1.0000
  H   H565      1.0  0.40662  0.08619  0.77355  1.0000
  H   H566      1.0  0.36253  0.30611  0.87872  1.0000
  H   H567      1.0  0.45597  0.36796  0.60038  1.0000
  C   C704      1.0  0.48659  0.04707  0.79065  1.0000
  C   C705      1.0  0.41378  0.00004  0.74418  1.0000
  C   C706      1.0  0.41074  0.38323  0.66295  1.0000
  C   C707      1.0  0.36449  0.29733  0.90735  1.0000
  C   C708      1.0  0.42882  0.48482  0.52356  1.0000
  C   C709      1.0  0.42753  0.39682  0.64768  1.0000
  H   H568      1.0  0.41089  0.37692  0.69328  1.0000
  C   C710      1.0  0.39330  0.38645  0.60033  1.0000
  H   H569      1.0  0.48209  0.33837  0.57345  1.0000
  S   S93       1.0  0.40242  0.03312  0.54243  1.0000
  H   H570      1.0  0.39724  0.07443  0.60354  1.0000
  H   H571      1.0  0.37993  0.38259  0.58208  1.0000
  C   C711      1.0  0.33638  0.05837  0.77473  1.0000
  C   C712      1.0  0.42109  0.05632  0.63787  1.0000
  C   C713      1.0  0.40992  0.40038  0.58506  1.0000
  C   C714      1.0  0.39963  0.04286  0.49260  1.0000
  C   C715      1.0  0.45951  0.44327  0.62872  1.0000
  H   H572      1.0  0.38543  0.10382  0.82773  1.0000
  C   C716      1.0  0.32885  0.42506  0.76925  1.0000
  C   C717      1.0  0.39360  0.37811  0.63930  1.0000
  C   C718      1.0  0.46805  0.40167  0.57078  1.0000
  H   H573      1.0  0.32905  0.22886  0.91610  1.0000
  C   C719      1.0  0.46772  0.37549  0.58100  1.0000
  C   C720      1.0  0.33246  0.04289  0.84225  1.0000
  C   C721      1.0  0.33756  0.01803  0.82835  1.0000
  C   C722      1.0  0.39376  0.06069  0.70103  1.0000
  S   S94       1.0  0.32751  0.45935  0.61121  1.0000
  H   H574      1.0  0.44286  0.41316  0.50582  1.0000
  H   H575      1.0  0.37111  0.07471  0.87854  1.0000
  C   C723      1.0  0.47703  0.06436  0.76500  1.0000
  C   C724      1.0  0.48887  0.46154  0.66357  1.0000
  H   H576      1.0  0.63319  0.44705  0.59927  1.0000
  H   H577      1.0  0.36283  0.41976  0.84574  1.0000
  H   H578      1.0  0.38097  0.00429  0.75287  1.0000
  S   S95       1.0  0.33522  0.11251  0.96168  1.0000
  C   C725      1.0  0.40187  0.06800  0.63253  1.0000
  C   C726      1.0  0.64738  0.45072  0.54224  1.0000
  H   H579      1.0  0.65317  0.43113  0.54234  1.0000
  H   H580      1.0  0.48296  0.01261  0.82511  1.0000
  C   C727      1.0  0.32515  0.48055  0.49787  1.0000
  C   C728      1.0  0.62773  0.48446  0.57423  1.0000
  C   C729      1.0  0.39654  0.03044  0.82263  1.0000
  H   H581      1.0  0.52732  0.09957  0.50160  1.0000
  S   S96       1.0  0.32620  0.43614  0.71937  1.0000
  H   H582      1.0  0.44678  0.00556  0.80508  1.0000
  C   C730      1.0  0.36821  0.25923  0.94771  1.0000
  C   C731      1.0  0.43933  0.43325  0.51121  1.0000
  H   H583      1.0  0.33836  0.46949  0.50779  1.0000
  H   H584      1.0  0.32799  0.08227  0.82478  1.0000
  H   H585      1.0  0.32823  0.34716  0.84332  1.0000
  C   C732      1.0  0.56990  0.99953  0.51482  1.0000
  C   C733      1.0  0.36793  0.30156  0.97799  1.0000
  H   H586      1.0  0.39946  0.00993  0.82193  1.0000
  C   C734      1.0  0.49787  0.36775  0.54051  1.0000
  C   C735      1.0  0.48826  0.48931  0.52096  1.0000
  C   C736      1.0  0.33177  0.06301  0.81490  1.0000
  S   S97       1.0  0.32816  0.04764  0.89410  1.0000
  H   H587      1.0  0.53314  0.17199  0.53932  1.0000
  C   C737      1.0  0.39338  0.99114  0.74593  1.0000
  C   C738      1.0  0.37513  0.42127  0.48983  1.0000
  Fe  Fe49      1.0  0.62242  0.50811  0.32163  1.0000
  S   S98       1.0  0.61718  0.53967  0.36780  1.0000
  C   C739      1.0  0.49176  0.98655  0.38776  1.0000
  P   P25       1.0  0.50150  0.49441  0.44370  1.0000
  S   S99       1.0  0.60230  0.50999  0.26814  1.0000
  C   C740      1.0  0.48700  0.53133  0.39101  1.0000
  S   S100      1.0  0.60570  0.95220  0.27109  1.0000
  Fe  Fe50      1.0  0.63691  0.95647  0.24129  1.0000
  S   S101      1.0  0.64799  0.92526  0.19709  1.0000
  Fe  Fe51      1.0  0.62219  0.96161  0.32786  1.0000
  S   S102      1.0  0.61914  0.94788  0.39162  1.0000
  C   C741      1.0  0.52259  0.92744  0.37772  1.0000
  C   C742      1.0  0.60228  0.92685  0.41754  1.0000
  C   C743      1.0  0.55039  0.53225  0.22586  1.0000
  C   C744      1.0  0.51558  0.51613  0.27827  1.0000
  H   H588      1.0  0.63407  0.58362  0.48028  1.0000
  C   C745      1.0  0.38414  0.91883  0.47106  1.0000
  H   H589      1.0  0.56267  0.57064  0.21726  1.0000
  C   C746      1.0  0.60795  0.98973  0.12806  1.0000
  C   C747      1.0  0.54897  0.93093  0.32754  1.0000
  C   C748      1.0  0.61672  0.98187  0.09246  1.0000
  H   H590      1.0  0.56575  0.86487  0.09434  1.0000
  C   C749      1.0  0.48199  0.54158  0.45992  1.0000
  H   H591      1.0  0.57805  0.93758  0.14679  1.0000
  H   H592      1.0  0.55344  0.97960  0.39369  1.0000
  S   S103      1.0  0.65365  0.96259  0.29926  1.0000
  C   C750      1.0  0.59990  0.56178  0.43342  1.0000
  C   C751      1.0  0.60605  0.53854  0.41550  1.0000
  H   H593      1.0  0.60189  0.57972  0.41781  1.0000
  C   C752      1.0  0.60342  0.51549  0.43608  1.0000
  C   C753      1.0  0.61170  0.95784  0.07631  1.0000
  H   H594      1.0  0.63280  0.83045  0.15752  1.0000
  H   H595      1.0  0.53204  0.53417  0.42611  1.0000
  C   C754      1.0  0.57569  0.89377  0.42027  1.0000
  C   C755      1.0  0.58883  0.94976  0.13120  1.0000
  H   H596      1.0  0.50821  0.53638  0.18713  1.0000
  P   P26       1.0  0.53082  0.54278  0.26021  1.0000
  H   H597      1.0  0.60590  0.90565  0.15710  1.0000
  C   C756      1.0  0.54163  0.55835  0.30315  1.0000
  C   C757      1.0  0.52838  0.56663  0.33328  1.0000
  C   C758      1.0  0.53619  0.57950  0.36627  1.0000
  C   C759      1.0  0.55736  0.58414  0.36946  1.0000
  C   C760      1.0  0.57071  0.57552  0.33996  1.0000
  C   C761      1.0  0.56296  0.56242  0.30715  1.0000
  S   S104      1.0  0.65163  0.50633  0.28515  1.0000
  C   C762      1.0  0.55561  0.88128  0.09101  1.0000
  H   H598      1.0  0.41983  0.96415  0.42717  1.0000
  H   H599      1.0  0.60639  0.85957  0.05097  1.0000
  H   H600      1.0  0.53019  0.90819  0.45504  1.0000
  C   C763      1.0  0.51485  0.56461  0.23238  1.0000
  H   H601      1.0  0.52612  0.90087  0.32932  1.0000
  C   C764      1.0  0.49402  0.51558  0.27355  1.0000
  C   C765      1.0  0.49076  0.59815  0.18684  1.0000
  C   C766      1.0  0.49993  0.60696  0.22157  1.0000
  C   C767      1.0  0.51202  0.59032  0.24422  1.0000
  C   C768      1.0  0.62469  0.84554  0.14192  1.0000
  C   C769      1.0  0.58810  0.91086  0.39839  1.0000
  C   C770      1.0  0.57730  0.89237  0.46151  1.0000
  H   H602      1.0  0.58949  0.55676  0.16998  1.0000
  H   H603      1.0  0.51197  0.56337  0.33091  1.0000
  H   H604      1.0  0.52587  0.58585  0.38945  1.0000
  H   H605      1.0  0.56348  0.59398  0.39511  1.0000
  C   C771      1.0  0.55663  0.95306  0.34585  1.0000
  H   H606      1.0  0.59232  0.51102  0.15048  1.0000
  C   C772      1.0  0.35064  0.89798  0.47668  1.0000
  C   C773      1.0  0.47266  0.56483  0.44947  1.0000
  H   H607      1.0  0.59063  0.98756  0.40179  1.0000
  H   H608      1.0  0.61464  0.93795  0.47393  1.0000
  H   H609      1.0  0.34514  0.96306  0.47329  1.0000
  C   C774      1.0  0.47726  0.55440  0.38066  1.0000
  C   C775      1.0  0.59129  0.56207  0.47148  1.0000
  H   H610      1.0  0.48153  0.61112  0.16916  1.0000
  H   H611      1.0  0.49786  0.62682  0.23071  1.0000
  H   H612      1.0  0.51935  0.59779  0.27045  1.0000
  C   C776      1.0  0.64342  0.53945  0.13020  1.0000
  H   H613      1.0  0.61532  0.98825  0.45705  1.0000
  H   H614      1.0  0.56543  0.91099  0.00275  1.0000
  S   S105      1.0  0.63359  0.53411  0.17907  1.0000
  C   C777      1.0  0.54992  0.92654  0.07742  1.0000
  H   H615      1.0  0.47531  0.55935  0.34999  1.0000
  C   C778      1.0  0.53435  0.87781  0.09568  1.0000
  H   H616      1.0  0.55571  0.94550  0.06999  1.0000
  H   H617      1.0  0.32872  0.50612  0.41342  1.0000
  H   H618      1.0  0.58702  0.91122  0.36670  1.0000
  H   H619      1.0  0.49289  0.51876  0.36810  1.0000
  C   C779      1.0  0.52090  0.89866  0.09137  1.0000
  P   P27       1.0  0.41202  0.91660  0.47019  1.0000
  C   C780      1.0  0.49920  0.98561  0.42653  1.0000
  C   C781      1.0  0.59511  0.51584  0.47441  1.0000
  P   P28       1.0  0.59091  0.91043  0.07517  1.0000
  H   H620      1.0  0.56518  0.53320  0.39071  1.0000
  C   C782      1.0  0.59399  0.97370  0.14736  1.0000
  H   H621      1.0  0.61901  0.95207  0.04912  1.0000
  C   C783      1.0  0.54735  0.96236  0.38016  1.0000
  H   H622      1.0  0.50933  0.91739  0.38945  1.0000
  H   H623      1.0  0.56992  0.96286  0.33364  1.0000
  C   C784      1.0  0.53041  0.94945  0.39664  1.0000
  H   H624      1.0  0.34148  0.88066  0.47997  1.0000
  H   H625      1.0  0.60787  0.49742  0.42263  1.0000
  C   C785      1.0  0.59775  0.94152  0.09564  1.0000
  H   H626      1.0  0.50443  0.89597  0.09511  1.0000
  C   C786      1.0  0.48900  0.52441  0.43072  1.0000
  P   P29       1.0  0.51833  0.96195  0.44063  1.0000
  C   C787      1.0  0.58148  0.90905  0.99463  1.0000
  C   C788      1.0  0.60366  0.92578  0.45882  1.0000
  C   C789      1.0  0.43327  0.99062  0.46815  1.0000
  H   H627      1.0  0.64422  0.50434  0.48471  1.0000
  H   H628      1.0  0.48687  0.56592  0.14742  1.0000
  H   H629      1.0  0.46503  0.91383  0.36592  1.0000
  Fe  Fe52      1.0  0.63107  0.50538  0.23133  1.0000
  C   C790      1.0  0.53195  0.91813  0.34345  1.0000
  H   H630      1.0  0.51826  0.93918  0.07872  1.0000
  C   C791      1.0  0.51619  0.91222  0.47136  1.0000
  C   C792      1.0  0.42130  0.90930  0.42134  1.0000
  C   C793      1.0  0.35269  0.94441  0.47255  1.0000
  H   H631      1.0  0.45235  0.92291  0.43292  1.0000
  C   C794      1.0  0.44189  0.91470  0.41135  1.0000
  C   C795      1.0  0.47015  0.57118  0.40989  1.0000
  H   H632      1.0  0.57375  0.55544  0.28537  1.0000
  H   H633      1.0  0.62638  0.57481  0.12324  1.0000
  H   H634      1.0  0.37945  0.87759  0.47467  1.0000
  C   C796      1.0  0.44916  0.90954  0.37345  1.0000
  C   C797      1.0  0.43594  0.89892  0.34526  1.0000
  C   C798      1.0  0.41546  0.89342  0.35499  1.0000
  C   C799      1.0  0.40813  0.89857  0.39290  1.0000
  C   C800      1.0  0.52600  0.49340  0.41826  1.0000
  H   H635      1.0  0.64837  0.63140  0.02257  1.0000
  C   C801      1.0  0.56357  0.90577  0.08231  1.0000
  C   C802      1.0  0.62007  0.84261  0.10204  1.0000
  H   H636      1.0  0.55636  0.92364  0.30117  1.0000
  H   H637      1.0  0.58720  0.57858  0.34283  1.0000
  H   H638      1.0  0.46606  0.49375  0.28235  1.0000
  C   C803      1.0  0.56370  0.55051  0.20902  1.0000
  H   H639      1.0  0.63978  0.58443  0.05643  1.0000
  H   H640      1.0  0.58679  0.58013  0.48497  1.0000
  C   C804      1.0  0.37215  0.89635  0.47380  1.0000
  C   C805      1.0  0.53751  0.51612  0.41389  1.0000
  H   H641      1.0  0.57857  0.49257  0.36283  1.0000
  H   H642      1.0  0.44704  0.87995  0.47081  1.0000
  C   C806      1.0  0.56400  0.49268  0.37851  1.0000
  H   H643      1.0  0.56500  0.88122  0.40507  1.0000
  C   C807      1.0  0.49374  0.57269  0.17462  1.0000
  H   H644      1.0  0.46282  0.58920  0.40199  1.0000
  H   H645      1.0  0.44157  0.89498  0.31584  1.0000
  C   C808      1.0  0.50651  0.93640  0.46894  1.0000
  H   H646      1.0  0.39221  0.89426  0.39977  1.0000
  C   C809      1.0  0.42296  0.94706  0.48494  1.0000
  C   C810      1.0  0.52868  0.92301  0.08216  1.0000
  C   C811      1.0  0.59122  0.90873  0.48074  1.0000
  H   H647      1.0  0.65406  0.96433  0.13493  1.0000
  H   H648      1.0  0.49715  0.97314  0.36563  1.0000
  C   C812      1.0  0.50580  0.55600  0.19719  1.0000
  H   H649      1.0  0.62451  0.82515  0.08670  1.0000
  C   C813      1.0  0.61923  0.86822  0.16154  1.0000
  C   C814      1.0  0.42503  0.96685  0.45716  1.0000
  C   C815      1.0  0.37419  0.94287  0.46952  1.0000
  H   H650      1.0  0.32908  0.98559  0.04535  1.0000
  H   H651      1.0  0.62996  0.90527  0.03307  1.0000
  H   H652      1.0  0.52830  0.85892  0.10271  1.0000
  C   C816      1.0  0.60464  0.88536  0.10119  1.0000
  C   C817      1.0  0.60935  0.88809  0.14129  1.0000
  C   C818      1.0  0.59708  0.90853  0.02336  1.0000
  C   C819      1.0  0.55633  0.51570  0.39391  1.0000
  H   H653      1.0  0.40522  0.88520  0.33310  1.0000
  C   C820      1.0  0.60996  0.86234  0.08178  1.0000
  C   C821      1.0  0.34094  0.92202  0.47640  1.0000
  H   H654      1.0  0.62335  0.87092  0.19219  1.0000
  C   C822      1.0  0.61770  0.90588  0.01147  1.0000
  C   C823      1.0  0.53825  0.97682  0.47020  1.0000
  C   C824      1.0  0.63726  0.56175  0.10965  1.0000
  C   C825      1.0  0.64499  0.56739  0.07166  1.0000
  C   C826      1.0  0.57871  0.54285  0.18188  1.0000
  H   H655      1.0  0.38290  0.96059  0.46755  1.0000
  H   H656      1.0  0.58728  0.97979  0.17508  1.0000
  C   C827      1.0  0.48259  0.49447  0.28694  1.0000
  H   H657      1.0  0.48596  0.53118  0.25924  1.0000
  H   H658      1.0  0.54194  0.49574  0.30197  1.0000
  C   C828      1.0  0.58030  0.51701  0.17073  1.0000
  S   S106      1.0  0.56198  0.86943  0.48718  1.0000
  H   H659      1.0  0.46749  0.57798  0.47233  1.0000
  C   C829      1.0  0.33098  0.49219  0.39002  1.0000
  C   C830      1.0  0.55166  0.50646  0.21348  1.0000
  C   C831      1.0  0.52533  0.49579  0.29804  1.0000
  C   C832      1.0  0.32430  0.49768  0.35192  1.0000
  C   C833      1.0  0.56668  0.49888  0.18630  1.0000
  C   C834      1.0  0.65608  0.92377  0.14653  1.0000
  H   H660      1.0  0.65614  0.92828  0.42238  1.0000
  H   H661      1.0  0.54133  0.49193  0.22482  1.0000
  H   H662      1.0  0.32434  0.92340  0.47983  1.0000
  Fe  Fe53      1.0  0.51928  0.58280  0.60257  1.0000
  S   S107      1.0  0.53885  0.59637  0.55162  1.0000
  S   S108      1.0  0.48701  0.56902  0.58250  1.0000
  Fe  Fe54      1.0  0.55613  0.58954  0.66000  1.0000
  S   S109      1.0  0.57779  0.60243  0.61258  1.0000
  S   S110      1.0  0.56544  0.58448  0.72447  1.0000
  Fe  Fe55      1.0  0.55102  0.62724  0.59271  1.0000
  S   S111      1.0  0.55820  0.66787  0.56973  1.0000
  Fe  Fe56      1.0  0.56377  0.57087  0.57541  1.0000
  S   S112      1.0  0.58086  0.53878  0.54229  1.0000
  S   S113      1.0  0.52976  0.61571  0.64199  1.0000
  S   S114      1.0  0.54387  0.55600  0.62467  1.0000
  H   H663      1.0  0.51643  0.87494  0.49872  1.0000
  C   C835      1.0  0.64281  0.77247  0.83402  1.0000
  C   C836      1.0  0.63249  0.54438  0.66183  1.0000
  C   C837      1.0  0.43750  0.97532  0.53472  1.0000
  H   H664      1.0  0.64611  0.54497  0.72018  1.0000
  H   H665      1.0  0.58252  0.52321  0.71636  1.0000
  C   C838      1.0  0.63299  0.58188  0.58025  1.0000
  Fe  Fe57      1.0  0.54483  0.82235  0.61545  1.0000
  S   S115      1.0  0.54401  0.85256  0.66384  1.0000
  S   S116      1.0  0.53712  0.78109  0.63555  1.0000
  Fe  Fe58      1.0  0.55825  0.86255  0.55350  1.0000
  S   S117      1.0  0.55920  0.89425  0.59822  1.0000
  H   H666      1.0  0.40628  0.86591  0.59216  1.0000
  Fe  Fe59      1.0  0.57438  0.86547  0.63884  1.0000
  S   S118      1.0  0.60486  0.87354  0.67119  1.0000
  Fe  Fe60      1.0  0.52852  0.87871  0.61937  1.0000
  S   S119      1.0  0.50402  0.91082  0.62653  1.0000
  S   S120      1.0  0.57572  0.83458  0.59201  1.0000
  S   S121      1.0  0.52710  0.84765  0.57315  1.0000
  S   S122      1.0  0.35157  0.95967  0.64826  1.0000
  S   S123      1.0  0.37500  0.96551  0.56229  1.0000
  Fe  Fe61      1.0  0.34288  0.97154  0.58654  1.0000
  Fe  Fe62      1.0  0.38439  0.95647  0.62449  1.0000
  S   S124      1.0  0.40520  0.92114  0.63489  1.0000
  C   C839      1.0  0.47649  0.91298  0.62848  1.0000
  C   C840      1.0  0.46383  0.89144  0.63378  1.0000
  C   C841      1.0  0.44219  0.89438  0.63656  1.0000
  C   C842      1.0  0.43274  0.91871  0.63279  1.0000
  C   C843      1.0  0.44540  0.94027  0.62785  1.0000
  C   C844      1.0  0.46708  0.93742  0.62580  1.0000
  H   H667      1.0  0.47076  0.87257  0.63658  1.0000
  H   H668      1.0  0.43272  0.87762  0.64181  1.0000
  H   H669      1.0  0.43847  0.95917  0.62640  1.0000
  H   H670      1.0  0.47668  0.95430  0.62227  1.0000
  C   C845      1.0  0.62350  0.86987  0.80252  1.0000
  C   C846      1.0  0.63794  0.87588  0.77343  1.0000
  C   C847      1.0  0.63195  0.87667  0.73352  1.0000
  C   C848      1.0  0.61149  0.87137  0.72202  1.0000
  C   C849      1.0  0.59711  0.86489  0.75107  1.0000
  C   C850      1.0  0.60307  0.86431  0.79105  1.0000
  C   C851      1.0  0.43784  0.87701  0.49686  1.0000
  H   H671      1.0  0.64321  0.88170  0.71140  1.0000
  H   H672      1.0  0.58135  0.86067  0.74279  1.0000
  C   C852      1.0  0.58210  0.77873  0.75891  1.0000
  C   C853      1.0  0.63075  0.70980  0.76922  1.0000
  H   H673      1.0  0.57858  0.68589  0.80264  1.0000
  C   C854      1.0  0.61469  0.53284  0.72222  1.0000
  H   H674      1.0  0.61374  0.54048  0.60899  1.0000
  C   C855      1.0  0.60528  0.67188  0.62857  1.0000
  C   C856      1.0  0.40900  0.88794  0.53904  1.0000
  C   C857      1.0  0.55241  0.69915  0.58902  1.0000
  C   C858      1.0  0.54111  0.70276  0.62365  1.0000
  C   C859      1.0  0.53656  0.72793  0.63717  1.0000
  C   C860      1.0  0.54335  0.74986  0.61661  1.0000
  C   C861      1.0  0.55488  0.74625  0.58225  1.0000
  C   C862      1.0  0.55936  0.72109  0.56863  1.0000
  H   H675      1.0  0.53562  0.68619  0.63973  1.0000
  H   H676      1.0  0.52749  0.73043  0.66356  1.0000
  H   H677      1.0  0.56020  0.76283  0.56596  1.0000
  H   H678      1.0  0.56812  0.71862  0.54182  1.0000
  C   C863      1.0  0.59017  0.58888  0.74638  1.0000
  C   C864      1.0  0.59262  0.58389  0.78678  1.0000
  C   C865      1.0  0.61224  0.58491  0.80480  1.0000
  C   C866      1.0  0.62973  0.59079  0.78251  1.0000
  C   C867      1.0  0.62713  0.59692  0.74251  1.0000
  C   C868      1.0  0.60751  0.59609  0.72452  1.0000
  H   H679      1.0  0.57931  0.57844  0.80405  1.0000
  H   H680      1.0  0.61392  0.58001  0.83552  1.0000
  S   S125      1.0  0.65520  0.58725  0.80160  1.0000
  H   H681      1.0  0.60592  0.60000  0.69346  1.0000
  C   C869      1.0  0.41494  0.86865  0.56523  1.0000
  C   C870      1.0  0.61174  0.65951  0.59413  1.0000
  H   H682      1.0  0.57852  0.73270  0.79203  1.0000
  H   H683      1.0  0.42451  0.50472  0.52821  1.0000
  H   H684      1.0  0.33005  0.90531  0.63890  1.0000
  H   H685      1.0  0.64461  0.71516  0.82649  1.0000
  S   S126      1.0  0.62996  0.86968  0.85349  1.0000
  C   C871      1.0  0.46602  0.55228  0.60507  1.0000
  C   C872      1.0  0.46650  0.54426  0.64430  1.0000
  C   C873      1.0  0.44940  0.53128  0.66076  1.0000
  C   C874      1.0  0.43166  0.52570  0.63828  1.0000
  C   C875      1.0  0.43109  0.53401  0.59923  1.0000
  C   C876      1.0  0.44818  0.54701  0.58270  1.0000
  H   H686      1.0  0.47994  0.54837  0.66211  1.0000
  H   H687      1.0  0.44989  0.52571  0.69132  1.0000
  H   H688      1.0  0.41731  0.53077  0.58205  1.0000
  H   H689      1.0  0.44747  0.55337  0.55249  1.0000
  H   H690      1.0  0.62109  0.81892  0.87223  1.0000
  C   C877      1.0  0.33266  0.51278  0.77614  1.0000
  H   H691      1.0  0.64128  0.75891  0.85774  1.0000
  C   C878      1.0  0.50881  0.50079  0.57785  1.0000
  H   H692      1.0  0.39584  0.89993  0.54642  1.0000
  C   C879      1.0  0.49131  0.89835  0.51996  1.0000
  C   C880      1.0  0.56441  0.80288  0.80978  1.0000
  C   C881      1.0  0.48894  0.94117  0.49217  1.0000
  H   H693      1.0  0.64076  0.74477  0.71365  1.0000
  C   C882      1.0  0.59587  0.79210  0.88005  1.0000
  C   C883      1.0  0.57659  0.79753  0.94081  1.0000
  H   H694      1.0  0.45768  0.84667  0.51796  1.0000
  C   C884      1.0  0.64041  0.92812  0.54800  1.0000
  H   H695      1.0  0.58895  0.67217  0.63542  1.0000
  H   H696      1.0  0.50989  0.50486  0.60906  1.0000
  C   C885      1.0  0.52422  0.50110  0.51295  1.0000
  C   C886      1.0  0.60731  0.70405  0.88161  1.0000
  H   H697      1.0  0.64035  0.79062  0.69524  1.0000
  C   C887      1.0  0.55105  0.80252  0.74324  1.0000
  C   C888      1.0  0.63257  0.54082  0.70276  1.0000
  H   H698      1.0  0.61494  0.74294  0.89711  1.0000
  S   S127      1.0  0.34998  0.50083  0.66985  1.0000
  C   C889      1.0  0.63252  0.65981  0.58335  1.0000
  C   C890      1.0  0.63856  0.57868  0.51004  1.0000
  H   H699      1.0  0.59267  0.90786  0.51238  1.0000
  C   C891      1.0  0.62536  0.78323  0.81583  1.0000
  H   H700      1.0  0.59744  0.66719  0.85918  1.0000
  H   H701      1.0  0.48387  0.53755  0.49093  1.0000
  H   H702      1.0  0.34644  0.50422  0.76349  1.0000
  C   C892      1.0  0.60520  0.82589  0.92634  1.0000
  C   C893      1.0  0.64808  0.80947  0.77551  1.0000
  H   H703      1.0  0.61558  0.69584  0.90636  1.0000
  C   C894      1.0  0.33303  0.53814  0.78994  1.0000
  H   H704      1.0  0.57532  0.96127  0.53724  1.0000
  C   C895      1.0  0.57986  0.78448  0.90528  1.0000
  C   C896      1.0  0.61312  0.78737  0.65949  1.0000
  C   C897      1.0  0.61440  0.53870  0.64062  1.0000
  C   C898      1.0  0.62843  0.77780  0.68443  1.0000
  C   C899      1.0  0.42906  0.95154  0.52398  1.0000
  C   C900      1.0  0.52598  0.50439  0.55362  1.0000
  C   C901      1.0  0.64794  0.66044  0.77203  1.0000
  P   P30       1.0  0.65560  0.55514  0.63685  1.0000
  H   H705      1.0  0.42708  0.93697  0.54637  1.0000
  H   H706      1.0  0.43695  0.94417  0.71463  1.0000
  C   C902      1.0  0.59813  0.77075  0.64436  1.0000
  C   C903      1.0  0.42021  0.89202  0.50431  1.0000
  C   C904      1.0  0.48144  0.92220  0.51759  1.0000
  H   H707      1.0  0.61108  0.90297  0.91231  1.0000
  C   C905      1.0  0.58922  0.81830  0.95127  1.0000
  H   H708      1.0  0.58254  0.52722  0.64372  1.0000
  H   H709      1.0  0.56313  0.80989  0.83963  1.0000
  H   H710      1.0  0.64775  0.73330  0.92167  1.0000
  H   H711      1.0  0.63732  0.65063  0.55620  1.0000
  H   H712      1.0  0.59474  0.76667  0.74923  1.0000
  C   C906      1.0  0.62796  0.69293  0.73727  1.0000
  H   H713      1.0  0.58638  0.77808  0.62460  1.0000
  S   S128      1.0  0.36575  0.49545  0.57779  1.0000
  H   H714      1.0  0.61295  0.80764  0.65157  1.0000
  C   C907      1.0  0.58653  0.90695  0.95473  1.0000
  C   C908      1.0  0.50525  0.49382  0.49628  1.0000
  C   C909      1.0  0.59662  0.52817  0.70102  1.0000
  C   C910      1.0  0.54972  0.81085  0.78223  1.0000
  C   C911      1.0  0.64052  0.68483  0.64165  1.0000
  H   H715      1.0  0.53733  0.82366  0.79096  1.0000
  C   C912      1.0  0.64690  0.67262  0.60696  1.0000
  H   H716      1.0  0.34712  0.54931  0.78787  1.0000
  H   H717      1.0  0.37298  0.95874  0.73873  1.0000
  C   C913      1.0  0.60713  0.90450  0.94323  1.0000
  C   C914      1.0  0.59656  0.53079  0.66020  1.0000
  H   H718      1.0  0.60042  0.65031  0.57524  1.0000
  H   H719      1.0  0.63869  0.90239  0.96268  1.0000
  H   H720      1.0  0.65367  0.88027  0.78173  1.0000
  C   C915      1.0  0.56728  0.78660  0.73157  1.0000
  H   H721      1.0  0.58625  0.73220  0.64305  1.0000
  C   C916      1.0  0.38882  0.96537  0.73776  1.0000
  P   P31       1.0  0.59972  0.77574  0.83371  1.0000
  H   H722      1.0  0.54795  0.94123  0.49820  1.0000
  C   C917      1.0  0.64944  0.56482  0.58708  1.0000
  C   C918      1.0  0.50849  0.89327  0.49645  1.0000
  C   C919      1.0  0.40460  0.94838  0.72718  1.0000
  H   H723      1.0  0.44181  0.97900  0.56494  1.0000
  C   C920      1.0  0.61971  0.68421  0.65299  1.0000
  C   C921      1.0  0.58060  0.78641  0.79846  1.0000
  P   P32       1.0  0.61166  0.70174  0.69621  1.0000
  C   C922      1.0  0.58595  0.69200  0.71049  1.0000
  H   H724      1.0  0.58665  0.82858  0.97860  1.0000
  C   C923      1.0  0.57029  0.71025  0.71711  1.0000
  C   C924      1.0  0.55056  0.70233  0.72840  1.0000
  C   C925      1.0  0.54627  0.67618  0.73322  1.0000
  C   C926      1.0  0.56181  0.65795  0.72738  1.0000
  C   C927      1.0  0.58160  0.66578  0.71629  1.0000
  C   C928      1.0  0.61264  0.73530  0.68199  1.0000
  H   H725      1.0  0.61459  0.53144  0.75402  1.0000
  C   C929      1.0  0.62840  0.75179  0.69526  1.0000
  C   C930      1.0  0.42489  0.95724  0.72422  1.0000
  H   H726      1.0  0.62357  0.72861  0.76948  1.0000
  H   H727      1.0  0.57308  0.73059  0.71356  1.0000
  H   H728      1.0  0.53847  0.71650  0.73272  1.0000
  H   H729      1.0  0.53087  0.66997  0.74122  1.0000
  H   H730      1.0  0.55845  0.63768  0.73119  1.0000
  H   H731      1.0  0.59339  0.65127  0.71182  1.0000
  C   C931      1.0  0.62750  0.58863  0.54190  1.0000
  C   C932      1.0  0.43246  0.85378  0.55763  1.0000
  H   H732      1.0  0.46845  0.92621  0.53669  1.0000
  H   H733      1.0  0.56828  0.78056  0.70113  1.0000
  H   H734      1.0  0.53961  0.80851  0.72183  1.0000
  C   C933      1.0  0.60859  0.81275  0.89101  1.0000
  H   H735      1.0  0.61498  0.84210  0.93405  1.0000
  H   H736      1.0  0.57452  0.90728  0.93257  1.0000
  C   C934      1.0  0.59800  0.74479  0.65522  1.0000
  H   H737      1.0  0.43736  0.83932  0.57859  1.0000
  H   H738      1.0  0.65370  0.89206  0.52975  1.0000
  C   C935      1.0  0.64247  0.70222  0.80178  1.0000
  H   H739      1.0  0.56985  0.76859  0.89729  1.0000
  H   H740      1.0  0.64047  0.60160  0.72503  1.0000
  H   H741      1.0  0.59176  0.85958  0.81323  1.0000
  H   H742      1.0  0.61433  0.60109  0.53685  1.0000
  H   H743      1.0  0.61519  0.81163  0.77319  1.0000
  C   C936      1.0  0.62820  0.80196  0.78657  1.0000
  C   C937      1.0  0.56609  0.97313  0.51781  1.0000
  H   H744      1.0  0.62402  0.58945  0.60458  1.0000
  Fe  Fe63      1.0  0.33533  0.50143  0.60955  1.0000
  S   S129      1.0  0.41088  0.50814  0.66029  1.0000
  H   H745      1.0  0.40103  0.92850  0.72007  1.0000
  C   C938      1.0  0.59713  0.68790  0.85502  1.0000
  C   C939      1.0  0.58661  0.69846  0.82304  1.0000
  C   C940      1.0  0.58674  0.72512  0.81699  1.0000
  C   C941      1.0  0.59747  0.74147  0.84291  1.0000
  C   C942      1.0  0.60721  0.73072  0.87590  1.0000
  H   H746      1.0  0.63378  0.65415  0.71591  1.0000
  C   C943      1.0  0.65398  0.91281  0.52625  1.0000
  H   H747      1.0  0.48605  0.88413  0.54097  1.0000
  H   H748      1.0  0.65172  0.69513  0.65937  1.0000
  C   C944      1.0  0.63646  0.66803  0.73919  1.0000
  S   S130      1.0  0.65231  0.61036  0.91889  1.0000
  C   C945      1.0  0.65511  0.56198  0.51649  1.0000
  H   H749      1.0  0.62971  0.91922  0.56842  1.0000
  C   C946      1.0  0.62269  0.90405  0.97160  1.0000
  H   H750      1.0  0.33892  0.51729  0.51166  1.0000
  C   C947      1.0  0.44394  0.85801  0.52352  1.0000
  H   H751      1.0  0.65009  0.82441  0.75366  1.0000
  H   H752      1.0  0.56420  0.79162  0.96012  1.0000
  C   C948      1.0  0.55037  0.96179  0.49559  1.0000
  H   H753      1.0  0.62435  0.51968  0.54168  1.0000
  C   C949      1.0  0.65406  0.96627  0.51635  1.0000
  H   H754      1.0  0.54048  0.51089  0.56611  1.0000
  H   H755      1.0  0.62989  0.96663  0.56000  1.0000
  H   H756      1.0  0.53751  0.50528  0.49480  1.0000
  C   C950      1.0  0.65099  0.67754  0.80327  1.0000
  C   C951      1.0  0.49000  0.49310  0.56155  1.0000
  H   H757      1.0  0.65368  0.98694  0.51284  1.0000
  C   C952      1.0  0.64050  0.95484  0.54315  1.0000
  H   H758      1.0  0.48128  0.95962  0.49178  1.0000
  H   H759      1.0  0.65139  0.49891  0.64736  1.0000
  C   C953      1.0  0.42948  0.98304  0.73235  1.0000
  H   H760      1.0  0.44517  0.98969  0.72858  1.0000
  H   H761      1.0  0.65412  0.64107  0.77380  1.0000
  C   C954      1.0  0.63112  0.50057  0.54211  1.0000
  C   C955      1.0  0.64245  0.49175  0.50976  1.0000
  H   H762      1.0  0.59339  0.49795  0.49027  1.0000
  C   C956      1.0  0.32553  0.50741  0.49987  1.0000
  C   C957      1.0  0.58921  0.53914  0.49251  1.0000
  H   H763      1.0  0.65631  0.61199  0.62571  1.0000
  H   H764      1.0  0.61833  0.49108  0.59858  1.0000
  H   H765      1.0  0.47652  0.49136  0.58025  1.0000
  Fe  Fe64      1.0  0.37988  0.49175  0.63807  1.0000
  Fe  Fe65      1.0  0.92978  0.32486  0.09466  1.0000
  S   S131      1.0  0.93418  0.33626  0.15793  1.0000
  S   S132      1.0  0.93032  0.28405  0.06868  1.0000
  Fe  Fe66      1.0  0.92069  0.38071  0.06876  1.0000
  S   S133      1.0  0.92392  0.39555  0.13089  1.0000
  S   S134      1.0  0.91495  0.41299  0.02444  1.0000
  Fe  Fe67      1.0  0.95219  0.37034  0.13363  1.0000
  Fe  Fe68      1.0  0.90575  0.36084  0.15004  1.0000
  S   S135      1.0  0.87580  0.35951  0.18637  1.0000
  S   S136      1.0  0.94976  0.35704  0.07090  1.0000
  S   S137      1.0  0.90048  0.34784  0.08743  1.0000
  Fe  Fe69      1.0  0.82609  0.37538  0.40076  1.0000
  S   S138      1.0  0.79842  0.35552  0.37564  1.0000
  S   S139      1.0  0.85435  0.38755  0.36504  1.0000
  Fe  Fe70      1.0  0.80147  0.32854  0.42749  1.0000
  Fe  Fe71      1.0  0.77942  0.38118  0.41540  1.0000
  S   S140      1.0  0.75187  0.40825  0.40299  1.0000
  S   S141      1.0  0.80729  0.40297  0.43756  1.0000
  C   C958      1.0  0.97617  0.32668  0.22175  1.0000
  S   S142      1.0  0.67331  0.43288  0.29379  1.0000
  Fe  Fe72      1.0  0.79371  0.13144  0.44381  1.0000
  Fe  Fe73      1.0  0.77981  0.07760  0.41377  1.0000
  S   S143      1.0  0.81295  0.06436  0.40933  1.0000
  S   S144      1.0  0.75569  0.04617  0.39891  1.0000
  Fe  Fe74      1.0  0.81996  0.10313  0.38321  1.0000
  S   S145      1.0  0.83578  0.11509  0.32579  1.0000
  S   S146      1.0  0.78653  0.11527  0.38381  1.0000
  C   C959      1.0  0.78909  0.20305  0.44966  1.0000
  S   S147      1.0  0.66995  0.03877  0.30386  1.0000
  Fe  Fe75      1.0  0.92184  0.08604  0.09061  1.0000
  S   S148      1.0  0.93631  0.05809  0.13243  1.0000
  S   S149      1.0  0.89803  0.06671  0.05042  1.0000
  Fe  Fe76      1.0  0.94249  0.13214  0.13207  1.0000
  S   S150      1.0  0.95883  0.10594  0.17532  1.0000
  S   S151      1.0  0.94623  0.17474  0.15013  1.0000
  Fe  Fe77      1.0  0.96583  0.08021  0.12365  1.0000
  Fe  Fe78      1.0  0.92816  0.08603  0.18035  1.0000
  S   S152      1.0  0.91629  0.07182  0.23966  1.0000
  S   S153      1.0  0.95164  0.10746  0.07931  1.0000
  S   S154      1.0  0.91159  0.11276  0.13966  1.0000
  C   C960      1.0  0.69382  0.04027  0.33035  1.0000
  C   C961      1.0  0.70375  0.01829  0.34481  1.0000
  C   C962      1.0  0.72274  0.02054  0.36506  1.0000
  C   C963      1.0  0.73202  0.04473  0.37175  1.0000
  C   C964      1.0  0.72210  0.06671  0.35728  1.0000
  C   C965      1.0  0.70319  0.06445  0.33672  1.0000
  H   H766      1.0  0.77010  0.01622  0.25004  1.0000
  H   H767      1.0  0.73042  0.00338  0.37539  1.0000
  H   H768      1.0  0.72896  0.08545  0.36202  1.0000
  H   H769      1.0  0.69575  0.08160  0.32563  1.0000
  C   C966      1.0  0.85776  0.10196  0.30180  1.0000
  C   C967      1.0  0.86929  0.08183  0.31789  1.0000
  C   C968      1.0  0.88687  0.07244  0.29799  1.0000
  C   C969      1.0  0.89318  0.08310  0.26201  1.0000
  C   C970      1.0  0.88118  0.10257  0.24523  1.0000
  C   C971      1.0  0.86367  0.11204  0.26514  1.0000
  H   H770      1.0  0.86477  0.07363  0.34579  1.0000
  H   H771      1.0  0.89574  0.05692  0.31065  1.0000
  H   H772      1.0  0.88564  0.11066  0.21727  1.0000
  H   H773      1.0  0.85467  0.12729  0.25200  1.0000
  C   C972      1.0  0.78523  0.27542  0.27861  1.0000
  H   H774      1.0  0.73352  0.04237  0.07307  1.0000
  C   C973      1.0  0.84964  0.18071  0.29112  1.0000
  S   S155      1.0  0.82742  0.12091  0.44214  1.0000
  H   H775      1.0  0.85316  0.41831  0.19563  1.0000
  C   C974      1.0  0.75084  0.22688  0.35272  1.0000
  H   H776      1.0  0.93260  0.45456  0.14605  1.0000
  H   H777      1.0  0.87218  0.08089  0.47107  1.0000
  C   C975      1.0  0.78479  0.24994  0.45709  1.0000
  C   C976      1.0  0.90315  0.10772  0.40105  1.0000
  C   C977      1.0  0.81720  0.44014  0.32162  1.0000
  C   C978      1.0  0.73063  0.41507  0.37106  1.0000
  C   C979      1.0  0.72410  0.39801  0.34166  1.0000
  C   C980      1.0  0.70669  0.40392  0.31830  1.0000
  C   C981      1.0  0.69558  0.42703  0.32365  1.0000
  C   C982      1.0  0.70244  0.44439  0.35241  1.0000
  C   C983      1.0  0.71971  0.43834  0.37607  1.0000
  H   H778      1.0  0.73231  0.38015  0.33722  1.0000
  H   H779      1.0  0.70169  0.39040  0.29598  1.0000
  H   H780      1.0  0.69430  0.46237  0.35664  1.0000
  H   H781      1.0  0.72464  0.45176  0.39855  1.0000
  C   C984      1.0  0.93337  0.25382  0.09270  1.0000
  C   C985      1.0  0.92954  0.23091  0.07159  1.0000
  C   C986      1.0  0.93276  0.20651  0.08890  1.0000
  C   C987      1.0  0.94021  0.20476  0.12741  1.0000
  C   C988      1.0  0.94371  0.22770  0.14863  1.0000
  C   C989      1.0  0.94012  0.25204  0.13161  1.0000
  H   H782      1.0  0.92430  0.23204  0.04145  1.0000
  H   H783      1.0  0.93002  0.18913  0.07207  1.0000
  H   H784      1.0  0.94963  0.22665  0.17821  1.0000
  H   H785      1.0  0.94303  0.26948  0.14814  1.0000
  C   C990      1.0  0.87053  0.36665  0.23658  1.0000
  C   C991      1.0  0.88526  0.37762  0.26159  1.0000
  C   C992      1.0  0.88005  0.38382  0.30080  1.0000
  C   C993      1.0  0.86017  0.37887  0.31564  1.0000
  C   C994      1.0  0.84547  0.36776  0.29069  1.0000
  C   C995      1.0  0.85063  0.36176  0.25140  1.0000
  H   H786      1.0  0.90057  0.38168  0.25059  1.0000
  H   H787      1.0  0.89150  0.39259  0.31973  1.0000
  H   H788      1.0  0.83002  0.36435  0.30143  1.0000
  H   H789      1.0  0.83902  0.35363  0.23219  1.0000
  P   P33       1.0  0.76057  0.26328  0.29544  1.0000
  C   C996      1.0  0.68077  0.01869  0.46877  1.0000
  H   H790      1.0  0.95642  0.04581  0.26002  1.0000
  H   H791      1.0  0.76618  0.27726  0.37814  1.0000
  H   H792      1.0  0.87235  0.48566  0.05591  1.0000
  C   C997      1.0  0.77992  0.22444  0.46838  1.0000
  H   H793      1.0  0.84047  0.44709  0.36558  1.0000
  P   P34       1.0  0.84040  0.46650  0.00147  1.0000
  C   C998      1.0  0.67398  0.48017  0.43733  1.0000
  C   C999      1.0  0.81369  0.04617  0.13134  1.0000
  H   H794      1.0  0.96478  0.41863  0.02791  1.0000
  P   P35       1.0  0.82679  0.05775  0.17490  1.0000
  H   H795      1.0  0.70790  0.21283  0.22297  1.0000
  C   C1000     1.0  0.85183  0.04250  0.17694  1.0000
  C   C1001     1.0  0.69233  0.41399  0.45763  1.0000
  H   H796      1.0  0.78571  0.02030  0.03786  1.0000
  C   C1002     1.0  0.97408  0.46235  0.08615  1.0000
  H   H797      1.0  0.92177  0.01591  0.03120  1.0000
  C   C1003     1.0  0.86248  0.43247  0.04880  1.0000
  C   C1004     1.0  0.97846  0.01841  0.28281  1.0000
  H   H798      1.0  0.80782  0.06957  0.31454  1.0000
  H   H799      1.0  0.88650  0.27631  0.09623  1.0000
  C   C1005     1.0  0.74389  0.27253  0.22100  1.0000
  H   H800      1.0  0.82849  0.43327  0.30079  1.0000
  C   C1006     1.0  0.83078  0.09223  0.17199  1.0000
  C   C1007     1.0  0.81539  0.10921  0.18533  1.0000
  C   C1008     1.0  0.85224  0.12907  0.15535  1.0000
  C   C1009     1.0  0.84921  0.10242  0.15676  1.0000
  H   H801      1.0  0.82246  0.00639  0.14062  1.0000
  C   C1010     1.0  0.89252  0.16278  0.39316  1.0000
  C   C1011     1.0  0.86306  0.03846  0.14207  1.0000
  C   C1012     1.0  0.67528  0.99712  0.44595  1.0000
  H   H802      1.0  0.87960  0.40490  0.08295  1.0000
  C   C1013     1.0  0.98205  0.24065  0.05994  1.0000
  H   H803      1.0  0.79064  0.47331  0.20533  1.0000
  H   H804      1.0  0.84953  0.45696  0.15339  1.0000
  H   H805      1.0  0.79097  0.02358  0.19052  1.0000
  C   C1014     1.0  0.93741  0.12849  0.31971  1.0000
  H   H806      1.0  0.80102  0.10186  0.19705  1.0000
  H   H807      1.0  0.86655  0.13668  0.14368  1.0000
  H   H808      1.0  0.86143  0.09004  0.14612  1.0000
  C   C1015     1.0  0.82416  0.44816  0.35858  1.0000
  H   H809      1.0  0.81652  0.20108  0.22029  1.0000
  C   C1016     1.0  0.73149  0.32618  0.37438  1.0000
  C   C1017     1.0  0.80418  0.46120  0.20375  1.0000
  H   H810      1.0  0.79560  0.46074  0.99271  1.0000
  C   C1018     1.0  0.73787  0.02234  0.07632  1.0000
  H   H811      1.0  0.80208  0.08348  0.11337  1.0000
  H   H812      1.0  0.79460  0.17976  0.32280  1.0000
  C   C1019     1.0  0.82395  0.42407  0.22456  1.0000
  C   C1020     1.0  0.89772  0.18810  0.40400  1.0000
  H   H813      1.0  0.78447  0.06690  0.05420  1.0000
  H   H814      1.0  0.73835  0.23952  0.36137  1.0000
  H   H815      1.0  0.73047  0.22192  0.27946  1.0000
  C   C1021     1.0  0.88535  0.38257  0.45040  1.0000
  H   H816      1.0  0.93325  0.14213  0.22211  1.0000
  H   H817      1.0  0.74508  0.41352  0.24107  1.0000
  C   C1022     1.0  0.79336  0.26735  0.24228  1.0000
  C   C1023     1.0  0.81184  0.27783  0.22823  1.0000
  C   C1024     1.0  0.82248  0.29617  0.25052  1.0000
  C   C1025     1.0  0.81468  0.30394  0.28693  1.0000
  H   H818      1.0  0.84128  0.28781  0.36187  1.0000
  C   C1026     1.0  0.78765  0.04236  0.28603  1.0000
  H   H819      1.0  0.81789  0.27190  0.19992  1.0000
  H   H820      1.0  0.83682  0.30431  0.23975  1.0000
  H   H821      1.0  0.88291  0.30915  0.14870  1.0000
  C   C1027     1.0  0.82995  0.20080  0.23926  1.0000
  C   C1028     1.0  0.90313  0.06099  0.39621  1.0000
  H   H822      1.0  0.79114  0.22153  0.28871  1.0000
  C   C1029     1.0  0.86450  0.20013  0.28851  1.0000
  C   C1030     1.0  0.86250  0.21967  0.26037  1.0000
  C   C1031     1.0  0.84488  0.22018  0.23630  1.0000
  P   P36       1.0  0.88170  0.24477  0.25668  1.0000
  C   C1032     1.0  0.87561  0.27083  0.29024  1.0000
  C   C1033     1.0  0.90634  0.23133  0.27151  1.0000
  C   C1034     1.0  0.91239  0.23247  0.31121  1.0000
  C   C1035     1.0  0.93094  0.22125  0.32341  1.0000
  C   C1036     1.0  0.94357  0.20864  0.29619  1.0000
  C   C1037     1.0  0.93767  0.20730  0.25678  1.0000
  C   C1038     1.0  0.91919  0.21857  0.24444  1.0000
  C   C1039     1.0  0.88872  0.29233  0.29285  1.0000
  C   C1040     1.0  0.88421  0.31249  0.31887  1.0000
  C   C1041     1.0  0.86708  0.31089  0.34363  1.0000
  C   C1042     1.0  0.85448  0.28908  0.34244  1.0000
  C   C1043     1.0  0.85855  0.26922  0.31563  1.0000
  C   C1044     1.0  0.88265  0.25516  0.20580  1.0000
  C   C1045     1.0  0.88185  0.28140  0.19565  1.0000
  C   C1046     1.0  0.88309  0.28889  0.15628  1.0000
  C   C1047     1.0  0.88491  0.27038  0.12665  1.0000
  C   C1048     1.0  0.88505  0.24426  0.13624  1.0000
  C   C1049     1.0  0.88366  0.23665  0.17553  1.0000
  C   C1050     1.0  0.76465  0.23393  0.32280  1.0000
  H   H823      1.0  0.87753  0.19973  0.30838  1.0000
  H   H824      1.0  0.84277  0.23540  0.21502  1.0000
  H   H825      1.0  0.90267  0.24175  0.33293  1.0000
  H   H826      1.0  0.93548  0.22226  0.35401  1.0000
  H   H827      1.0  0.95788  0.19975  0.30550  1.0000
  H   H828      1.0  0.94729  0.19716  0.23565  1.0000
  H   H829      1.0  0.91516  0.21691  0.21380  1.0000
  H   H830      1.0  0.90227  0.29372  0.27431  1.0000
  H   H831      1.0  0.86351  0.32663  0.36362  1.0000
  H   H832      1.0  0.84830  0.25277  0.31498  1.0000
  H   H833      1.0  0.88025  0.29637  0.21753  1.0000
  H   H834      1.0  0.88675  0.22995  0.11317  1.0000
  H   H835      1.0  0.88371  0.21627  0.18219  1.0000
  H   H836      1.0  0.89391  0.32950  0.31971  1.0000
  H   H837      1.0  0.76549  0.44779  0.33649  1.0000
  C   C1051     1.0  0.77972  0.35732  0.22585  1.0000
  C   C1052     1.0  0.77194  0.34494  0.25906  1.0000
  C   C1053     1.0  0.76924  0.35865  0.29403  1.0000
  C   C1054     1.0  0.77439  0.38477  0.29603  1.0000
  C   C1055     1.0  0.78235  0.39731  0.26292  1.0000
  C   C1056     1.0  0.78463  0.38351  0.22757  1.0000
  P   P37       1.0  0.78676  0.43159  0.26423  1.0000
  C   C1057     1.0  0.79604  0.44068  0.31255  1.0000
  C   C1058     1.0  0.96726  0.17105  0.41839  1.0000
  H   H838      1.0  0.75160  0.31160  0.41968  1.0000
  H   H839      1.0  0.84025  0.16913  0.39069  1.0000
  H   H840      1.0  0.91433  0.46356  0.08342  1.0000
  C   C1059     1.0  0.79263  0.05373  0.07333  1.0000
  C   C1060     1.0  0.74637  0.30948  0.38956  1.0000
  H   H841      1.0  0.98596  0.32169  0.10560  1.0000
  C   C1061     1.0  0.79497  0.03367  0.21728  1.0000
  H   H842      1.0  0.78538  0.25310  0.22464  1.0000
  C   C1062     1.0  0.78901  0.45650  0.37860  1.0000
  C   C1063     1.0  0.78197  0.44841  0.34174  1.0000
  H   H843      1.0  0.77799  0.46177  0.40119  1.0000
  C   C1064     1.0  0.74461  0.43412  0.24585  1.0000
  C   C1065     1.0  0.76250  0.44802  0.25582  1.0000
  H   H844      1.0  0.78177  0.34670  0.19867  1.0000
  H   H845      1.0  0.76795  0.32478  0.25772  1.0000
  H   H846      1.0  0.76320  0.34909  0.31981  1.0000
  H   H847      1.0  0.77193  0.39516  0.32331  1.0000
  H   H848      1.0  0.79002  0.39297  0.20119  1.0000
  C   C1066     1.0  0.85627  0.17460  0.39434  1.0000
  S   S156      1.0  0.78173  0.17120  0.46391  1.0000
  H   H849      1.0  0.90832  0.35392  0.43724  1.0000
  H   H850      1.0  0.97178  0.37612  0.99925  1.0000
  C   C1067     1.0  0.96252  0.30873  0.23779  1.0000
  C   C1068     1.0  0.72482  0.32330  0.33553  1.0000
  C   C1069     1.0  0.79885  0.25438  0.42666  1.0000
  C   C1070     1.0  0.93102  0.46406  0.08446  1.0000
  C   C1071     1.0  0.81011  0.45673  0.38685  1.0000
  H   H851      1.0  0.97789  0.00679  0.05292  1.0000
  S   S157      1.0  0.83004  0.34777  0.45109  1.0000
  C   C1072     1.0  0.81850  0.13586  0.18395  1.0000
  C   C1073     1.0  0.83694  0.14578  0.16903  1.0000
  C   C1074     1.0  0.92923  0.14117  0.25299  1.0000
  H   H852      1.0  0.82881  0.07734  0.25538  1.0000
  H   H853      1.0  0.97346  0.04891  0.19496  1.0000
  H   H854      1.0  0.74277  0.19813  0.39579  1.0000
  C   C1075     1.0  0.96282  0.45778  0.12043  1.0000
  C   C1076     1.0  0.71803  0.24573  0.18972  1.0000
  C   C1077     1.0  0.96389  0.46768  0.05063  1.0000
  H   H855      1.0  0.84949  0.21371  0.41122  1.0000
  H   H856      1.0  0.80661  0.14876  0.19457  1.0000
  C   C1078     1.0  0.66255  0.00051  0.41298  1.0000
  C   C1079     1.0  0.80628  0.43961  0.22819  1.0000
  H   H857      1.0  0.82292  0.31810  0.30437  1.0000
  H   H858      1.0  0.97521  0.34683  0.23014  1.0000
  C   C1080     1.0  0.86150  0.19966  0.40564  1.0000
  H   H859      1.0  0.81808  0.48413  0.15811  1.0000
  H   H860      1.0  0.91364  0.19370  0.40802  1.0000
  H   H861      1.0  0.83943  0.16639  0.16797  1.0000
  C   C1081     1.0  0.97572  0.41719  0.00393  1.0000
  H   H862      1.0  0.97665  0.19972  0.05773  1.0000
  P   P38       1.0  0.66381  0.45417  0.46669  1.0000
  H   H863      1.0  0.66482  0.43510  0.38563  1.0000
  C   C1082     1.0  0.88222  0.20646  0.41020  1.0000
  H   H864      1.0  0.73088  0.27990  0.16375  1.0000
  H   H865      1.0  0.72809  0.30248  0.28152  1.0000
  C   C1083     1.0  0.88969  0.10602  0.43336  1.0000
  C   C1084     1.0  0.83246  0.18091  0.26642  1.0000
  H   H866      1.0  0.79083  0.29972  0.32963  1.0000
  C   C1085     1.0  0.75471  0.29006  0.36585  1.0000
  P   P39       1.0  0.97890  0.47098  0.00620  1.0000
  C   C1086     1.0  0.73850  0.00616  0.04337  1.0000
  C   C1087     1.0  0.89700  0.36054  0.45839  1.0000
  H   H867      1.0  0.88974  0.15578  0.31418  1.0000
  H   H868      1.0  0.97871  0.18380  0.40581  1.0000
  Fe  Fe79      1.0  0.80893  0.37391  0.48601  1.0000
  H   H869      1.0  0.70797  0.24167  0.16498  1.0000
  H   H870      1.0  0.82119  0.16551  0.26851  1.0000
  H   H871      1.0  0.81552  0.46246  0.41572  1.0000
  C   C1088     1.0  0.98686  0.01275  0.02775  1.0000
  C   C1089     1.0  0.87169  0.15630  0.38785  1.0000
  C   C1090     1.0  0.78230  0.19293  0.33071  1.0000
  C   C1091     1.0  0.81614  0.06381  0.25381  1.0000
  S   S158      1.0  0.80549  0.28592  0.41016  1.0000
  H   H872      1.0  0.88763  0.39296  0.42314  1.0000
  H   H873      1.0  0.74211  0.02514  0.13905  1.0000
  H   H874      1.0  0.85146  0.16530  0.31217  1.0000
  H   H875      1.0  0.92665  0.12518  0.46415  1.0000
  H   H876      1.0  0.90822  0.04351  0.38169  1.0000
  C   C1092     1.0  0.78303  0.02944  0.25098  1.0000
  H   H877      1.0  0.95713  0.12161  0.26960  1.0000
  H   H878      1.0  0.75369  0.28938  0.22002  1.0000
  C   C1093     1.0  0.73096  0.26725  0.18904  1.0000
  C   C1094     1.0  0.79631  0.29344  0.30117  1.0000
  C   C1095     1.0  0.91000  0.08498  0.38283  1.0000
  H   H879      1.0  0.89189  0.02642  0.11653  1.0000
  C   C1096     1.0  0.71003  0.40014  0.46782  1.0000
  C   C1097     1.0  0.94130  0.45873  0.11964  1.0000
  H   H880      1.0  0.70529  0.47721  0.45960  1.0000
  C   C1098     1.0  0.74403  0.25624  0.25391  1.0000
  S   S159      1.0  0.78437  0.09437  0.47471  1.0000
  H   H881      1.0  0.71320  0.33623  0.32386  1.0000
  C   C1099     1.0  0.80782  0.23302  0.40763  1.0000
  C   C1100     1.0  0.80318  0.20759  0.41933  1.0000
  C   C1101     1.0  0.82629  0.43687  0.06490  1.0000
  C   C1102     1.0  0.71799  0.22949  0.22239  1.0000
  C   C1103     1.0  0.81166  0.05096  0.21845  1.0000
  H   H882      1.0  0.81834  0.23615  0.38346  1.0000
  H   H883      1.0  0.80998  0.19143  0.40414  1.0000
  C   C1104     1.0  0.74853  0.28739  0.32650  1.0000
  H   H884      1.0  0.81537  0.41249  0.11177  1.0000
  H   H885      1.0  0.77036  0.16813  0.37606  1.0000
  C   C1105     1.0  0.73334  0.30406  0.31158  1.0000
  C   C1106     1.0  0.91854  0.13864  0.33288  1.0000
  C   C1107     1.0  0.80270  0.06307  0.10691  1.0000
  C   C1108     1.0  0.81973  0.46741  0.17682  1.0000
  H   H886      1.0  0.77835  0.03920  0.31215  1.0000
  C   C1109     1.0  0.73089  0.23472  0.25442  1.0000
  C   C1110     1.0  0.78037  0.21671  0.31180  1.0000
  C   C1111     1.0  0.80423  0.05950  0.28740  1.0000
  H   H887      1.0  0.82586  0.40717  0.24279  1.0000
  C   C1112     1.0  0.84329  0.44415  0.04188  1.0000
  H   H888      1.0  0.88385  0.04102  0.43797  1.0000
  C   C1113     1.0  0.67461  0.04339  0.45742  1.0000
  C   C1114     1.0  0.83949  0.43036  0.19783  1.0000
  C   C1115     1.0  0.76858  0.18621  0.36060  1.0000
  H   H889      1.0  0.89959  0.15885  0.24459  1.0000
  C   C1116     1.0  0.75298  0.20324  0.37182  1.0000
  H   H890      1.0  0.71583  0.38525  0.44833  1.0000
  H   H891      1.0  0.84956  0.39217  0.12348  1.0000
  C   C1117     1.0  0.82854  0.41820  0.09425  1.0000
  H   H892      1.0  0.86079  0.40736  0.47016  1.0000
  C   C1118     1.0  0.86473  0.41400  0.07828  1.0000
  C   C1119     1.0  0.83745  0.45213  0.17413  1.0000
  H   H893      1.0  0.85675  0.04401  0.11381  1.0000
  P   P40       1.0  0.91227  0.13882  0.38471  1.0000
  C   C1120     1.0  0.72554  0.44662  0.24333  1.0000
  C   C1121     1.0  0.80401  0.01050  0.08853  1.0000
  H   H894      1.0  0.81122  0.44516  0.05989  1.0000
  C   C1122     1.0  0.96367  0.28288  0.22637  1.0000
  C   C1123     1.0  0.86085  0.03597  0.21310  1.0000
  C   C1124     1.0  0.97022  0.03462  0.25404  1.0000
  S   S160      1.0  0.98221  0.38484  0.16225  1.0000
  C   C1125     1.0  0.93785  0.13795  0.45088  1.0000
  C   C1126     1.0  0.84776  0.40677  0.10094  1.0000
  H   H895      1.0  0.77743  0.26606  0.47158  1.0000
  C   C1127     1.0  0.79333  0.02748  0.06409  1.0000
  C   C1128     1.0  0.72411  0.47303  0.25065  1.0000
  H   H896      1.0  0.87566  0.43715  0.03071  1.0000
  C   C1129     1.0  0.88306  0.02846  0.14346  1.0000
  C   C1130     1.0  0.81414  0.01977  0.12204  1.0000
  H   H897      1.0  0.67967  0.06004  0.47411  1.0000
  C   C1131     1.0  0.86381  0.48493  0.99433  1.0000
  H   H898      1.0  0.95304  0.26893  0.23857  1.0000
  C   C1132     1.0  0.94225  0.46855  0.05003  1.0000
  H   H899      1.0  0.72520  0.34144  0.39267  1.0000
  H   H900      1.0  0.68480  0.40938  0.43018  1.0000
  C   C1133     1.0  0.94272  0.12979  0.27988  1.0000
  H   H901      1.0  0.94803  0.11959  0.34016  1.0000
  C   C1134     1.0  0.94973  0.16426  0.39672  1.0000
  H   H902      1.0  0.71166  0.43571  0.23680  1.0000
  C   C1135     1.0  0.91027  0.15079  0.26572  1.0000
  S   S161      1.0  0.78022  0.35266  0.46561  1.0000
  C   C1136     1.0  0.97011  0.16128  0.45624  1.0000
  C   C1137     1.0  0.90479  0.14914  0.30535  1.0000
  H   H903      1.0  0.92036  0.08566  0.35793  1.0000
  C   C1138     1.0  0.66255  0.04666  0.42378  1.0000
  H   H904      1.0  0.97083  0.45276  0.14737  1.0000
  C   C1139     1.0  0.88941  0.05954  0.42782  1.0000
  H   H905      1.0  0.87200  0.03636  0.00007  1.0000
  C   C1140     1.0  0.93495  0.14750  0.41270  1.0000
  H   H906      1.0  0.94771  0.17207  0.36752  1.0000
  H   H907      1.0  0.86729  0.13703  0.37873  1.0000
  Fe  Fe80      1.0  0.81779  0.08279  0.46921  1.0000
  H   H908      1.0  0.98373  0.16644  0.47301  1.0000
  H   H909      1.0  0.88622  0.22588  0.41911  1.0000
  C   C1141     1.0  0.95539  0.14479  0.47249  1.0000
  C   C1142     1.0  0.76094  0.47464  0.26289  1.0000
  H   H910      1.0  0.85290  0.03941  0.24054  1.0000
  C   C1143     1.0  0.88078  0.02568  0.21429  1.0000
  H   H911      1.0  0.93389  0.47164  0.02299  1.0000
  C   C1144     1.0  0.97978  0.03637  0.21738  1.0000
  H   H912      1.0  0.90770  0.01523  0.18081  1.0000
  C   C1145     1.0  0.87030  0.39078  0.47698  1.0000
  C   C1146     1.0  0.98362  0.21548  0.07396  1.0000
  H   H913      1.0  0.88796  0.02156  0.24234  1.0000
  C   C1147     1.0  0.89194  0.02214  0.17957  1.0000
  C   C1148     1.0  0.74277  0.01265  0.11347  1.0000
  H   H914      1.0  0.95095  0.31496  0.25872  1.0000
  H   H915      1.0  0.69688  0.99955  0.34009  1.0000
  H   H916      1.0  0.97374  0.24443  0.03290  1.0000
  C   C1149     1.0  0.68511  0.43395  0.48200  1.0000
  H   H917      1.0  0.77442  0.48561  0.27159  1.0000
  C   C1150     1.0  0.88277  0.08205  0.44643  1.0000
  H   H918      1.0  0.75467  0.00376  0.46708  1.0000
  H   H919      1.0  0.88447  0.12315  0.44864  1.0000
  H   H920      1.0  0.83038  0.27596  0.48787  1.0000
  H   H921      1.0  0.97904  0.25497  0.19027  1.0000
  C   C1151     1.0  0.69486  0.48725  0.44014  1.0000
  C   C1152     1.0  0.97835  0.27505  0.19866  1.0000
  C   C1153     1.0  0.81904  0.48814  0.01064  1.0000
  C   C1154     1.0  0.92975  0.99817  0.02377  1.0000
  C   C1155     1.0  0.89997  0.05885  0.99953  1.0000
  C   C1156     1.0  0.79870  0.48010  0.00319  1.0000
  H   H922      1.0  0.73482  0.01393  0.01467  1.0000
  H   H923      1.0  0.70917  0.48243  0.24954  1.0000
  H   H924      1.0  0.98834  0.28039  0.07038  1.0000
  H   H925      1.0  0.71895  0.00168  0.44356  1.0000
  H   H926      1.0  0.97364  0.05080  0.02718  1.0000
  H   H927      1.0  0.65838  0.06579  0.41404  1.0000
  C   C1157     1.0  0.98463  0.03779  0.01350  1.0000
  H   H928      1.0  0.97103  0.01708  0.31125  1.0000
  C   C1158     1.0  0.74183  0.48708  0.26019  1.0000
  Fe  Fe81      1.0  0.86871  0.45089  0.81804  1.0000
  S   S162      1.0  0.87748  0.41409  0.85060  1.0000
  H   H929      1.0  0.91762  0.34357  0.57254  1.0000
  S   S163      1.0  0.85452  0.46564  0.66878  1.0000
  H   H930      1.0  0.83086  0.34049  0.59579  1.0000
  S   S164      1.0  0.83911  0.45386  0.78328  1.0000
  C   C1159     1.0  0.95781  0.00415  0.90654  1.0000
  C   C1160     1.0  0.78709  0.02497  0.69297  1.0000
  S   S165      1.0  0.81142  0.38329  0.55245  1.0000
  H   H931      1.0  0.86299  0.29790  0.50547  1.0000
  H   H932      1.0  0.78497  0.03405  0.51259  1.0000
  S   S166      1.0  0.89340  0.00704  0.76614  1.0000
  S   S167      1.0  0.84869  0.01728  0.80933  1.0000
  Fe  Fe82      1.0  0.85974  0.00651  0.74796  1.0000
  S   S168      1.0  0.84367  0.02968  0.69790  1.0000
  Fe  Fe83      1.0  0.88197  0.01490  0.82794  1.0000
  S   S169      1.0  0.90091  0.04279  0.86590  1.0000
  H   H933      1.0  0.75566  0.00895  0.61904  1.0000
  C   C1161     1.0  0.89203  0.43673  0.91929  1.0000
  C   C1162     1.0  0.78661  0.99448  0.60967  1.0000
  C   C1163     1.0  0.83490  0.44811  0.95742  1.0000
  S   S170      1.0  0.88829  0.46627  0.76862  1.0000
  C   C1164     1.0  0.90068  0.04733  0.91779  1.0000
  C   C1165     1.0  0.91639  0.06217  0.93536  1.0000
  H   H934      1.0  0.92864  0.06978  0.91720  1.0000
  C   C1166     1.0  0.84226  0.03757  0.64640  1.0000
  C   C1167     1.0  0.82694  0.05486  0.63322  1.0000
  C   C1168     1.0  0.82522  0.06180  0.59305  1.0000
  C   C1169     1.0  0.83891  0.05166  0.56510  1.0000
  C   C1170     1.0  0.85412  0.03421  0.57823  1.0000
  C   C1171     1.0  0.85577  0.02717  0.61837  1.0000
  H   H935      1.0  0.81639  0.06315  0.65437  1.0000
  H   H936      1.0  0.81335  0.07510  0.58377  1.0000
  H   H937      1.0  0.86480  0.02607  0.55717  1.0000
  H   H938      1.0  0.86763  0.01387  0.62767  1.0000
  C   C1172     1.0  0.82439  0.45959  0.92581  1.0000
  C   C1173     1.0  0.93013  0.30650  0.58733  1.0000
  H   H939      1.0  0.73489  0.39585  0.50924  1.0000
  C   C1174     1.0  0.84192  0.42262  0.95357  1.0000
  P   P41       1.0  0.87327  0.33689  0.56404  1.0000
  H   H940      1.0  0.97024  0.04167  0.89361  1.0000
  C   C1175     1.0  0.84211  0.44261  0.63715  1.0000
  C   C1176     1.0  0.84408  0.44528  0.59606  1.0000
  C   C1177     1.0  0.83487  0.42749  0.56974  1.0000
  C   C1178     1.0  0.82347  0.40660  0.58407  1.0000
  C   C1179     1.0  0.82149  0.40395  0.62515  1.0000
  C   C1180     1.0  0.83067  0.42176  0.65147  1.0000
  C   C1181     1.0  0.91415  0.32342  0.57757  1.0000
  H   H941      1.0  0.83659  0.42995  0.53836  1.0000
  H   H942      1.0  0.81285  0.38786  0.63677  1.0000
  H   H943      1.0  0.82914  0.41912  0.68285  1.0000
  C   C1182     1.0  0.88777  0.41387  0.89907  1.0000
  C   C1183     1.0  0.89159  0.39023  0.91790  1.0000
  H   H944      1.0  0.88827  0.37242  0.90257  1.0000
  C   C1184     1.0  0.89372  0.34682  0.49317  1.0000
  C   C1185     1.0  0.79706  0.03148  0.76097  1.0000
  C   C1186     1.0  0.87891  0.39720  0.64172  1.0000
  H   H945      1.0  0.93818  0.26753  0.60278  1.0000
  C   C1187     1.0  0.92583  0.28059  0.59483  1.0000
  C   C1188     1.0  0.71387  0.42609  0.52649  1.0000
  H   H946      1.0  0.78197  0.03320  0.66556  1.0000
  Fe  Fe84      1.0  0.85814  0.47215  0.73585  1.0000
  H   H947      1.0  0.85893  0.35305  0.70464  1.0000
  H   H948      1.0  0.87112  0.39835  0.70321  1.0000
  H   H949      1.0  0.85966  0.32651  0.64416  1.0000
  C   C1189     1.0  0.82740  0.42015  0.88806  1.0000
  H   H950      1.0  0.85086  0.41351  0.97649  1.0000
  C   C1190     1.0  0.89377  0.31446  0.57475  1.0000
  H   H951      1.0  0.88905  0.45497  0.90524  1.0000
  H   H952      1.0  0.88412  0.41706  0.64125  1.0000
  C   C1191     1.0  0.83076  0.28957  0.51212  1.0000
  C   C1192     1.0  0.95334  0.02615  0.84451  1.0000
  C   C1193     1.0  0.89967  0.38945  0.95645  1.0000
  H   H953      1.0  0.87277  0.02614  0.92854  1.0000
  H   H954      1.0  0.79200  0.00088  0.90743  1.0000
  H   H955      1.0  0.94450  0.45238  0.95848  1.0000
  H   H956      1.0  0.72251  0.43100  0.55274  1.0000
  C   C1194     1.0  0.82058  0.44556  0.89141  1.0000
  C   C1195     1.0  0.90030  0.43596  0.95758  1.0000
  H   H957      1.0  0.81268  0.45454  0.86698  1.0000
  C   C1196     1.0  0.76885  0.00853  0.59951  1.0000
  C   C1197     1.0  0.84917  0.30200  0.52221  1.0000
  H   H958      1.0  0.81938  0.47948  0.92727  1.0000
  C   C1198     1.0  0.68193  0.48332  0.64264  1.0000
  H   H959      1.0  0.81604  0.00880  0.52948  1.0000
  H   H960      1.0  0.90371  0.45377  0.97276  1.0000
  C   C1199     1.0  0.98353  0.45870  0.85559  1.0000
  C   C1200     1.0  0.69617  0.44004  0.51640  1.0000
  H   H961      1.0  0.78724  0.06183  0.72231  1.0000
  C   C1201     1.0  0.96429  0.48565  0.96679  1.0000
  C   C1202     1.0  0.87156  0.38665  0.67672  1.0000
  C   C1203     1.0  0.96146  0.02547  0.88253  1.0000
  H   H962      1.0  0.93527  0.00613  0.80108  1.0000
  H   H963      1.0  0.84395  0.38928  0.91587  1.0000
  H   H964      1.0  0.90258  0.37115  0.97051  1.0000
  C   C1204     1.0  0.78520  0.02267  0.53929  1.0000
  C   C1205     1.0  0.76821  0.02266  0.56456  1.0000
  H   H965      1.0  0.78821  0.46678  0.75914  1.0000
  H   H966      1.0  0.80388  0.45646  0.69442  1.0000
  S   S171      1.0  0.86421  0.48913  0.84744  1.0000
  C   C1206     1.0  0.90423  0.41237  0.97636  1.0000
  H   H967      1.0  0.90246  0.32940  0.49822  1.0000
  H   H968      1.0  0.85486  0.38323  0.53151  1.0000
  C   C1207     1.0  0.88495  0.03757  0.94162  1.0000
  H   H969      1.0  0.95757  0.13722  0.50188  1.0000
  S   S172      1.0  0.83765  0.05950  0.51353  1.0000
  C   C1208     1.0  0.87912  0.38244  0.60725  1.0000
  C   C1209     1.0  0.86699  0.37711  0.51173  1.0000
  C   C1210     1.0  0.93764  0.48206  0.91666  1.0000
  H   H970      1.0  0.90213  0.25162  0.59919  1.0000
  H   H971      1.0  0.79830  0.28595  0.52427  1.0000
  C   C1211     1.0  0.88950  0.28850  0.58294  1.0000
  H   H972      1.0  0.69147  0.45599  0.53491  1.0000
  C   C1212     1.0  0.78998  0.04136  0.72526  1.0000
  C   C1213     1.0  0.87177  0.35696  0.60749  1.0000
  C   C1214     1.0  0.94844  0.47159  0.94843  1.0000
  C   C1215     1.0  0.86457  0.36120  0.67741  1.0000
  C   C1216     1.0  0.79149  0.99856  0.69615  1.0000
  H   H973      1.0  0.71403  0.47303  0.63716  1.0000
  C   C1217     1.0  0.91615  0.06776  0.97601  1.0000
  H   H974      1.0  0.92292  0.00127  0.96226  1.0000
  H   H975      1.0  0.85290  0.46121  0.58446  1.0000
  H   H976      1.0  0.79869  0.31849  0.57792  1.0000
  H   H977      1.0  0.87384  0.28127  0.58249  1.0000
  H   H978      1.0  0.96438  0.00392  0.93579  1.0000
  H   H979      1.0  0.85975  0.48887  0.93156  1.0000
  C   C1218     1.0  0.81262  0.29525  0.53253  1.0000
  H   H980      1.0  0.95564  0.04292  0.82617  1.0000
  H   H981      1.0  0.92552  0.47105  0.90246  1.0000
  C   C1219     1.0  0.84960  0.32001  0.55313  1.0000
  C   C1220     1.0  0.86485  0.34633  0.64303  1.0000
  H   H982      1.0  0.94582  0.31355  0.58956  1.0000
  C   C1221     1.0  0.90552  0.27162  0.59272  1.0000
  H   H983      1.0  0.97692  0.42401  0.82310  1.0000
  H   H984      1.0  0.67689  0.46370  0.64765  1.0000
  H   H985      1.0  0.79970  0.04423  0.78573  1.0000
  H   H986      1.0  0.80103  0.48726  0.63950  1.0000
  C   C1222     1.0  0.87896  0.35536  0.52052  1.0000
  H   H987      1.0  0.80704  0.99756  0.79195  1.0000
  C   C1223     1.0  0.83127  0.32575  0.57325  1.0000
  C   C1224     1.0  0.80273  0.00837  0.54880  1.0000
  H   H988      1.0  0.75467  0.03391  0.55721  1.0000
  C   C1225     1.0  0.88454  0.04345  0.98217  1.0000
  H   H989      1.0  0.88511  0.39105  0.58074  1.0000
  C   C1226     1.0  0.83798  0.40867  0.91917  1.0000
  C   C1227     1.0  0.72084  0.40621  0.50211  1.0000
  C   C1228     1.0  0.81287  0.31339  0.56296  1.0000
  H   H990      1.0  0.82511  0.40959  0.86087  1.0000
  C   C1229     1.0  0.94172  0.00545  0.83041  1.0000
  H   H991      1.0  0.96748  0.46244  0.86238  1.0000
  H   H992      1.0  0.76889  0.22123  0.49171  1.0000
  C   C1230     1.0  0.80357  0.99453  0.58396  1.0000
  C   C1231     1.0  0.78651  0.48003  0.73475  1.0000
  C   C1232     1.0  0.98886  0.43703  0.83335  1.0000
  C   C1233     1.0  0.70285  0.48858  0.63672  1.0000
  C   C1234     1.0  0.80138  0.00523  0.76438  1.0000
  C   C1235     1.0  0.97956  0.39291  0.98760  1.0000
  C   C1236     1.0  0.79539  0.47427  0.69839  1.0000
  H   H993      1.0  0.69028  0.01650  0.49472  1.0000
  H   H994      1.0  0.75796  0.99130  0.93602  1.0000
  C   C1237     1.0  0.98547  0.43916  0.98860  1.0000
  H   H995      1.0  0.92814  0.07956  0.98887  1.0000
  C   C1238     1.0  0.70335  0.93449  0.35324  1.0000
  C   C1239     1.0  0.68772  0.67463  0.02745  1.0000
  C   C1240     1.0  0.74841  0.98682  0.11765  1.0000
  H   H996      1.0  0.65777  0.98423  0.39514  1.0000
  C   C1241     1.0  0.67016  0.91583  0.36872  1.0000
  H   H997      1.0  0.74843  0.62608  0.02665  1.0000
  C   C1242     1.0  0.70269  0.50722  0.41702  1.0000
  C   C1243     1.0  0.73897  0.87376  0.03547  1.0000
  P   P42       1.0  0.74543  0.95975  0.00450  1.0000
  C   C1244     1.0  0.68701  0.91813  0.34339  1.0000
  H   H998      1.0  0.67826  0.61934  0.13171  1.0000
  H   H999      1.0  0.67835  0.54902  0.19722  1.0000
  H   H1000     1.0  0.75365  0.95070  0.08854  1.0000
  C   C1245     1.0  0.66892  0.51364  0.38851  1.0000
  H   H1001     1.0  0.67412  0.60469  0.05699  1.0000
  H   H1002     1.0  0.76482  0.86756  0.99684  1.0000
  H   H1003     1.0  0.71645  0.93163  0.05378  1.0000
  C   C1246     1.0  0.66779  0.91898  0.06566  1.0000
  C   C1247     1.0  0.78588  0.52237  0.02115  1.0000
  C   C1248     1.0  0.74299  0.60668  0.02116  1.0000
  P   P43       1.0  0.68486  0.96548  0.45846  1.0000
  H   H1004     1.0  0.95695  0.94975  0.06642  1.0000
  C   C1249     1.0  0.72412  0.98753  0.46468  1.0000
  C   C1250     1.0  0.72534  0.89189  0.05131  1.0000
  H   H1005     1.0  0.75215  0.97930  0.14647  1.0000
  C   C1251     1.0  0.89474  0.50528  0.02050  1.0000
  C   C1252     1.0  0.75707  0.90784  0.00128  1.0000
  C   C1253     1.0  0.94963  0.96095  0.04355  1.0000
  H   H1006     1.0  0.72036  0.53976  0.99417  1.0000
  H   H1007     1.0  0.90463  0.50990  0.04522  1.0000
  H   H1008     1.0  0.66250  0.50563  0.12691  1.0000
  C   C1254     1.0  0.71076  0.96812  0.47814  1.0000
  C   C1255     1.0  0.95063  0.95266  0.00438  1.0000
  C   C1256     1.0  0.74453  0.98870  0.47788  1.0000
  C   C1257     1.0  0.72772  0.59569  0.04509  1.0000
  C   C1258     1.0  0.71970  0.57143  0.03510  1.0000
  P   P44       1.0  0.71599  0.61447  0.08383  1.0000
  C   C1259     1.0  0.70421  0.59398  0.12034  1.0000
  C   C1260     1.0  0.73471  0.63337  0.11044  1.0000
  C   C1261     1.0  0.75543  0.62557  0.11236  1.0000
  C   C1262     1.0  0.76977  0.64020  0.13358  1.0000
  C   C1263     1.0  0.76345  0.66245  0.15348  1.0000
  C   C1264     1.0  0.74275  0.66995  0.15251  1.0000
  C   C1265     1.0  0.72838  0.65536  0.13134  1.0000
  C   C1266     1.0  0.68578  0.60136  0.13897  1.0000
  H   H1009     1.0  0.66989  0.87839  0.07737  1.0000
  C   C1267     1.0  0.68592  0.56183  0.17663  1.0000
  C   C1268     1.0  0.70455  0.55470  0.15910  1.0000
  C   C1269     1.0  0.71381  0.57084  0.13137  1.0000
  C   C1270     1.0  0.69720  0.63458  0.05962  1.0000
  C   C1271     1.0  0.67779  0.62445  0.05003  1.0000
  H   H1010     1.0  0.66052  0.88264  0.14794  1.0000
  C   C1272     1.0  0.68971  0.52042  0.39123  1.0000
  H   H1011     1.0  0.71621  0.93671  0.33320  1.0000
  C   C1273     1.0  0.70229  0.65960  0.04732  1.0000
  H   H1012     1.0  0.69170  0.69379  0.01734  1.0000
  H   H1013     1.0  0.80887  0.55008  0.03851  1.0000
  H   H1014     1.0  0.71252  0.88568  0.06939  1.0000
  H   H1015     1.0  0.67629  0.51557  0.06033  1.0000
  H   H1016     1.0  0.70695  0.56326  0.05139  1.0000
  H   H1017     1.0  0.76051  0.60818  0.09764  1.0000
  H   H1018     1.0  0.78579  0.63427  0.13465  1.0000
  H   H1019     1.0  0.77458  0.67382  0.16984  1.0000
  H   H1020     1.0  0.73780  0.68708  0.16821  1.0000
  H   H1021     1.0  0.71233  0.66123  0.13124  1.0000
  C   C1274     1.0  0.80603  0.53046  0.02899  1.0000
  H   H1022     1.0  0.70274  0.97648  0.01806  1.0000
  H   H1023     1.0  0.78758  0.94718  0.02749  1.0000
  H   H1024     1.0  0.71157  0.53642  0.16649  1.0000
  H   H1025     1.0  0.72822  0.56503  0.11799  1.0000
  C   C1275     1.0  0.66964  0.92983  0.40386  1.0000
  H   H1026     1.0  0.73680  0.85345  0.04144  1.0000
  C   C1276     1.0  0.68603  0.94619  0.41415  1.0000
  C   C1277     1.0  0.78221  0.49718  0.00835  1.0000
  H   H1027     1.0  0.71548  0.96141  0.39505  1.0000
  C   C1278     1.0  0.72764  0.91799  0.04242  1.0000
  H   H1028     1.0  0.71756  0.66736  0.05225  1.0000
  H   H1029     1.0  0.95888  0.93514  0.99758  1.0000
  H   H1030     1.0  0.65696  0.67623  0.00357  1.0000
  S   S173      1.0  0.67437  0.91726  0.01445  1.0000
  C   C1279     1.0  0.70287  0.94849  0.38844  1.0000
  C   C1280     1.0  0.72729  0.55798  0.00251  1.0000
  H   H1031     1.0  0.71887  0.51227  0.41881  1.0000
  H   H1032     1.0  0.82160  0.95792  0.99893  1.0000
  H   H1033     1.0  0.74063  0.50752  0.26630  1.0000
  H   H1034     1.0  0.83807  0.52022  0.02952  1.0000
  C   C1281     1.0  0.67663  0.58522  0.16679  1.0000
  C   C1282     1.0  0.66537  0.52859  0.07391  1.0000
  S   S174      1.0  0.67019  0.55735  0.00563  1.0000
  C   C1283     1.0  0.75479  0.88173  0.01037  1.0000
  H   H1035     1.0  0.69572  0.53582  0.37313  1.0000
  C   C1284     1.0  0.66106  0.89965  0.12977  1.0000
  H   H1036     1.0  0.77310  0.53568  0.02461  1.0000
  H   H1037     1.0  0.68713  0.90775  0.31569  1.0000
  C   C1285     1.0  0.66813  0.66468  0.01939  1.0000
  C   C1286     1.0  0.74376  0.92623  0.01794  1.0000
  C   C1287     1.0  0.82257  0.51343  0.02381  1.0000
  C   C1288     1.0  0.66324  0.63951  0.03032  1.0000
  C   C1289     1.0  0.66656  0.89718  0.08965  1.0000
  C   C1290     1.0  0.78833  0.95900  0.00136  1.0000
  H   H1038     1.0  0.98286  0.52266  0.03855  1.0000
  C   C1291     1.0  0.74382  0.98009  0.04745  1.0000
  H   H1039     1.0  0.66440  0.96028  0.06462  1.0000
  C   C1292     1.0  0.66345  0.94321  0.08265  1.0000
  H   H1040     1.0  0.67794  0.91192  0.48280  1.0000
  C   C1293     1.0  0.65755  0.94560  0.12262  1.0000
  C   C1294     1.0  0.66106  0.49352  0.41124  1.0000
  H   H1041     1.0  0.66196  0.59038  0.17996  1.0000
  C   C1295     1.0  0.65928  0.55096  0.05343  1.0000
  C   C1296     1.0  0.93914  0.98364  0.05324  1.0000
  H   H1042     1.0  0.65714  0.90381  0.36064  1.0000
  C   C1297     1.0  0.65751  0.52283  0.11181  1.0000
  C   C1298     1.0  0.74907  0.97060  0.08475  1.0000
  H   H1043     1.0  0.65888  0.52395  0.36856  1.0000
  C   C1299     1.0  0.87647  0.49144  0.02641  1.0000
  H   H1044     1.0  0.98963  0.95512  0.11010  1.0000
  H   H1045     1.0  0.80457  0.99017  0.08129  1.0000
  H   H1046     1.0  0.76660  0.49100  0.00183  1.0000
  H   H1047     1.0  0.93844  0.99022  0.08350  1.0000
  C   C1300     1.0  0.67863  0.57638  0.69833  1.0000
  C   C1301     1.0  0.73735  0.94120  0.70551  1.0000
  S   S175      1.0  0.85379  0.51256  0.76036  1.0000
  Fe  Fe85      1.0  0.88263  0.50497  0.79655  1.0000
  S   S176      1.0  0.90705  0.53461  0.81617  1.0000
  H   H1048     1.0  0.94571  0.90244  0.94827  1.0000
  H   H1049     1.0  0.91466  0.52336  0.97792  1.0000
  Fe  Fe86      1.0  0.67732  0.64094  0.91803  1.0000
  Fe  Fe87      1.0  0.71131  0.60042  0.89908  1.0000
  S   S177      1.0  0.68835  0.56809  0.89781  1.0000
  S   S178      1.0  0.74608  0.59770  0.88510  1.0000
  C   C1302     1.0  0.67267  0.76073  0.92634  1.0000
  S   S179      1.0  0.69142  0.62639  0.86202  1.0000
  H   H1050     1.0  0.70820  0.70026  0.92918  1.0000
  Fe  Fe88      1.0  0.88957  0.96506  0.78164  1.0000
  S   S180      1.0  0.91220  0.93085  0.77532  1.0000
  Fe  Fe89      1.0  0.84678  0.97447  0.82071  1.0000
  S   S181      1.0  0.82294  0.95433  0.86097  1.0000
  S   S182      1.0  0.85646  0.96356  0.75921  1.0000
  S   S183      1.0  0.87950  0.97331  0.84350  1.0000
  H   H1051     1.0  0.69079  0.63757  0.72590  1.0000
  S   S184      1.0  0.69104  0.85178  0.86353  1.0000
  Fe  Fe90      1.0  0.69329  0.83627  0.92522  1.0000
  Fe  Fe91      1.0  0.70747  0.88717  0.88713  1.0000
  S   S185      1.0  0.73069  0.90889  0.84757  1.0000
  S   S186      1.0  0.67749  0.90663  0.90351  1.0000
  C   C1303     1.0  0.79748  0.94110  0.85621  1.0000
  C   C1304     1.0  0.78586  0.94336  0.82173  1.0000
  C   C1305     1.0  0.76560  0.93332  0.81972  1.0000
  C   C1306     1.0  0.75662  0.92055  0.85193  1.0000
  C   C1307     1.0  0.76835  0.91785  0.88626  1.0000
  C   C1308     1.0  0.78853  0.92822  0.88845  1.0000
  H   H1052     1.0  0.79246  0.95284  0.79662  1.0000
  H   H1053     1.0  0.75682  0.93543  0.79294  1.0000
  H   H1054     1.0  0.76179  0.90785  0.91108  1.0000
  H   H1055     1.0  0.79731  0.92618  0.91529  1.0000
  C   C1309     1.0  0.72627  0.93250  0.67283  1.0000
  C   C1310     1.0  0.97486  0.94332  0.76938  1.0000
  C   C1311     1.0  0.95331  0.94763  0.77043  1.0000
  C   C1312     1.0  0.93971  0.92720  0.77744  1.0000
  C   C1313     1.0  0.94815  0.90259  0.78454  1.0000
  C   C1314     1.0  0.96973  0.89835  0.78406  1.0000
  H   H1056     1.0  0.74806  0.58161  0.78925  1.0000
  H   H1057     1.0  0.94719  0.96655  0.76429  1.0000
  H   H1058     1.0  0.93788  0.88656  0.78985  1.0000
  H   H1059     1.0  0.74823  0.55874  0.95338  1.0000
  C   C1315     1.0  0.78791  0.52954  0.84744  1.0000
  C   C1316     1.0  0.76686  0.52546  0.85565  1.0000
  C   C1317     1.0  0.75394  0.54590  0.86781  1.0000
  C   C1318     1.0  0.76183  0.57089  0.87143  1.0000
  C   C1319     1.0  0.78294  0.57492  0.86369  1.0000
  C   C1320     1.0  0.79594  0.55437  0.85212  1.0000
  Fe  Fe92      1.0  0.66158  0.87035  0.88401  1.0000
  H   H1060     1.0  0.73781  0.54236  0.87389  1.0000
  H   H1061     1.0  0.78928  0.59410  0.86657  1.0000
  H   H1062     1.0  0.81213  0.55777  0.84672  1.0000
  C   C1321     1.0  0.97422  0.55420  0.77990  1.0000
  C   C1322     1.0  0.96350  0.53396  0.76118  1.0000
  C   C1323     1.0  0.94317  0.52732  0.77228  1.0000
  C   C1324     1.0  0.93312  0.54105  0.80210  1.0000
  C   C1325     1.0  0.94386  0.56113  0.82109  1.0000
  C   C1326     1.0  0.96426  0.56759  0.81026  1.0000
  H   H1063     1.0  0.97096  0.52344  0.73763  1.0000
  H   H1064     1.0  0.93520  0.51182  0.75734  1.0000
  H   H1065     1.0  0.93623  0.57208  0.84395  1.0000
  H   H1066     1.0  0.97195  0.58354  0.82449  1.0000
  C   C1327     1.0  0.86519  0.55520  0.66333  1.0000
  C   C1328     1.0  0.87699  0.53308  0.66972  1.0000
  C   C1329     1.0  0.89358  0.53383  0.69590  1.0000
  C   C1330     1.0  0.89846  0.55674  0.71546  1.0000
  C   C1331     1.0  0.88696  0.57921  0.70875  1.0000
  C   C1332     1.0  0.87007  0.57819  0.68287  1.0000
  P   P45       1.0  0.89289  0.60834  0.73586  1.0000
  C   C1333     1.0  0.88383  0.63601  0.70875  1.0000
  C   C1334     1.0  0.87999  0.60770  0.78299  1.0000
  C   C1335     1.0  0.87349  0.58429  0.79930  1.0000
  C   C1336     1.0  0.86361  0.58381  0.83582  1.0000
  C   C1337     1.0  0.85990  0.60676  0.85616  1.0000
  C   C1338     1.0  0.86621  0.63022  0.84007  1.0000
  C   C1339     1.0  0.87626  0.63071  0.80367  1.0000
  C   C1340     1.0  0.86303  0.64351  0.71128  1.0000
  C   C1341     1.0  0.85599  0.66517  0.69095  1.0000
  C   C1342     1.0  0.86962  0.67946  0.66785  1.0000
  C   C1343     1.0  0.89029  0.67201  0.66492  1.0000
  C   C1344     1.0  0.89739  0.65035  0.68520  1.0000
  C   C1345     1.0  0.92053  0.61132  0.74251  1.0000
  C   C1346     1.0  0.92863  0.62429  0.77538  1.0000
  C   C1347     1.0  0.94996  0.62744  0.77955  1.0000
  C   C1348     1.0  0.98935  0.89352  0.89457  1.0000
  C   C1349     1.0  0.95548  0.60444  0.71854  1.0000
  C   C1350     1.0  0.93416  0.60161  0.71392  1.0000
  H   H1067     1.0  0.92854  0.96858  0.84293  1.0000
  H   H1068     1.0  0.67650  0.97221  0.90254  1.0000
  H   H1069     1.0  0.90245  0.51652  0.70156  1.0000
  H   H1070     1.0  0.91113  0.55686  0.73615  1.0000
  H   H1071     1.0  0.86062  0.59497  0.67771  1.0000
  H   H1072     1.0  0.87609  0.56628  0.78408  1.0000
  H   H1073     1.0  0.85898  0.56551  0.84835  1.0000
  H   H1074     1.0  0.85224  0.60632  0.88447  1.0000
  H   H1075     1.0  0.86346  0.64801  0.85598  1.0000
  H   H1076     1.0  0.88125  0.64902  0.79181  1.0000
  H   H1077     1.0  0.85227  0.63261  0.72900  1.0000
  H   H1078     1.0  0.83997  0.67098  0.69324  1.0000
  H   H1079     1.0  0.86420  0.69635  0.65229  1.0000
  H   H1080     1.0  0.90088  0.68313  0.64707  1.0000
  H   H1081     1.0  0.91347  0.64502  0.68252  1.0000
  H   H1082     1.0  0.91862  0.63196  0.79793  1.0000
  H   H1083     1.0  0.97995  0.61925  0.75499  1.0000
  H   H1084     1.0  0.87312  0.51521  0.65484  1.0000
  H   H1085     1.0  0.96601  0.59619  0.69718  1.0000
  H   H1086     1.0  0.92840  0.59175  0.68807  1.0000
  H   H1087     1.0  0.72315  0.74432  0.93481  1.0000
  C   C1351     1.0  0.66767  0.92416  0.49965  1.0000
  C   C1352     1.0  0.93776  0.98426  0.85448  1.0000
  H   H1088     1.0  0.85216  0.55438  0.64343  1.0000
  C   C1353     1.0  0.82076  0.90948  0.65401  1.0000
  H   H1089     1.0  0.74474  0.93602  0.53694  1.0000
  C   C1354     1.0  0.73209  0.59235  0.63556  1.0000
  C   C1355     1.0  0.70888  0.52800  0.76214  1.0000
  H   H1090     1.0  0.65961  0.67153  0.82905  1.0000
  C   C1356     1.0  0.68463  0.62198  0.70814  1.0000
  C   C1357     1.0  0.80828  0.95364  0.65542  1.0000
  C   C1358     1.0  0.72738  0.52990  0.74114  1.0000
  C   C1359     1.0  0.73365  0.93733  0.63496  1.0000
  H   H1091     1.0  0.72511  0.93037  0.60969  1.0000
  C   C1360     1.0  0.79897  0.98894  0.73195  1.0000
  H   H1092     1.0  0.82377  0.98445  0.93859  1.0000
  H   H1093     1.0  0.76045  0.50633  0.85245  1.0000
  H   H1094     1.0  0.70012  0.55341  0.62459  1.0000
  H   H1095     1.0  0.97866  0.95601  0.87454  1.0000
  S   S187      1.0  0.66502  0.68261  0.92127  1.0000
  C   C1361     1.0  0.81593  0.60235  0.77641  1.0000
  C   C1362     1.0  0.69821  0.71695  0.92837  1.0000
  C   C1363     1.0  0.68977  0.97067  0.92176  1.0000
  S   S188      1.0  0.70555  0.79519  0.93571  1.0000
  H   H1096     1.0  0.73176  0.93714  0.73493  1.0000
  C   C1364     1.0  0.94556  0.98360  0.89294  1.0000
  H   H1097     1.0  0.69785  0.51302  0.75508  1.0000
  H   H1098     1.0  0.71206  0.92183  0.67699  1.0000
  C   C1365     1.0  0.75571  0.95494  0.70040  1.0000
  H   H1099     1.0  0.71550  0.57829  0.82516  1.0000
  C   C1366     1.0  0.73699  0.57712  0.66811  1.0000
  S   S189      1.0  0.66283  0.85297  0.94499  1.0000
  H   H1100     1.0  0.78037  0.60153  0.59905  1.0000
  C   C1367     1.0  0.81917  0.57611  0.76967  1.0000
  C   C1368     1.0  0.76824  0.59458  0.61821  1.0000
  C   C1369     1.0  0.78435  0.57192  0.74379  1.0000
  H   H1101     1.0  0.83367  0.56722  0.77763  1.0000
  H   H1102     1.0  0.81772  0.88899  0.65220  1.0000
  H   H1103     1.0  0.82796  0.61391  0.78975  1.0000
  C   C1370     1.0  0.72392  0.96509  0.97182  1.0000
  C   C1371     1.0  0.96072  0.93214  0.91415  1.0000
  H   H1104     1.0  0.73961  0.95077  0.91997  1.0000
  P   P46       1.0  0.94105  0.95604  0.92403  1.0000
  H   H1105     1.0  0.76405  0.96118  0.72625  1.0000
  C   C1372     1.0  0.80345  0.56089  0.75382  1.0000
  C   C1373     1.0  0.75208  0.95094  0.62976  1.0000
  H   H1106     1.0  0.75781  0.95412  0.60032  1.0000
  C   C1374     1.0  0.77490  0.52139  0.70971  1.0000
  C   C1375     1.0  0.78140  0.59847  0.74975  1.0000
  C   C1376     1.0  0.74179  0.54925  0.75038  1.0000
  C   C1377     1.0  0.77015  0.96762  0.98314  1.0000
  H   H1107     1.0  0.72467  0.57106  0.68737  1.0000
  H   H1108     1.0  0.76202  0.60188  0.96956  1.0000
  C   C1378     1.0  0.77624  0.50342  0.74037  1.0000
  C   C1379     1.0  0.74768  0.60094  0.61048  1.0000
  C   C1380     1.0  0.91651  0.94130  0.91207  1.0000
  C   C1381     1.0  0.89867  0.94690  0.93401  1.0000
  C   C1382     1.0  0.87991  0.93493  0.92482  1.0000
  C   C1383     1.0  0.87877  0.91741  0.89362  1.0000
  C   C1384     1.0  0.89641  0.91179  0.87163  1.0000
  C   C1385     1.0  0.91518  0.92364  0.88078  1.0000
  C   C1386     1.0  0.73731  0.56669  0.78082  1.0000
  H   H1109     1.0  0.78887  0.91985  0.64906  1.0000
  P   P47       1.0  0.78740  0.97672  0.65539  1.0000
  C   C1387     1.0  0.84101  0.91825  0.65880  1.0000
  H   H1110     1.0  0.67299  0.98159  0.97381  1.0000
  H   H1111     1.0  0.97116  0.86867  0.93127  1.0000
  C   C1388     1.0  0.70455  0.54553  0.79229  1.0000
  H   H1112     1.0  0.80299  0.96879  0.73483  1.0000
  C   C1389     1.0  0.77322  0.57967  0.65105  1.0000
  H   H1113     1.0  0.70869  0.93397  0.51439  1.0000
  C   C1390     1.0  0.67393  0.52887  0.63632  1.0000
  C   C1391     1.0  0.94090  0.96692  0.97465  1.0000
  S   S190      1.0  0.71170  0.87063  0.94770  1.0000
  C   C1392     1.0  0.70665  0.74201  0.93153  1.0000
  C   C1393     1.0  0.66773  0.95100  0.49421  1.0000
  P   P48       1.0  0.76446  0.55302  0.71996  1.0000
  H   H1114     1.0  0.98507  0.95918  0.76274  1.0000
  H   H1115     1.0  0.86405  0.90901  0.88548  1.0000
  H   H1116     1.0  0.89542  0.89902  0.84640  1.0000
  H   H1117     1.0  0.92852  0.91946  0.86263  1.0000
  H   H1118     1.0  0.86060  0.95152  0.66587  1.0000
  H   H1119     1.0  0.66291  0.67350  0.59803  1.0000
  H   H1120     1.0  0.86604  0.93992  0.94087  1.0000
  H   H1121     1.0  0.70989  0.95656  0.87604  1.0000
  C   C1394     1.0  0.68784  0.97612  0.96184  1.0000
  H   H1122     1.0  0.96294  0.53911  0.90843  1.0000
  C   C1395     1.0  0.79703  0.61352  0.76648  1.0000
  C   C1396     1.0  0.86935  0.49331  0.95662  1.0000
  H   H1123     1.0  0.69495  0.59259  0.74777  1.0000
  H   H1124     1.0  0.74387  0.61281  0.58534  1.0000
  C   C1397     1.0  0.72548  0.95870  0.93183  1.0000
  Fe  Fe93      1.0  0.67492  0.58585  0.95348  1.0000
  H   H1125     1.0  0.71619  0.59783  0.63015  1.0000
  Fe  Fe94      1.0  0.68083  0.88835  0.96348  1.0000
  H   H1126     1.0  0.80640  0.54053  0.74990  1.0000
  C   C1398     1.0  0.66749  0.50338  0.64247  1.0000
  C   C1399     1.0  0.76309  0.96024  0.66242  1.0000
  H   H1127     1.0  0.98206  0.52105  0.96436  1.0000
  C   C1400     1.0  0.71839  0.94954  0.50431  1.0000
  C   C1401     1.0  0.97302  0.88802  0.91998  1.0000
  C   C1402     1.0  0.80442  0.92709  0.65226  1.0000
  H   H1128     1.0  0.68067  0.80517  0.78619  1.0000
  H   H1129     1.0  0.81764  0.98439  0.59106  1.0000
  C   C1403     1.0  0.97713  0.93741  0.88841  1.0000
  C   C1404     1.0  0.88760  0.50714  0.95076  1.0000
  C   C1405     1.0  0.73887  0.95064  0.51726  1.0000
  C   C1406     1.0  0.67371  0.62728  0.67374  1.0000
  H   H1130     1.0  0.69014  0.54431  0.80846  1.0000
  C   C1407     1.0  0.75191  0.97028  0.50420  1.0000
  C   C1408     1.0  0.67688  0.71362  0.92457  1.0000
  C   C1409     1.0  0.69400  0.76410  0.93040  1.0000
  S   S191      1.0  0.69905  0.61744  0.95583  1.0000
  C   C1410     1.0  0.68712  0.59656  0.72033  1.0000
  H   H1131     1.0  0.67601  0.77230  0.83813  1.0000
  C   C1411     1.0  0.84494  0.94463  0.66168  1.0000
  H   H1132     1.0  0.79439  0.63382  0.77208  1.0000
  C   C1412     1.0  0.82866  0.96223  0.66017  1.0000
  Fe  Fe95      1.0  0.66749  0.59509  0.86392  1.0000
  H   H1133     1.0  0.97584  0.87924  0.78896  1.0000
  C   C1413     1.0  0.69494  0.53393  0.62992  1.0000
  C   C1414     1.0  0.96338  0.61747  0.75120  1.0000
  H   H1134     1.0  0.76693  0.60751  0.74177  1.0000
  C   C1415     1.0  0.66500  0.60719  0.65173  1.0000
  C   C1416     1.0  0.70935  0.51388  0.63030  1.0000
  H   H1135     1.0  0.78928  0.57550  0.65729  1.0000
  H   H1136     1.0  0.89194  0.51307  0.92132  1.0000
  C   C1417     1.0  0.70858  0.96189  0.90681  1.0000
  H   H1137     1.0  0.95619  0.63725  0.80510  1.0000
  C   C1418     1.0  0.75762  0.57055  0.67602  1.0000
  C   C1419     1.0  0.78353  0.51526  0.67295  1.0000
  C   C1420     1.0  0.79091  0.98958  0.93409  1.0000
  C   C1421     1.0  0.94274  0.50646  0.90255  1.0000
  S   S192      1.0  0.80318  0.50287  0.83138  1.0000
  C   C1422     1.0  0.66266  0.78012  0.82302  1.0000
  C   C1423     1.0  0.95869  0.52043  0.92013  1.0000
  C   C1424     1.0  0.66727  0.58149  0.66401  1.0000
  C   C1425     1.0  0.71877  0.56479  0.80159  1.0000
  C   C1426     1.0  0.96946  0.51009  0.95208  1.0000
  H   H1138     1.0  0.85365  0.90464  0.66075  1.0000
  C   C1427     1.0  0.98328  0.91862  0.77573  1.0000
  C   C1428     1.0  0.95871  0.90722  0.92967  1.0000
  H   H1139     1.0  0.67163  0.64705  0.66471  1.0000
  H   H1140     1.0  0.93450  0.51436  0.87760  1.0000
  H   H1141     1.0  0.78291  0.52866  0.64881  1.0000
  H   H1142     1.0  0.73039  0.51637  0.71753  1.0000
  H   H1143     1.0  0.77020  0.50796  0.76930  1.0000
  H   H1144     1.0  0.89897  0.96079  0.95768  1.0000
  C   C1429     1.0  0.66058  0.55505  0.55484  1.0000
  H   H1145     1.0  0.68051  0.55688  0.70886  1.0000
  C   C1430     1.0  0.66530  0.79866  0.79381  1.0000
  H   H1146     1.0  0.67315  0.54166  0.55895  1.0000
  H   H1147     1.0  0.72557  0.51796  0.62565  1.0000
  C   C1431     1.0  0.77160  0.98359  0.94998  1.0000
  H   H1148     1.0  0.76782  0.97106  0.51404  1.0000
  C   C1432     1.0  0.66423  0.73567  0.92381  1.0000
  C   C1433     1.0  0.80888  0.98031  0.95173  1.0000
  C   C1434     1.0  0.74285  0.56875  0.97944  1.0000
  H   H1149     1.0  0.76887  0.91344  0.98053  1.0000
  H   H1150     1.0  0.83194  0.98259  0.66307  1.0000
  Fe  Fe96      1.0  0.83602  0.49380  0.80944  1.0000
  H   H1151     1.0  0.66268  0.77742  0.92585  1.0000
  C   C1435     1.0  0.75070  0.59308  0.98876  1.0000
  C   C1436     1.0  0.90038  0.51296  0.98264  1.0000
  H   H1152     1.0  0.66342  0.55404  0.49160  1.0000
  C   C1437     1.0  0.70482  0.97327  0.98685  1.0000
  C   C1438     1.0  0.79378  0.49176  0.66743  1.0000
  C   C1439     1.0  0.93055  0.98985  0.98468  1.0000
  C   C1440     1.0  0.80761  0.96519  0.98553  1.0000
