data_image0
_chemical_formula_structural       HCH2C4HPHC3HCHC7HC2H2CSC2HCHC2H2CHSCHC2H2CHC2H3C2H2C2H3C2HCHC2H4C3HCHFeSHFeS2FeSFeS3FeHSFeHSFeCHS2HC7H3C3HCHC5HCHC6H4SHCHSC3H2C2HCH3C2HCH4C2HC4HCHCHC3HCH2C4HCPC4H2C2H2C2H2C3H3CH2CHC3FeC2H4SHSCHC2H2CH4CHPC3PC3SH3CHCH2C2HC2HFeCHC2FeS2FeS2FeSFeS3FeCS2Fe2S2FeSFeCS2HFeSHC7H2PH2CHC7H4C2HCHC7H6C3HC7H4C3SCH2C3HC3H6C2HCHCHCH3CHCHSHCHC7PC2H5C5H2C2H6SC2H5CHC7HC3H2C2HCHC3H5C3HC2HC2H2CHCPHC2HCH2C2HFeC3H2C3H3C2HCH2CSHSHCSFeSFePHC2H2C6H4C4HCSH3PCHC2HCH3C2SFeHC3H2C3HCH3CFeH2CHCPC3H2SHSC3HCHC2HCHC2HPCHC4PC12H2CH3C2H10CHC2H2CH2CSHC2FeHCSHC2H5C2HC2HC4HCSC6HC2HCH2C2HCHCH4SCHFeH2CH2PHCHC3HC3HCHC3H3C2H2SC2HCH2CHCHCHCPCHC4H3CH2SC2HCH6C2HC6H2C2H4C6H2C2H4CHCH2CHCHC2HC4HCHFeS2FeSHFeHFeS3H2Fe2CSC2SHCSC3HC2HCHC3HCHCH2C6HCH2C7PC5SHC10H6C2HC2HCHSH3SHC2H3CH2FeHCH2CH2CHCH4PC8HC6HC3H2C4H4CHC3HCPHC2HC2HCSCH4CHCHPCHCH2C3HSHC3H2C2HC3HCH2C3H2FeS2FeS2FeSFeS3H3C4HC2HC4H3C6H4C4H3CHC2PHC6HC5HCHCH3C2HC6HCHC2HSH3C3H5C2HC3HC4H2CHC8SC3HPC3H2CH5C2H3C2PHC2HCHCH4C2H3C3SCHC3H2CHPCH5CFeC4H4FeSHFeSHFeSFeS3FeS2FeS2FeSFeS2FeSC6H4C6H4CHSHC3H2C3H2SH3C7PHCHC4H5C5H7CSH2CHCH5C2HC3HCH4CHCHCHCPC2H2C5HC2HCHCH2C6HCHC2H3CFeCHSHC2HCH2CHCHC2H4C2HC2HCHC7HC5H2CH5CHC4H2CHCH3CH2C4HC3HPC2HC2HC3SCHCHC3HC2H4C2SC4H2C2HC3HCSH2CH2C3H2CH2C2HC2HCHC2FeS2FeS2FeSFeS3PFeHSC3H2C3PH2C6H4C5H2C5H2C2HC3HC3PC3SHCH3CSCH2C2HC7HC5H3CH5CH3C2HC3H5CPC2HC3H2C2H2FeCH2CH2C2HCH4C5H4C3HC3H2CHC3HCHC5HCHC4HCH4CH2CH3SH3C2FeS2FeS2FeSFeS3FeS2FeS2FeSFeS2HSC6H4C6H4C2HPHC6HCH2C2HC2SCHCHC4H3CHC3HCH2C4H3C2HFeHCHCHPC9H9C2HC2SC3PCH3CH2CH2CH2CHC2HC3HC4HCHCSCHC3HCH2C2HCHCHC3H3C3H2C2H4CHC2H2CH9CH3C2H2C3HFeH2
_chemical_formula_sum              "H768 C960 P32 S128 Fe64"
_cell_length_a       46.0261
_cell_length_b       60.7592
_cell_length_c       30.5781
_cell_angle_alpha    90.4081
_cell_angle_beta     109.029
_cell_angle_gamma    89.9219

_space_group_name_H-M_alt    "P 1"
_space_group_IT_number       1

loop_
  _space_group_symop_operation_xyz
  'x, y, z'

loop_
  _atom_site_type_symbol
  _atom_site_label
  _atom_site_symmetry_multiplicity
  _atom_site_fract_x
  _atom_site_fract_y
  _atom_site_fract_z
  _atom_site_occupancy
  H   H1        1.0  0.27421  0.28178  0.29599  1.0000
  C   C1        1.0  0.15948  0.22802  0.04983  1.0000
  H   H2        1.0  0.19028  0.26687  0.14866  1.0000
  H   H3        1.0  0.16314  0.17857  0.10258  1.0000
  C   C2        1.0  0.99800  0.03329  0.12062  1.0000
  C   C3        1.0  0.18066  0.28938  0.02021  1.0000
  C   C4        1.0  0.20454  0.28536  0.21186  1.0000
  C   C5        1.0  0.26406  0.20817  0.22452  1.0000
  H   H4        1.0  0.28281  0.27623  0.16481  1.0000
  P   P1        1.0  0.24216  0.23757  0.15152  1.0000
  H   H5        1.0  0.29285  0.21268  0.13529  1.0000
  C   C6        1.0  0.40526  0.26674  0.01868  1.0000
  C   C7        1.0  0.20854  0.26942  0.18110  1.0000
  C   C8        1.0  0.16980  0.19501  0.09609  1.0000
  H   H6        1.0  0.32689  0.18352  0.17954  1.0000
  C   C9        1.0  0.29282  0.28013  0.10177  1.0000
  H   H7        1.0  0.24128  0.22894  0.05622  1.0000
  C   C10       1.0  0.26009  0.25117  0.11444  1.0000
  C   C11       1.0  0.27892  0.26967  0.13041  1.0000
  C   C12       1.0  0.27583  0.28929  0.42784  1.0000
  C   C13       1.0  0.22808  0.28972  0.25334  1.0000
  C   C14       1.0  0.18681  0.23729  0.07874  1.0000
  C   C15       1.0  0.28232  0.30134  0.39268  1.0000
  C   C16       1.0  0.31218  0.30891  0.39920  1.0000
  H   H8        1.0  0.19320  0.25360  0.07150  1.0000
  C   C17       1.0  0.28814  0.27219  0.05700  1.0000
  C   C18       1.0  0.25567  0.24318  0.06946  1.0000
  H   H9        1.0  0.22931  0.29295  0.03366  1.0000
  H   H10       1.0  0.21147  0.19475  0.15378  1.0000
  C   C19       1.0  0.21017  0.29728  0.04507  1.0000
  S   S1        1.0  0.01344  0.01423  0.02109  1.0000
  C   C20       1.0  0.28348  0.19163  0.24945  1.0000
  C   C21       1.0  0.30615  0.18277  0.23330  1.0000
  H   H11       1.0  0.32123  0.16998  0.25272  1.0000
  C   C22       1.0  0.19725  0.20429  0.12506  1.0000
  H   H12       1.0  0.28099  0.18571  0.28140  1.0000
  C   C23       1.0  0.25975  0.26209  0.23362  1.0000
  C   C24       1.0  0.25566  0.27804  0.26428  1.0000
  H   H13       1.0  0.29862  0.28055  0.03476  1.0000
  H   H14       1.0  0.46020  0.15157  0.04956  1.0000
  C   C25       1.0  0.99861  0.05071  0.15083  1.0000
  H   H15       1.0  0.13326  0.28892  0.01700  1.0000
  S   S2        1.0  0.02627  0.12822  0.00379  1.0000
  C   C26       1.0  0.46486  0.18679  0.04683  1.0000
  H   H16       1.0  0.28166  0.25372  0.24217  1.0000
  C   C27       1.0  0.26954  0.25372  0.04084  1.0000
  C   C28       1.0  0.29000  0.20702  0.16712  1.0000
  H   H17       1.0  0.04983  0.17167  0.00065  1.0000
  H   H18       1.0  0.26544  0.24771  0.00590  1.0000
  C   C29       1.0  0.23612  0.25752  0.19188  1.0000
  H   H19       1.0  0.12998  0.19950  0.03549  1.0000
  C   C30       1.0  0.20615  0.22548  0.11618  1.0000
  C   C31       1.0  0.30935  0.19043  0.19211  1.0000
  H   H20       1.0  0.24648  0.21479  0.23739  1.0000
  H   H21       1.0  0.22519  0.30248  0.27651  1.0000
  H   H22       1.0  0.01810  0.06182  0.16119  1.0000
  C   C32       1.0  0.15608  0.29499  0.03557  1.0000
  C   C33       1.0  0.26732  0.21612  0.18333  1.0000
  H   H23       1.0  0.47704  0.18850  0.08355  1.0000
  H   H24       1.0  0.25275  0.28330  0.42212  1.0000
  C   C34       1.0  0.15102  0.20682  0.05832  1.0000
  C   C35       1.0  0.16115  0.30841  0.07531  1.0000
  H   H25       1.0  0.18350  0.29487  0.20278  1.0000
  H   H26       1.0  0.46683  0.22133  0.03380  1.0000
  H   H27       1.0  0.01718  0.03087  0.10796  1.0000
  C   C36       1.0  0.32855  0.29291  0.47715  1.0000
  C   C37       1.0  0.42127  0.28641  0.02014  1.0000
  H   H28       1.0  0.30700  0.29458  0.11424  1.0000
  C   C38       1.0  0.45886  0.20538  0.01855  1.0000
  H   H29       1.0  0.45453  0.30332  0.99688  1.0000
  C   C39       1.0  0.45542  0.16599  0.02769  1.0000
  C   C40       1.0  0.40990  0.24888  0.99255  1.0000
  H   H30       1.0  0.26430  0.30458  0.36046  1.0000
  H   H31       1.0  0.41789  0.30024  0.04062  1.0000
  H   H32       1.0  0.14508  0.23725  0.02053  1.0000
  H   H33       1.0  0.38945  0.26531  0.03814  1.0000
  C   C41       1.0  0.33516  0.30463  0.44174  1.0000
  C   C42       1.0  0.29883  0.28509  0.47046  1.0000
  C   C43       1.0  0.44184  0.28819  0.99540  1.0000
  H   H34       1.0  0.39763  0.23364  0.99225  1.0000
  C   C44       1.0  0.21532  0.31035  0.08509  1.0000
  H   H35       1.0  0.35836  0.31029  0.44725  1.0000
  Fe  Fe1       1.0  0.13931  0.25121  0.91920  1.0000
  S   S3        1.0  0.16134  0.22302  0.89279  1.0000
  H   H36       1.0  0.30411  0.28981  0.79636  1.0000
  Fe  Fe2       1.0  0.07581  0.24121  0.84652  1.0000
  S   S4        1.0  0.09496  0.21406  0.81503  1.0000
  S   S5        1.0  0.02419  0.24828  0.81721  1.0000
  Fe  Fe3       1.0  0.11856  0.20379  0.88848  1.0000
  S   S6        1.0  0.11668  0.16715  0.90319  1.0000
  Fe  Fe4       1.0  0.13590  0.23586  0.82208  1.0000
  S   S7        1.0  0.15424  0.24138  0.76142  1.0000
  S   S8        1.0  0.09856  0.23065  0.92065  1.0000
  S   S9        1.0  0.11461  0.26441  0.84785  1.0000
  Fe  Fe5       1.0  0.37379  0.26198  0.67568  1.0000
  H   H37       1.0  0.46720  0.19369  0.80256  1.0000
  S   S10       1.0  0.42500  0.25408  0.69105  1.0000
  Fe  Fe6       1.0  0.30999  0.26024  0.68907  1.0000
  H   H38       1.0  0.02833  0.20487  0.77680  1.0000
  S   S11       1.0  0.28871  0.24672  0.74202  1.0000
  Fe  Fe7       1.0  0.31511  0.27045  0.59230  1.0000
  C   C45       1.0  0.13790  0.16841  0.79335  1.0000
  H   H39       1.0  0.37068  0.23994  0.90743  1.0000
  S   S12       1.0  0.33102  0.24172  0.64178  1.0000
  S   S13       1.0  0.35392  0.27874  0.72547  1.0000
  H   H40       1.0  0.15336  0.16251  0.82608  1.0000
  C   C46       1.0  0.42553  0.29365  0.83334  1.0000
  C   C47       1.0  0.45439  0.23801  0.73056  1.0000
  C   C48       1.0  0.44807  0.22040  0.75537  1.0000
  C   C49       1.0  0.36609  0.29377  0.89375  1.0000
  C   C50       1.0  0.12886  0.18982  0.72367  1.0000
  C   C51       1.0  0.00968  0.15853  0.87110  1.0000
  C   C52       1.0  0.08713  0.11157  0.70109  1.0000
  H   H41       1.0  0.42449  0.21640  0.75124  1.0000
  H   H42       1.0  0.44457  0.25227  0.85862  1.0000
  H   H43       1.0  0.04943  0.15380  0.65150  1.0000
  C   C53       1.0  0.48525  0.24274  0.73575  1.0000
  C   C54       1.0  0.38267  0.20711  0.80553  1.0000
  C   C55       1.0  0.01237  0.12449  0.81016  1.0000
  H   H44       1.0  0.35571  0.27457  0.83073  1.0000
  C   C56       1.0  0.44637  0.27049  0.96889  1.0000
  H   H45       1.0  0.09767  0.15555  0.80514  1.0000
  C   C57       1.0  0.09126  0.15658  0.93095  1.0000
  C   C58       1.0  0.08394  0.13401  0.92707  1.0000
  C   C59       1.0  0.06392  0.12510  0.94886  1.0000
  C   C60       1.0  0.01791  0.16116  0.52853  1.0000
  C   C61       1.0  0.37455  0.23066  0.87963  1.0000
  H   H46       1.0  0.13009  0.16453  0.56911  1.0000
  C   C62       1.0  0.03390  0.10500  0.69436  1.0000
  H   H47       1.0  0.42243  0.18012  0.91513  1.0000
  C   C63       1.0  0.25104  0.24559  0.74653  1.0000
  C   C64       1.0  0.24782  0.24175  0.79013  1.0000
  C   C65       1.0  0.21852  0.24050  0.79552  1.0000
  C   C66       1.0  0.19194  0.24302  0.75725  1.0000
  C   C67       1.0  0.19515  0.24687  0.71367  1.0000
  C   C68       1.0  0.22445  0.24810  0.70827  1.0000
  H   H48       1.0  0.26813  0.23976  0.82003  1.0000
  H   H49       1.0  0.21650  0.23752  0.82925  1.0000
  H   H50       1.0  0.17480  0.24875  0.68376  1.0000
  H   H51       1.0  0.22647  0.25069  0.67442  1.0000
  S   S14       1.0  0.29095  0.28693  0.63710  1.0000
  H   H52       1.0  0.02404  0.12602  0.53362  1.0000
  C   C69       1.0  0.46964  0.23207  0.91628  1.0000
  H   H53       1.0  0.04218  0.16470  0.54380  1.0000
  S   S15       1.0  0.35875  0.28925  0.62326  1.0000
  C   C70       1.0  0.44778  0.29833  0.77253  1.0000
  C   C71       1.0  0.40386  0.22266  0.88302  1.0000
  C   C72       1.0  0.10639  0.16438  0.78136  1.0000
  H   H54       1.0  0.43006  0.20457  0.84709  1.0000
  H   H55       1.0  0.11825  0.11646  0.77045  1.0000
  C   C73       1.0  0.02950  0.16441  0.64331  1.0000
  C   C74       1.0  0.00766  0.13936  0.52290  1.0000
  H   H56       1.0  0.17338  0.18517  0.77473  1.0000
  C   C75       1.0  0.14913  0.18113  0.76449  1.0000
  H   H57       1.0  0.10887  0.18933  0.50215  1.0000
  H   H58       1.0  0.04304  0.09121  0.86790  1.0000
  H   H59       1.0  0.38576  0.19810  0.77663  1.0000
  C   C76       1.0  0.19993  0.27998  0.87151  1.0000
  C   C77       1.0  0.02516  0.16177  0.83928  1.0000
  H   H60       1.0  0.41129  0.28433  0.84839  1.0000
  C   C78       1.0  0.35367  0.21513  0.80246  1.0000
  H   H61       1.0  0.46262  0.27243  0.95031  1.0000
  H   H62       1.0  0.38886  0.28699  0.90891  1.0000
  H   H63       1.0  0.13785  0.20051  0.70288  1.0000
  H   H64       1.0  0.05468  0.22233  0.57333  1.0000
  C   C79       1.0  0.09716  0.18581  0.71128  1.0000
  C   C80       1.0  0.34750  0.28678  0.84992  1.0000
  H   H65       1.0  0.07804  0.11256  0.80711  1.0000
  C   C81       1.0  0.09238  0.26483  0.67915  1.0000
  C   C82       1.0  0.11347  0.17703  0.57004  1.0000
  C   C83       1.0  0.10435  0.17936  0.60923  1.0000
  C   C84       1.0  0.02386  0.07676  0.79940  1.0000
  H   H66       1.0  0.00915  0.17152  0.89529  1.0000
  C   C85       1.0  0.03913  0.07628  0.84735  1.0000
  H   H67       1.0  0.18383  0.26977  0.88127  1.0000
  C   C86       1.0  0.42948  0.28635  0.79230  1.0000
  H   H68       1.0  0.09363  0.12339  0.90688  1.0000
  C   C87       1.0  0.08602  0.17313  0.74067  1.0000
  C   C88       1.0  0.34960  0.22686  0.83948  1.0000
  C   C89       1.0  0.02630  0.14489  0.80856  1.0000
  H   H69       1.0  0.11376  0.16831  0.63800  1.0000
  C   C90       1.0  0.04566  0.03681  0.84390  1.0000
  H   H70       1.0  0.05836  0.10777  0.94557  1.0000
  H   H71       1.0  0.23696  0.27390  0.93428  1.0000
  C   C91       1.0  0.05578  0.25719  0.71863  1.0000
  C   C92       1.0  0.05453  0.23517  0.70460  1.0000
  C   C93       1.0  0.07174  0.22786  0.67699  1.0000
  C   C94       1.0  0.08346  0.19592  0.61107  1.0000
  H   H72       1.0  0.48914  0.25951  0.83293  1.0000
  C   C95       1.0  0.07471  0.27202  0.70595  1.0000
  P   P2        1.0  0.07118  0.19913  0.66103  1.0000
  C   C96       1.0  0.10151  0.19100  0.53229  1.0000
  C   C97       1.0  0.09110  0.24281  0.66497  1.0000
  C   C98       1.0  0.04123  0.10736  0.74244  1.0000
  C   C99       1.0  0.49171  0.24941  0.86304  1.0000
  H   H73       1.0  0.10625  0.23737  0.64646  1.0000
  H   H74       1.0  0.32702  0.23322  0.83658  1.0000
  C   C100      1.0  0.09466  0.11339  0.74909  1.0000
  C   C101      1.0  0.43399  0.18231  0.95185  1.0000
  H   H75       1.0  0.10493  0.11322  0.68528  1.0000
  H   H76       1.0  0.34656  0.28957  0.50935  1.0000
  C   C102      1.0  0.07112  0.20963  0.57271  1.0000
  C   C103      1.0  0.47234  0.20748  0.78417  1.0000
  H   H77       1.0  0.07628  0.28893  0.71800  1.0000
  H   H78       1.0  0.10810  0.27608  0.67107  1.0000
  C   C104      1.0  0.19047  0.29090  0.82921  1.0000
  C   C105      1.0  0.31811  0.29559  0.83028  1.0000
  C   C106      1.0  0.23010  0.28217  0.90120  1.0000
  H   H79       1.0  0.33434  0.21241  0.77119  1.0000
  H   H80       1.0  0.06163  0.17102  0.73397  1.0000
  H   H81       1.0  0.16706  0.28890  0.80615  1.0000
  C   C107      1.0  0.02120  0.05718  0.77368  1.0000
  H   H82       1.0  0.04260  0.26261  0.74033  1.0000
  H   H83       1.0  0.06122  0.05613  0.90657  1.0000
  C   C108      1.0  0.03153  0.03723  0.79595  1.0000
  H   H84       1.0  0.04052  0.22381  0.71597  1.0000
  C   C109      1.0  0.46658  0.24540  0.87781  1.0000
  C   C110      1.0  0.40769  0.21086  0.84554  1.0000
  C   C111      1.0  0.07182  0.11128  0.76975  1.0000
  Fe  Fe8       1.0  0.33587  0.30400  0.67059  1.0000
  C   C112      1.0  0.03309  0.18738  0.64515  1.0000
  C   C113      1.0  0.05678  0.10725  0.67375  1.0000
  H   H85       1.0  0.49047  0.25621  0.71659  1.0000
  H   H86       1.0  0.05106  0.10537  0.63665  1.0000
  H   H87       1.0  0.24064  0.29046  0.75536  1.0000
  H   H88       1.0  0.00868  0.21853  0.63145  1.0000
  S   S16       1.0  0.00950  0.06787  0.94386  1.0000
  H   H89       1.0  0.05356  0.02139  0.86133  1.0000
  S   S17       1.0  0.28936  0.26996  0.51396  1.0000
  C   C114      1.0  0.04985  0.05637  0.86945  1.0000
  H   H90       1.0  0.01069  0.10103  0.67289  1.0000
  C   C115      1.0  0.05145  0.13863  0.97547  1.0000
  C   C116      1.0  0.25117  0.29490  0.88813  1.0000
  H   H91       1.0  0.03801  0.14791  0.78381  1.0000
  H   H92       1.0  0.45051  0.29257  0.74049  1.0000
  C   C117      1.0  0.23939  0.30552  0.69169  1.0000
  H   H93       1.0  0.41864  0.27126  0.77589  1.0000
  H   H94       1.0  0.03675  0.17727  0.83916  1.0000
  H   H95       1.0  0.07105  0.21810  0.50432  1.0000
  H   H96       1.0  0.22871  0.29140  0.67087  1.0000
  C   C118      1.0  0.44301  0.20331  0.97091  1.0000
  H   H97       1.0  0.04062  0.99318  0.94994  1.0000
  P   P3        1.0  0.43665  0.22728  0.93442  1.0000
  C   C119      1.0  0.00021  0.15505  0.63196  1.0000
  C   C120      1.0  0.08023  0.20723  0.53354  1.0000
  C   C121      1.0  0.00453  0.20985  0.76544  1.0000
  P   P4        1.0  0.01266  0.10266  0.76995  1.0000
  C   C122      1.0  0.43027  0.25068  0.96706  1.0000
  C   C123      1.0  0.00681  0.20080  0.63213  1.0000
  C   C124      1.0  0.24614  0.30508  0.73965  1.0000
  S   S18       1.0  0.17669  0.27167  0.97206  1.0000
  H   H98       1.0  0.01112  0.05732  0.73638  1.0000
  H   H99       1.0  0.27448  0.29628  0.91154  1.0000
  H   H100      1.0  0.02860  0.02210  0.77604  1.0000
  C   C125      1.0  0.07869  0.17009  0.95742  1.0000
  H   H101      1.0  0.00475  0.19527  0.51890  1.0000
  C   C126      1.0  0.99682  0.17837  0.51440  1.0000
  H   H102      1.0  0.08414  0.18744  0.96082  1.0000
  H   H103      1.0  0.43306  0.14760  0.96527  1.0000
  C   C127      1.0  0.21127  0.30398  0.81639  1.0000
  C   C128      1.0  0.24205  0.30559  0.84518  1.0000
  H   H104      1.0  0.02170  0.98375  0.86636  1.0000
  C   C129      1.0  0.05927  0.16109  0.98006  1.0000
  C   C130      1.0  0.44007  0.16376  0.98023  1.0000
  H   H105      1.0  0.39461  0.30949  0.57280  1.0000
  Fe  Fe9       1.0  0.99865  0.09652  0.98267  1.0000
  C   C131      1.0  0.35529  0.30958  0.91803  1.0000
  H   H106      1.0  0.99745  0.13738  0.63162  1.0000
  C   C132      1.0  0.99644  0.12150  0.84178  1.0000
  C   C133      1.0  0.99627  0.22993  0.78077  1.0000
  Fe  Fe10      1.0  0.22963  0.59285  0.17599  1.0000
  S   S19       1.0  0.27840  0.60501  0.19997  1.0000
  S   S20       1.0  0.18765  0.61312  0.13584  1.0000
  Fe  Fe11      1.0  0.24858  0.54573  0.21385  1.0000
  S   S21       1.0  0.29850  0.55483  0.24008  1.0000
  S   S22       1.0  0.22776  0.51172  0.21590  1.0000
  Fe  Fe12      1.0  0.28295  0.58638  0.26604  1.0000
  S   S23       1.0  0.31054  0.59789  0.33993  1.0000
  Fe  Fe13      1.0  0.28944  0.57268  0.17257  1.0000
  S   S24       1.0  0.31180  0.56459  0.11848  1.0000
  S   S25       1.0  0.23339  0.57604  0.24357  1.0000
  S   S26       1.0  0.24026  0.56167  0.14494  1.0000
  Fe  Fe14      1.0  0.43509  0.58965  0.01135  1.0000
  C   C134      1.0  0.31399  0.62188  0.46665  1.0000
  S   S27       1.0  0.41870  0.60915  0.06268  1.0000
  S   S28       1.0  0.48514  0.58444  0.02014  1.0000
  Fe  Fe15      1.0  0.24423  0.34422  0.19395  1.0000
  Fe  Fe16      1.0  0.28451  0.38376  0.24021  1.0000
  S   S29       1.0  0.32680  0.36239  0.26081  1.0000
  S   S30       1.0  0.29712  0.41943  0.26290  1.0000
  Fe  Fe17      1.0  0.30883  0.34738  0.18976  1.0000
  S   S31       1.0  0.32800  0.33954  0.13143  1.0000
  Fe  Fe18      1.0  0.29793  0.33770  0.28343  1.0000
  C   C135      1.0  0.18118  0.64402  0.31578  1.0000
  S   S32       1.0  0.26856  0.37033  0.16764  1.0000
  S   S33       1.0  0.25629  0.35972  0.26547  1.0000
  H   H107      1.0  0.25336  0.61899  0.34350  1.0000
  Fe  Fe19      1.0  0.45561  0.37371  0.02935  1.0000
  S   S34       1.0  0.45045  0.37370  0.10048  1.0000
  H   H108      1.0  0.35231  0.46915  0.01259  1.0000
  C   C136      1.0  0.42008  0.55690  0.15199  1.0000
  C   C137      1.0  0.41556  0.36535  0.10802  1.0000
  C   C138      1.0  0.41247  0.36680  0.15218  1.0000
  C   C139      1.0  0.38554  0.35940  0.15983  1.0000
  C   C140      1.0  0.36153  0.35040  0.12331  1.0000
  C   C141      1.0  0.36439  0.34935  0.07895  1.0000
  C   C142      1.0  0.39120  0.35691  0.07122  1.0000
  H   H109      1.0  0.43122  0.37328  0.18083  1.0000
  H   H110      1.0  0.38376  0.36003  0.19422  1.0000
  P   P5        1.0  0.29277  0.41788  0.03752  1.0000
  H   H111      1.0  0.39318  0.35590  0.03700  1.0000
  H   H112      1.0  0.35844  0.54796  0.45948  1.0000
  C   C143      1.0  0.32722  0.44378  0.16866  1.0000
  H   H113      1.0  0.40147  0.42705  0.16965  1.0000
  C   C144      1.0  0.29629  0.55035  0.40847  1.0000
  C   C145      1.0  0.24747  0.48623  0.22955  1.0000
  C   C146      1.0  0.27955  0.48505  0.24612  1.0000
  C   C147      1.0  0.29429  0.46447  0.25612  1.0000
  C   C148      1.0  0.27719  0.44482  0.24940  1.0000
  C   C149      1.0  0.24513  0.44601  0.23384  1.0000
  C   C150      1.0  0.23035  0.46662  0.22397  1.0000
  H   H114      1.0  0.29297  0.50003  0.25171  1.0000
  H   H115      1.0  0.31913  0.46375  0.26915  1.0000
  H   H116      1.0  0.23180  0.43107  0.22953  1.0000
  H   H117      1.0  0.20551  0.46737  0.21158  1.0000
  C   C151      1.0  0.29948  0.61054  0.38503  1.0000
  C   C152      1.0  0.32109  0.61159  0.42987  1.0000
  H   H118      1.0  0.28229  0.51129  0.16669  1.0000
  C   C153      1.0  0.27043  0.61984  0.37757  1.0000
  H   H119      1.0  0.34353  0.60430  0.43627  1.0000
  C   C154      1.0  0.30060  0.50814  0.15236  1.0000
  C   C155      1.0  0.33857  0.57993  0.10101  1.0000
  C   C156      1.0  0.34336  0.57382  0.05960  1.0000
  C   C157      1.0  0.36717  0.58331  0.04681  1.0000
  C   C158      1.0  0.38640  0.59905  0.07535  1.0000
  C   C159      1.0  0.38040  0.60628  0.11537  1.0000
  C   C160      1.0  0.35667  0.59659  0.12847  1.0000
  H   H120      1.0  0.32903  0.56123  0.03787  1.0000
  H   H121      1.0  0.37099  0.57817  0.01523  1.0000
  H   H122      1.0  0.39506  0.61864  0.13737  1.0000
  H   H123      1.0  0.35316  0.60138  0.16050  1.0000
  H   H124      1.0  0.47875  0.53775  0.11800  1.0000
  H   H125      1.0  0.30398  0.62898  0.12939  1.0000
  C   C161      1.0  0.24991  0.47685  0.99532  1.0000
  C   C162      1.0  0.36363  0.52448  0.01088  1.0000
  C   C163      1.0  0.24770  0.36054  0.04375  1.0000
  H   H126      1.0  0.34757  0.39046  0.19437  1.0000
  C   C164      1.0  0.28696  0.40530  0.37616  1.0000
  C   C165      1.0  0.27215  0.46041  0.01050  1.0000
  C   C166      1.0  0.08844  0.45435  0.08528  1.0000
  C   C167      1.0  0.41705  0.46533  0.07879  1.0000
  C   C168      1.0  0.43132  0.44476  0.08805  1.0000
  C   C169      1.0  0.24301  0.43141  0.13164  1.0000
  C   C170      1.0  0.31371  0.37547  0.42498  1.0000
  H   H127      1.0  0.32247  0.38649  0.11040  1.0000
  H   H128      1.0  0.44303  0.50697  0.09111  1.0000
  H   H129      1.0  0.42159  0.47562  0.05310  1.0000
  H   H130      1.0  0.23490  0.35400  0.06488  1.0000
  C   C171      1.0  0.31101  0.42101  0.09922  1.0000
  C   C172      1.0  0.27673  0.64006  0.99702  1.0000
  C   C173      1.0  0.28411  0.41626  0.41490  1.0000
  S   S35       1.0  0.28380  0.32060  0.21364  1.0000
  C   C174      1.0  0.18547  0.45021  0.08759  1.0000
  H   H131      1.0  0.37670  0.54118  0.13959  1.0000
  H   H132      1.0  0.04706  0.42748  0.98672  1.0000
  C   C175      1.0  0.29400  0.50720  0.10447  1.0000
  C   C176      1.0  0.37363  0.41393  0.00999  1.0000
  C   C177      1.0  0.18613  0.63232  0.09141  1.0000
  H   H133      1.0  0.44678  0.43942  0.06984  1.0000
  C   C178      1.0  0.24051  0.45409  0.12399  1.0000
  C   C179      1.0  0.36442  0.50333  0.02915  1.0000
  C   C180      1.0  0.17631  0.62496  0.28852  1.0000
  H   H134      1.0  0.18587  0.60820  0.23252  1.0000
  H   H135      1.0  0.16355  0.45786  0.07029  1.0000
  H   H136      1.0  0.17717  0.34147  0.00939  1.0000
  H   H137      1.0  0.04248  0.45828  0.03776  1.0000
  H   H138      1.0  0.27758  0.41251  0.34210  1.0000
  H   H139      1.0  0.09509  0.40618  0.00514  1.0000
  C   C181      1.0  0.09386  0.41991  0.02719  1.0000
  C   C182      1.0  0.40741  0.52088  0.11534  1.0000
  H   H140      1.0  0.13661  0.63304  0.06614  1.0000
  C   C183      1.0  0.33093  0.50602  0.18160  1.0000
  H   H141      1.0  0.40522  0.57031  0.47338  1.0000
  C   C184      1.0  0.19080  0.62248  0.25517  1.0000
  H   H142      1.0  0.37712  0.46343  0.15488  1.0000
  C   C185      1.0  0.34825  0.50184  0.11481  1.0000
  H   H143      1.0  0.41358  0.57123  0.16785  1.0000
  H   H144      1.0  0.27229  0.43193  0.41066  1.0000
  H   H145      1.0  0.32797  0.45958  0.18555  1.0000
  C   C186      1.0  0.45679  0.53802  0.12401  1.0000
  H   H146      1.0  0.33610  0.50740  0.21871  1.0000
  C   C187      1.0  0.33816  0.40481  0.17379  1.0000
  H   H147      1.0  0.32424  0.35934  0.42777  1.0000
  S   S36       1.0  0.19629  0.33321  0.14975  1.0000
  H   H148      1.0  0.33004  0.63267  0.29091  1.0000
  C   C188      1.0  0.35466  0.50286  0.16298  1.0000
  H   H149      1.0  0.31212  0.50463  0.04855  1.0000
  C   C189      1.0  0.44866  0.55627  0.14538  1.0000
  C   C190      1.0  0.13421  0.36195  0.15990  1.0000
  C   C191      1.0  0.15301  0.36738  0.20466  1.0000
  C   C192      1.0  0.17168  0.38609  0.21218  1.0000
  C   C193      1.0  0.17194  0.39917  0.17487  1.0000
  C   C194      1.0  0.15417  0.39325  0.12955  1.0000
  C   C195      1.0  0.13459  0.37493  0.12248  1.0000
  P   P6        1.0  0.15428  0.40994  0.08097  1.0000
  C   C196      1.0  0.11904  0.42551  0.06615  1.0000
  C   C197      1.0  0.18775  0.42750  0.09651  1.0000
  H   H150      1.0  0.30385  0.37631  0.35126  1.0000
  H   H151      1.0  0.30587  0.56674  0.41475  1.0000
  H   H152      1.0  0.16085  0.61228  0.29251  1.0000
  H   H153      1.0  0.26063  0.46452  0.13679  1.0000
  H   H154      1.0  0.43700  0.41521  0.12841  1.0000
  C   C198      1.0  0.06378  0.44911  0.04573  1.0000
  C   C199      1.0  0.23225  0.43381  0.00697  1.0000
  C   C200      1.0  0.11587  0.44245  0.09576  1.0000
  C   C201      1.0  0.15739  0.39318  0.03363  1.0000
  C   C202      1.0  0.16760  0.37129  0.04075  1.0000
  H   H155      1.0  0.24516  0.33044  0.00514  1.0000
  H   H156      1.0  0.30400  0.45630  0.10122  1.0000
  C   C203      1.0  0.21006  0.45030  0.99164  1.0000
  C   C204      1.0  0.27662  0.39046  0.02520  1.0000
  H   H157      1.0  0.12006  0.34729  0.15402  1.0000
  H   H158      1.0  0.15336  0.35695  0.23341  1.0000
  H   H159      1.0  0.18623  0.39031  0.24691  1.0000
  H   H160      1.0  0.18615  0.41376  0.18161  1.0000
  H   H161      1.0  0.12014  0.37033  0.08797  1.0000
  H   H162      1.0  0.20988  0.48114  0.09689  1.0000
  S   S37       1.0  0.32242  0.32342  0.35566  1.0000
  C   C205      1.0  0.15739  0.63963  0.06206  1.0000
  C   C206      1.0  0.19081  0.31609  0.10037  1.0000
  H   H163      1.0  0.46419  0.57017  0.15578  1.0000
  H   H164      1.0  0.23831  0.31599  0.10411  1.0000
  H   H165      1.0  0.13461  0.44645  0.12702  1.0000
  H   H166      1.0  0.17388  0.36396  0.07470  1.0000
  H   H167      1.0  0.39647  0.40760  0.02738  1.0000
  C   C207      1.0  0.26352  0.43873  0.01632  1.0000
  H   H168      1.0  0.21888  0.40071  0.12484  1.0000
  C   C208      1.0  0.27067  0.50826  0.39011  1.0000
  C   C209      1.0  0.27125  0.52176  0.35361  1.0000
  C   C210      1.0  0.28404  0.54278  0.36284  1.0000
  C   C211      1.0  0.39194  0.45853  0.13568  1.0000
  C   C212      1.0  0.15105  0.40240  0.98952  1.0000
  C   C213      1.0  0.28282  0.51582  0.43587  1.0000
  C   C214      1.0  0.42578  0.43106  0.12094  1.0000
  H   H169      1.0  0.29614  0.46465  0.01804  1.0000
  C   C215      1.0  0.21676  0.41817  0.11773  1.0000
  C   C216      1.0  0.29628  0.63222  0.09260  1.0000
  C   C217      1.0  0.31331  0.44174  0.12077  1.0000
  H   H170      1.0  0.44253  0.63960  0.00960  1.0000
  H   H171      1.0  0.28175  0.50513  0.46336  1.0000
  C   C218      1.0  0.27589  0.61767  0.06216  1.0000
  C   C219      1.0  0.40587  0.43783  0.14439  1.0000
  H   H172      1.0  0.35805  0.40580  0.06646  1.0000
  C   C220      1.0  0.35165  0.41300  0.03232  1.0000
  H   H173      1.0  0.27066  0.50988  0.08201  1.0000
  C   C221      1.0  0.31769  0.50422  0.08569  1.0000
  C   C222      1.0  0.26610  0.62154  0.01456  1.0000
  C   C223      1.0  0.21179  0.46347  0.10184  1.0000
  H   H174      1.0  0.26055  0.49200  0.38271  1.0000
  H   H175      1.0  0.26159  0.51601  0.31811  1.0000
  H   H176      1.0  0.28429  0.55334  0.33454  1.0000
  H   H177      1.0  0.08626  0.46756  0.10805  1.0000
  H   H178      1.0  0.22168  0.63652  0.22346  1.0000
  C   C224      1.0  0.25901  0.38207  0.05103  1.0000
  C   C225      1.0  0.28266  0.37692  0.99165  1.0000
  C   C226      1.0  0.29599  0.53693  0.44550  1.0000
  H   H179      1.0  0.37325  0.53829  0.03334  1.0000
  C   C227      1.0  0.39932  0.53952  0.13636  1.0000
  C   C228      1.0  0.43631  0.52043  0.10892  1.0000
  H   H180      1.0  0.37815  0.50185  0.18610  1.0000
  C   C229      1.0  0.31200  0.38677  0.46430  1.0000
  C   C230      1.0  0.30170  0.38491  0.38124  1.0000
  H   H181      1.0  0.35050  0.42692  0.23224  1.0000
  H   H182      1.0  0.25051  0.60991  0.99172  1.0000
  C   C231      1.0  0.32370  0.40261  0.12615  1.0000
  H   H183      1.0  0.25463  0.39205  0.07759  1.0000
  C   C232      1.0  0.32175  0.42072  0.01015  1.0000
  P   P7        1.0  0.37940  0.49938  0.09092  1.0000
  H   H184      1.0  0.37721  0.37784  0.48016  1.0000
  C   C233      1.0  0.33993  0.42537  0.19506  1.0000
  C   C234      1.0  0.39747  0.47256  0.10291  1.0000
  H   H185      1.0  0.26508  0.42419  0.15042  1.0000
  C   C235      1.0  0.28552  0.63216  0.45875  1.0000
  H   H186      1.0  0.34583  0.34253  0.05048  1.0000
  H   H187      1.0  0.26783  0.60324  0.07550  1.0000
  C   C236      1.0  0.26368  0.63080  0.41408  1.0000
  C   C237      1.0  0.29643  0.40698  0.45886  1.0000
  H   H188      1.0  0.25673  0.49357  0.99107  1.0000
  Fe  Fe20      1.0  0.47089  0.54951  0.99650  1.0000
  C   C238      1.0  0.49125  0.47412  0.03341  1.0000
  C   C239      1.0  0.16992  0.35852  0.00381  1.0000
  C   C240      1.0  0.06642  0.43181  0.01687  1.0000
  H   H189      1.0  0.48925  0.32294  0.10680  1.0000
  H   H190      1.0  0.14202  0.31276  0.08684  1.0000
  C   C241      1.0  0.26273  0.57807  0.48097  1.0000
  C   C242      1.0  0.49368  0.49386  0.01118  1.0000
  C   C243      1.0  0.21280  0.64113  0.08601  1.0000
  H   H191      1.0  0.22480  0.41740  0.01166  1.0000
  H   H192      1.0  0.48649  0.47468  0.06579  1.0000
  H   H193      1.0  0.26422  0.57789  0.44641  1.0000
  C   C244      1.0  0.21094  0.63868  0.24992  1.0000
  C   C245      1.0  0.25363  0.34723  0.01023  1.0000
  H   H194      1.0  0.23501  0.63594  0.10875  1.0000
  C   C246      1.0  0.49527  0.45370  0.01421  1.0000
  H   H195      1.0  0.49340  0.43859  0.03159  1.0000
  H   H196      1.0  0.24141  0.63839  0.40758  1.0000
  C   C247      1.0  0.35199  0.48562  0.99915  1.0000
  S   S38       1.0  0.42209  0.55455  0.99356  1.0000
  H   H197      1.0  0.22774  0.60314  0.46386  1.0000
  S   S39       1.0  0.49072  0.51911  0.03814  1.0000
  H   H198      1.0  0.42126  0.35386  0.48417  1.0000
  C   C248      1.0  0.21887  0.47180  0.98597  1.0000
  S   S40       1.0  0.37423  0.59382  0.67751  1.0000
  Fe  Fe21      1.0  0.41410  0.56398  0.92012  1.0000
  S   S41       1.0  0.37010  0.55401  0.86509  1.0000
  Fe  Fe22      1.0  0.47993  0.34848  0.96202  1.0000
  P   P8        1.0  0.31053  0.54734  0.50440  1.0000
  H   H199      1.0  0.39793  0.40170  0.78211  1.0000
  C   C249      1.0  0.34355  0.38201  0.78542  1.0000
  C   C250      1.0  0.33511  0.37247  0.74131  1.0000
  H   H200      1.0  0.33417  0.39782  0.79029  1.0000
  H   H201      1.0  0.31923  0.38094  0.71227  1.0000
  C   C251      1.0  0.37196  0.58152  0.72792  1.0000
  C   C252      1.0  0.39695  0.56939  0.75584  1.0000
  C   C253      1.0  0.39633  0.56080  0.79795  1.0000
  C   C254      1.0  0.37023  0.56354  0.81126  1.0000
  C   C255      1.0  0.34469  0.57482  0.78239  1.0000
  C   C256      1.0  0.34579  0.58421  0.74114  1.0000
  H   H202      1.0  0.41618  0.55235  0.82041  1.0000
  H   H203      1.0  0.32456  0.57708  0.79281  1.0000
  H   H204      1.0  0.32648  0.59365  0.71976  1.0000
  H   H205      1.0  0.16478  0.35763  0.93135  1.0000
  C   C257      1.0  0.38048  0.59150  0.55828  1.0000
  C   C258      1.0  0.36511  0.33767  0.54968  1.0000
  C   C259      1.0  0.39061  0.32445  0.55263  1.0000
  C   C260      1.0  0.30711  0.31158  0.85431  1.0000
  H   H206      1.0  0.33080  0.62221  0.50090  1.0000
  C   C261      1.0  0.35695  0.49888  0.59259  1.0000
  S   S42       1.0  0.44044  0.40227  0.98143  1.0000
  H   H207      1.0  0.22697  0.32863  0.54586  1.0000
  H   H208      1.0  0.33835  0.37540  0.62026  1.0000
  H   H209      1.0  0.42710  0.39283  0.72904  1.0000
  P   P9        1.0  0.32798  0.37477  0.52089  1.0000
  C   C262      1.0  0.29631  0.36018  0.52996  1.0000
  H   H210      1.0  0.43910  0.50738  0.72988  1.0000
  C   C263      1.0  0.34659  0.35183  0.73475  1.0000
  C   C264      1.0  0.37653  0.35091  0.81659  1.0000
  H   H211      1.0  0.29104  0.43472  0.94698  1.0000
  C   C265      1.0  0.49001  0.37324  0.81155  1.0000
  H   H212      1.0  0.35821  0.60578  0.87146  1.0000
  H   H213      1.0  0.15288  0.63807  0.88123  1.0000
  H   H214      1.0  0.28536  0.48831  0.59688  1.0000
  C   C266      1.0  0.29585  0.63277  0.91513  1.0000
  C   C267      1.0  0.40940  0.62111  0.81463  1.0000
  S   S43       1.0  0.37494  0.38439  0.87733  1.0000
  Fe  Fe23      1.0  0.34676  0.62516  0.66226  1.0000
  H   H215      1.0  0.25083  0.60007  0.89417  1.0000
  C   C268      1.0  0.46250  0.31761  0.79393  1.0000
  C   C269      1.0  0.40578  0.34948  0.50288  1.0000
  C   C270      1.0  0.28037  0.56653  0.56103  1.0000
  H   H216      1.0  0.33025  0.43600  0.90780  1.0000
  H   H217      1.0  0.34975  0.33289  0.56833  1.0000
  C   C271      1.0  0.31411  0.42913  0.96515  1.0000
  C   C272      1.0  0.36461  0.37145  0.82297  1.0000
  C   C273      1.0  0.36721  0.34092  0.77246  1.0000
  H   H218      1.0  0.45476  0.52464  0.82314  1.0000
  C   C274      1.0  0.33850  0.51036  0.93362  1.0000
  H   H219      1.0  0.39243  0.34260  0.84579  1.0000
  H   H220      1.0  0.32972  0.62900  0.98355  1.0000
  H   H221      1.0  0.32908  0.51320  0.89668  1.0000
  C   C275      1.0  0.35643  0.41488  0.55494  1.0000
  Fe  Fe24      1.0  0.42194  0.37659  0.92654  1.0000
  H   H222      1.0  0.41728  0.56741  0.74583  1.0000
  H   H223      1.0  0.28115  0.35512  0.76576  1.0000
  C   C276      1.0  0.46149  0.34551  0.71468  1.0000
  H   H224      1.0  0.27000  0.35528  0.68159  1.0000
  C   C277      1.0  0.16300  0.36766  0.95984  1.0000
  P   P10       1.0  0.48569  0.33275  0.76714  1.0000
  C   C278      1.0  0.42945  0.34250  0.69904  1.0000
  C   C279      1.0  0.41112  0.35339  0.65957  1.0000
  C   C280      1.0  0.42446  0.36742  0.63550  1.0000
  H   H225      1.0  0.35044  0.54443  0.94951  1.0000
  H   H226      1.0  0.45781  0.42182  0.70760  1.0000
  S   S44       1.0  0.46485  0.37455  0.90756  1.0000
  H   H227      1.0  0.14840  0.39672  0.91859  1.0000
  S   S45       1.0  0.42347  0.59956  0.93731  1.0000
  C   C281      1.0  0.40432  0.63954  0.83857  1.0000
  C   C282      1.0  0.44087  0.31244  0.85563  1.0000
  C   C283      1.0  0.31971  0.52444  0.54407  1.0000
  H   H228      1.0  0.31281  0.35934  0.85016  1.0000
  C   C284      1.0  0.26891  0.34134  0.74564  1.0000
  H   H229      1.0  0.37627  0.32500  0.76751  1.0000
  C   C285      1.0  0.42788  0.40936  0.74300  1.0000
  C   C286      1.0  0.47469  0.35987  0.69063  1.0000
  H   H230      1.0  0.41015  0.37564  0.60466  1.0000
  C   C287      1.0  0.20163  0.59792  0.86988  1.0000
  H   H231      1.0  0.29599  0.55741  0.58931  1.0000
  C   C288      1.0  0.33618  0.42994  0.94285  1.0000
  C   C289      1.0  0.36013  0.40615  0.64630  1.0000
  H   H232      1.0  0.43869  0.31766  0.88835  1.0000
  P   P11       1.0  0.26615  0.64426  0.93534  1.0000
  C   C290      1.0  0.22963  0.60870  0.89082  1.0000
  H   H233      1.0  0.36841  0.52440  0.55295  1.0000
  C   C291      1.0  0.41131  0.41439  0.77275  1.0000
  C   C292      1.0  0.41210  0.43570  0.79076  1.0000
  C   C293      1.0  0.43056  0.45198  0.78059  1.0000
  C   C294      1.0  0.29029  0.62930  0.86759  1.0000
  P   P12       1.0  0.43235  0.47955  0.80426  1.0000
  C   C295      1.0  0.42385  0.48074  0.85787  1.0000
  C   C296      1.0  0.41250  0.50034  0.87082  1.0000
  C   C297      1.0  0.39088  0.57272  0.49494  1.0000
  C   C298      1.0  0.31289  0.61995  0.85189  1.0000
  C   C299      1.0  0.42612  0.46484  0.93163  1.0000
  C   C300      1.0  0.43142  0.46318  0.88921  1.0000
  C   C301      1.0  0.40559  0.49636  0.76096  1.0000
  C   C302      1.0  0.37479  0.49795  0.75921  1.0000
  C   C303      1.0  0.35461  0.51218  0.72784  1.0000
  C   C304      1.0  0.36488  0.52456  0.69742  1.0000
  C   C305      1.0  0.39522  0.52251  0.69789  1.0000
  C   C306      1.0  0.41551  0.50838  0.72936  1.0000
  H   H234      1.0  0.20139  0.58131  0.85670  1.0000
  H   H235      1.0  0.46050  0.64300  0.76801  1.0000
  C   C307      1.0  0.47046  0.49123  0.81975  1.0000
  H   H236      1.0  0.31777  0.33045  0.91812  1.0000
  H   H237      1.0  0.40786  0.51459  0.84855  1.0000
  H   H238      1.0  0.32983  0.47561  0.92815  1.0000
  C   C308      1.0  0.40798  0.50209  0.91366  1.0000
  C   C309      1.0  0.44470  0.64205  0.78747  1.0000
  H   H239      1.0  0.44246  0.44849  0.88193  1.0000
  H   H240      1.0  0.36660  0.48880  0.78316  1.0000
  H   H241      1.0  0.33129  0.51419  0.72816  1.0000
  H   H242      1.0  0.34958  0.53620  0.67429  1.0000
  H   H243      1.0  0.40321  0.53255  0.67494  1.0000
  H   H244      1.0  0.38233  0.43772  0.66294  1.0000
  H   H245      1.0  0.38651  0.35073  0.64761  1.0000
  H   H246      1.0  0.20330  0.31258  0.78377  1.0000
  H   H247      1.0  0.25661  0.31204  0.49972  1.0000
  H   H248      1.0  0.43346  0.60800  0.77051  1.0000
  C   C310      1.0  0.34657  0.39084  0.61129  1.0000
  H   H249      1.0  0.29372  0.41551  0.48848  1.0000
  C   C311      1.0  0.41465  0.48436  0.94396  1.0000
  C   C312      1.0  0.32451  0.62678  0.94665  1.0000
  H   H250      1.0  0.49434  0.46002  0.82557  1.0000
  H   H251      1.0  0.37953  0.44534  0.58183  1.0000
  C   C313      1.0  0.42953  0.62233  0.78899  1.0000
  H   H252      1.0  0.27604  0.34499  0.95861  1.0000
  H   H253      1.0  0.30919  0.39773  0.87269  1.0000
  C   C314      1.0  0.44622  0.44700  0.74925  1.0000
  S   S46       1.0  0.46192  0.55638  0.92084  1.0000
  H   H254      1.0  0.47239  0.33817  0.85495  1.0000
  C   C315      1.0  0.45966  0.32426  0.83629  1.0000
  C   C316      1.0  0.20217  0.64074  0.90418  1.0000
  Fe  Fe25      1.0  0.47251  0.59186  0.94389  1.0000
  H   H255      1.0  0.41189  0.48612  0.97754  1.0000
  C   C317      1.0  0.45624  0.37067  0.65102  1.0000
  S   S47       1.0  0.33520  0.34082  0.67851  1.0000
  H   H256      1.0  0.46663  0.38145  0.63221  1.0000
  C   C318      1.0  0.37005  0.43022  0.59004  1.0000
  C   C319      1.0  0.24748  0.32379  0.67072  1.0000
  H   H257      1.0  0.36865  0.61234  0.95577  1.0000
  H   H258      1.0  0.38690  0.60342  0.58640  1.0000
  H   H259      1.0  0.29677  0.38262  0.97185  1.0000
  H   H260      1.0  0.41828  0.33191  0.71704  1.0000
  H   H261      1.0  0.26833  0.63356  0.84259  1.0000
  C   C320      1.0  0.33369  0.48869  0.60522  1.0000
  C   C321      1.0  0.47440  0.51401  0.82749  1.0000
  H   H262      1.0  0.39779  0.60590  0.81627  1.0000
  C   C322      1.0  0.26247  0.34159  0.69771  1.0000
  C   C323      1.0  0.34377  0.39534  0.56517  1.0000
  H   H263      1.0  0.30841  0.61740  0.81511  1.0000
  C   C324      1.0  0.35064  0.52800  0.96338  1.0000
  C   C325      1.0  0.26703  0.35052  0.84929  1.0000
  C   C326      1.0  0.35358  0.57918  0.55004  1.0000
  C   C327      1.0  0.37173  0.42591  0.63568  1.0000
  H   H264      1.0  0.33913  0.47509  0.62926  1.0000
  C   C328      1.0  0.34498  0.56358  0.51393  1.0000
  S   S48       1.0  0.29555  0.62574  0.63069  1.0000
  C   C329      1.0  0.17426  0.62988  0.88350  1.0000
  C   C330      1.0  0.29192  0.36492  0.85579  1.0000
  C   C331      1.0  0.28984  0.38683  0.86846  1.0000
  C   C332      1.0  0.26290  0.39454  0.87495  1.0000
  C   C333      1.0  0.23819  0.38023  0.86938  1.0000
  C   C334      1.0  0.24016  0.35830  0.85639  1.0000
  H   H265      1.0  0.49284  0.40499  0.84485  1.0000
  C   C335      1.0  0.41077  0.33024  0.52899  1.0000
  C   C336      1.0  0.15376  0.38965  0.95273  1.0000
  H   H266      1.0  0.45960  0.45953  0.73941  1.0000
  C   C337      1.0  0.24611  0.33757  0.54128  1.0000
  H   H267      1.0  0.39852  0.43926  0.81296  1.0000
  H   H268      1.0  0.18601  0.44648  0.98478  1.0000
  C   C338      1.0  0.24005  0.59378  0.53531  1.0000
  C   C339      1.0  0.35004  0.51670  0.56217  1.0000
  H   H269      1.0  0.22056  0.34759  0.85144  1.0000
  C   C340      1.0  0.36594  0.42246  0.96531  1.0000
  H   H270      1.0  0.27279  0.51945  0.54249  1.0000
  C   C341      1.0  0.34689  0.61720  0.93091  1.0000
  H   H271      1.0  0.26108  0.41160  0.88408  1.0000
  H   H272      1.0  0.21736  0.38616  0.87463  1.0000
  H   H273      1.0  0.39998  0.51744  0.92382  1.0000
  H   H274      1.0  0.36180  0.40248  0.68169  1.0000
  S   S49       1.0  0.43439  0.34818  0.97536  1.0000
  C   C342      1.0  0.34105  0.61363  0.88359  1.0000
  H   H275      1.0  0.38044  0.49317  0.60681  1.0000
  Fe  Fe26      1.0  0.48431  0.39839  0.96622  1.0000
  H   H276      1.0  0.46513  0.37328  0.79873  1.0000
  H   H277      1.0  0.38272  0.42288  0.94743  1.0000
  C   C343      1.0  0.28768  0.33950  0.50923  1.0000
  H   H278      1.0  0.15224  0.60020  0.85006  1.0000
  H   H279      1.0  0.33971  0.58191  0.57216  1.0000
  P   P13       1.0  0.26895  0.32274  0.82908  1.0000
  H   H280      1.0  0.25825  0.58217  0.60529  1.0000
  C   C344      1.0  0.44515  0.42571  0.73096  1.0000
  H   H281      1.0  0.22447  0.60541  0.54300  1.0000
  C   C345      1.0  0.26037  0.32319  0.76699  1.0000
  C   C346      1.0  0.23009  0.63033  0.90763  1.0000
  C   C347      1.0  0.26284  0.32818  0.51521  1.0000
  H   H282      1.0  0.43009  0.31968  0.53065  1.0000
  C   C348      1.0  0.29641  0.51393  0.55651  1.0000
  C   C349      1.0  0.28205  0.56485  0.51603  1.0000
  C   C350      1.0  0.24185  0.59246  0.49066  1.0000
  H   H283      1.0  0.24318  0.32376  0.63376  1.0000
  C   C351      1.0  0.30343  0.49619  0.58712  1.0000
  H   H284      1.0  0.43239  0.45138  0.95591  1.0000
  C   C352      1.0  0.25915  0.58070  0.57040  1.0000
  C   C353      1.0  0.33912  0.48918  0.95147  1.0000
  C   C354      1.0  0.17395  0.60853  0.86614  1.0000
  H   H285      1.0  0.35600  0.41820  0.51997  1.0000
  H   H286      1.0  0.28403  0.38618  0.56963  1.0000
  H   H287      1.0  0.30009  0.33215  0.48827  1.0000
  C   C355      1.0  0.32582  0.31836  0.89858  1.0000
  C   C356      1.0  0.39902  0.58840  0.53056  1.0000
  H   H288      1.0  0.38834  0.63842  0.85770  1.0000
  H   H289      1.0  0.20166  0.48461  0.97458  1.0000
  S   S50       1.0  0.48892  0.61755  0.90299  1.0000
  C   C357      1.0  0.35973  0.35688  0.52300  1.0000
  C   C358      1.0  0.25396  0.35845  0.56099  1.0000
  H   H290      1.0  0.41974  0.59810  0.53686  1.0000
  C   C359      1.0  0.27875  0.36986  0.55493  1.0000
  H   H291      1.0  0.36982  0.31515  0.95183  1.0000
  H   H292      1.0  0.24082  0.36580  0.58092  1.0000
  C   C360      1.0  0.38058  0.36290  0.50032  1.0000
  H   H293      1.0  0.14374  0.41938  0.98354  1.0000
  C   C361      1.0  0.27104  0.35543  0.98410  1.0000
  H   H294      1.0  0.49514  0.62414  0.70063  1.0000
  C   C362      1.0  0.36412  0.56019  0.48688  1.0000
  H   H295      1.0  0.27994  0.74923  0.34911  1.0000
  C   C363      1.0  0.28224  0.72264  0.39638  1.0000
  P   P14       1.0  0.23883  0.67986  0.26606  1.0000
  C   C364      1.0  0.18333  0.69572  0.13571  1.0000
  H   H296      1.0  0.10110  0.84437  0.03531  1.0000
  C   C365      1.0  0.35515  0.69430  0.43416  1.0000
  C   C366      1.0  0.21070  0.65716  0.05195  1.0000
  C   C367      1.0  0.30593  0.67106  0.20631  1.0000
  C   C368      1.0  0.21607  0.65782  0.27726  1.0000
  H   H297      1.0  0.20273  0.67567  0.32943  1.0000
  H   H298      1.0  0.19996  0.71921  0.25972  1.0000
  H   H299      1.0  0.16278  0.73782  0.19327  1.0000
  C   C369      1.0  0.37101  0.77122  0.47683  1.0000
  H   H300      1.0  0.25703  0.72644  0.27904  1.0000
  H   H301      1.0  0.26673  0.69197  0.19514  1.0000
  S   S51       1.0  0.02043  0.81717  0.00893  1.0000
  C   C370      1.0  0.16858  0.71483  0.14292  1.0000
  C   C371      1.0  0.26189  0.71908  0.31284  1.0000
  H   H302      1.0  0.05294  0.86315  0.03209  1.0000
  C   C372      1.0  0.32402  0.65449  0.23339  1.0000
  H   H303      1.0  0.34408  0.64843  0.22593  1.0000
  H   H304      1.0  0.40693  0.65844  0.04309  1.0000
  H   H305      1.0  0.30636  0.66865  0.01494  1.0000
  H   H306      1.0  0.16950  0.64612  0.34108  1.0000
  H   H307      1.0  0.34561  0.65952  0.43402  1.0000
  H   H308      1.0  0.17797  0.68889  0.10112  1.0000
  C   C373      1.0  0.40797  0.66352  0.00970  1.0000
  C   C374      1.0  0.19623  0.71284  0.22520  1.0000
  H   H309      1.0  0.26097  0.66988  0.36513  1.0000
  C   C375      1.0  0.26400  0.68732  0.36112  1.0000
  C   C376      1.0  0.27688  0.70026  0.40067  1.0000
  C   C377      1.0  0.27512  0.73199  0.35247  1.0000
  C   C378      1.0  0.28974  0.65289  0.27894  1.0000
  C   C379      1.0  0.21199  0.69408  0.21797  1.0000
  C   C380      1.0  0.31960  0.77264  0.48199  1.0000
  H   H310      1.0  0.37447  0.68931  0.00080  1.0000
  H   H311      1.0  0.21511  0.67003  0.16681  1.0000
  C   C381      1.0  0.25509  0.69683  0.31697  1.0000
  C   C382      1.0  0.27131  0.66939  0.25168  1.0000
  H   H312      1.0  0.36323  0.72896  0.44312  1.0000
  H   H313      1.0  0.31207  0.67801  0.17799  1.0000
  H   H314      1.0  0.15195  0.72284  0.11378  1.0000
  H   H315      1.0  0.01888  0.97082  0.06007  1.0000
  C   C383      1.0  0.20046  0.66061  0.30953  1.0000
  C   C384      1.0  0.27992  0.67873  0.21580  1.0000
  C   C385      1.0  0.20464  0.68521  0.17308  1.0000
  C   C386      1.0  0.17484  0.72330  0.18769  1.0000
  C   C387      1.0  0.29737  0.65456  0.02785  1.0000
  C   C388      1.0  0.30706  0.65064  0.07547  1.0000
  H   H316      1.0  0.23152  0.66408  0.04868  1.0000
  H   H317      1.0  0.35736  0.69397  0.39994  1.0000
  C   C389      1.0  0.35831  0.71416  0.45879  1.0000
  C   C390      1.0  0.15526  0.65545  0.02752  1.0000
  H   H318      1.0  0.29236  0.73261  0.42704  1.0000
  H   H319      1.0  0.28381  0.64562  0.30714  1.0000
  H   H320      1.0  0.28296  0.69276  0.43461  1.0000
  H   H321      1.0  0.06132  0.96409  0.00780  1.0000
  C   C391      1.0  0.31248  0.79012  0.45075  1.0000
  H   H322      1.0  0.04954  0.77578  0.00618  1.0000
  C   C392      1.0  0.18195  0.66445  0.02249  1.0000
  H   H323      1.0  0.38096  0.79497  0.43162  1.0000
  H   H324      1.0  0.32327  0.66170  0.09903  1.0000
  C   C393      1.0  0.34866  0.67488  0.45335  1.0000
  H   H325      1.0  0.32903  0.81176  0.40850  1.0000
  C   C394      1.0  0.42795  0.65276  0.99072  1.0000
  H   H326      1.0  0.28984  0.79754  0.44082  1.0000
  C   C395      1.0  0.06399  0.86711  0.00680  1.0000
  C   C396      1.0  0.09128  0.85649  0.00871  1.0000
  H   H327      1.0  0.13300  0.66100  0.00545  1.0000
  C   C397      1.0  0.31611  0.64561  0.27000  1.0000
  C   C398      1.0  0.36381  0.78870  0.44562  1.0000
  C   C399      1.0  0.33455  0.79815  0.43257  1.0000
  C   C400      1.0  0.00226  0.96999  0.02565  1.0000
  H   H328      1.0  0.99606  0.93474  0.02756  1.0000
  C   C401      1.0  0.38963  0.68079  0.98576  1.0000
  H   H329      1.0  0.01338  0.70573  0.99109  1.0000
  Fe  Fe27      1.0  0.08086  0.70460  0.84362  1.0000
  S   S52       1.0  0.09656  0.73317  0.81135  1.0000
  S   S53       1.0  0.03095  0.69230  0.81469  1.0000
  Fe  Fe28      1.0  0.14332  0.70128  0.92145  1.0000
  S   S54       1.0  0.16135  0.73109  0.89452  1.0000
  H   H330      1.0  0.04137  0.70198  0.69129  1.0000
  Fe  Fe29      1.0  0.11494  0.74640  0.88393  1.0000
  H   H331      1.0  0.24369  0.68052  0.97912  1.0000
  Fe  Fe30      1.0  0.14159  0.71513  0.82453  1.0000
  S   S55       1.0  0.16817  0.71747  0.77244  1.0000
  S   S56       1.0  0.09857  0.71815  0.91653  1.0000
  S   S57       1.0  0.12444  0.68502  0.85112  1.0000
  H   H332      1.0  0.02406  0.94532  0.84056  1.0000
  H   H333      1.0  0.23710  0.73361  0.88504  1.0000
  Fe  Fe31      1.0  0.29708  0.65468  0.67838  1.0000
  Fe  Fe32      1.0  0.35341  0.67453  0.65897  1.0000
  C   C402      1.0  0.37493  0.69226  0.82699  1.0000
  S   S58       1.0  0.38378  0.70519  0.66898  1.0000
  C   C403      1.0  0.39100  0.68709  0.94252  1.0000
  C   C404      1.0  0.34547  0.70928  0.75429  1.0000
  S   S59       1.0  0.30197  0.67897  0.62573  1.0000
  H   H334      1.0  0.10234  0.87821  0.91353  1.0000
  C   C405      1.0  0.09940  0.90706  0.78741  1.0000
  S   S60       1.0  0.10423  0.78270  0.89233  1.0000
  C   C406      1.0  0.42019  0.71399  0.70752  1.0000
  C   C407      1.0  0.44420  0.69968  0.73082  1.0000
  C   C408      1.0  0.10505  0.86072  0.97513  1.0000
  H   H335      1.0  0.45802  0.75603  0.85706  1.0000
  C   C409      1.0  0.34736  0.68481  0.83223  1.0000
  C   C410      1.0  0.42548  0.73667  0.71256  1.0000
  H   H336      1.0  0.44023  0.68217  0.72785  1.0000
  C   C411      1.0  0.34582  0.67529  0.49743  1.0000
  H   H337      1.0  0.40734  0.74798  0.69508  1.0000
  C   C412      1.0  0.34907  0.69502  0.52223  1.0000
  C   C413      1.0  0.04197  0.97635  0.93860  1.0000
  C   C414      1.0  0.05025  0.88189  0.97115  1.0000
  H   H338      1.0  0.27364  0.67179  0.86023  1.0000
  C   C415      1.0  0.02062  0.78654  0.81883  1.0000
  H   H339      1.0  0.44467  0.65012  0.93319  1.0000
  C   C416      1.0  0.00637  0.71647  0.96137  1.0000
  H   H340      1.0  0.36297  0.75645  0.62809  1.0000
  H   H341      1.0  0.06355  0.88662  0.74283  1.0000
  C   C417      1.0  0.19503  0.69942  0.75937  1.0000
  C   C418      1.0  0.20189  0.67846  0.77873  1.0000
  C   C419      1.0  0.22300  0.66475  0.76666  1.0000
  C   C420      1.0  0.23785  0.67176  0.73550  1.0000
  C   C421      1.0  0.23096  0.69272  0.71610  1.0000
  C   C422      1.0  0.20972  0.70639  0.72796  1.0000
  H   H342      1.0  0.19081  0.67275  0.80280  1.0000
  C   C423      1.0  0.41010  0.67571  0.92246  1.0000
  H   H343      1.0  0.45175  0.67561  0.81036  1.0000
  H   H344      1.0  0.22983  0.71874  0.95624  1.0000
  C   C424      1.0  0.04596  0.82020  0.93789  1.0000
  C   C425      1.0  0.13510  0.76686  0.72482  1.0000
  C   C426      1.0  0.14999  0.77517  0.76920  1.0000
  C   C427      1.0  0.13350  0.78731  0.79214  1.0000
  C   C428      1.0  0.10194  0.79064  0.77126  1.0000
  C   C429      1.0  0.08643  0.78111  0.72788  1.0000
  C   C430      1.0  0.10351  0.77003  0.70396  1.0000
  P   P15       1.0  0.04519  0.78338  0.70197  1.0000
  C   C431      1.0  0.02696  0.79145  0.74369  1.0000
  C   C432      1.0  0.03826  0.80396  0.65760  1.0000
  C   C433      1.0  0.04413  0.82618  0.67018  1.0000
  C   C434      1.0  0.99876  0.70900  0.78432  1.0000
  C   C435      1.0  0.00347  0.87062  0.85312  1.0000
  S   S61       1.0  0.35548  0.64740  0.60964  1.0000
  H   H345      1.0  0.47752  0.67871  0.90939  1.0000
  C   C436      1.0  0.48072  0.65557  0.58814  1.0000
  C   C437      1.0  0.26053  0.67325  0.92218  1.0000
  C   C438      1.0  0.01587  0.73227  0.89491  1.0000
  C   C439      1.0  0.03630  0.78193  0.78775  1.0000
  C   C440      1.0  0.02764  0.75721  0.67951  1.0000
  C   C441      1.0  0.04381  0.73739  0.69256  1.0000
  C   C442      1.0  0.99574  0.80094  0.80659  1.0000
  C   C443      1.0  0.35466  0.71473  0.50268  1.0000
  C   C444      1.0  0.47352  0.70815  0.75747  1.0000
  C   C445      1.0  0.07898  0.79150  0.92237  1.0000
  H   H346      1.0  0.14791  0.75712  0.70751  1.0000
  H   H347      1.0  0.17418  0.77175  0.78613  1.0000
  H   H348      1.0  0.14490  0.79352  0.82685  1.0000
  H   H349      1.0  0.08982  0.80004  0.79001  1.0000
  H   H350      1.0  0.09223  0.76302  0.67000  1.0000
  H   H351      1.0  0.05292  0.83093  0.70638  1.0000
  C   C446      1.0  0.06578  0.90548  0.84923  1.0000
  C   C447      1.0  0.26508  0.68192  0.88242  1.0000
  H   H352      1.0  0.44174  0.65432  0.52546  1.0000
  C   C448      1.0  0.43979  0.66049  0.81170  1.0000
  C   C449      1.0  0.02476  0.71842  0.93327  1.0000
  H   H353      1.0  0.06751  0.73728  0.71455  1.0000
  C   C450      1.0  0.37375  0.70396  0.78701  1.0000
  H   H354      1.0  0.20169  0.65720  0.91771  1.0000
  S   S62       1.0  0.18097  0.68582  0.98250  1.0000
  H   H355      1.0  0.25941  0.70999  0.83771  1.0000
  H   H356      1.0  0.41417  0.73114  0.84838  1.0000
  H   H357      1.0  0.03023  0.73367  0.87314  1.0000
  S   S63       1.0  0.34848  0.65198  0.71408  1.0000
  H   H358      1.0  0.27586  0.73797  0.63920  1.0000
  C   C451      1.0  0.05504  0.89445  0.80640  1.0000
  C   C452      1.0  0.44259  0.70277  0.87654  1.0000
  H   H359      1.0  0.20449  0.72248  0.71248  1.0000
  H   H360      1.0  0.22760  0.64849  0.78135  1.0000
  H   H361      1.0  0.32722  0.75533  0.67269  1.0000
  C   C453      1.0  0.43726  0.72489  0.86330  1.0000
  H   H362      1.0  0.05532  0.77051  0.79800  1.0000
  H   H363      1.0  0.34074  0.66033  0.51237  1.0000
  Fe  Fe33      1.0  0.30412  0.64969  0.58046  1.0000
  H   H364      1.0  0.40794  0.70831  0.57697  1.0000
  C   C454      1.0  0.24843  0.68693  0.94920  1.0000
  H   H365      1.0  0.29630  0.70588  0.73445  1.0000
  H   H366      1.0  0.29796  0.68393  0.80291  1.0000
  C   C455      1.0  0.02901  0.71716  0.67928  1.0000
  H   H367      1.0  0.46121  0.71283  0.62815  1.0000
  H   H368      1.0  0.07034  0.82301  0.88853  1.0000
  C   C456      1.0  0.00268  0.73054  0.77169  1.0000
  H   H369      1.0  0.02555  0.73726  0.78118  1.0000
  C   C457      1.0  0.03130  0.97101  0.89154  1.0000
  H   H370      1.0  0.11246  0.90760  0.76366  1.0000
  H   H371      1.0  0.34704  0.69488  0.55661  1.0000
  H   H372      1.0  0.13149  0.92733  0.83899  1.0000
  H   H373      1.0  0.34754  0.67419  0.86058  1.0000
  P   P16       1.0  0.35845  0.74018  0.53500  1.0000
  C   C458      1.0  0.33215  0.73982  0.56793  1.0000
  C   C459      1.0  0.39763  0.74320  0.57304  1.0000
  C   C460      1.0  0.40933  0.76417  0.58904  1.0000
  C   C461      1.0  0.43967  0.76659  0.61835  1.0000
  C   C462      1.0  0.44942  0.65683  0.56261  1.0000
  C   C463      1.0  0.42905  0.65878  0.94729  1.0000
  C   C464      1.0  0.41662  0.72471  0.58724  1.0000
  C   C465      1.0  0.06411  0.88644  0.93755  1.0000
  H   H374      1.0  0.10207  0.92600  0.89354  1.0000
  C   C466      1.0  0.29132  0.73882  0.61905  1.0000
  C   C467      1.0  0.32023  0.74860  0.63789  1.0000
  C   C468      1.0  0.34052  0.74919  0.61241  1.0000
  C   C469      1.0  0.24043  0.70869  0.93619  1.0000
  C   C470      1.0  0.07186  0.89523  0.77570  1.0000
  C   C471      1.0  0.28262  0.72971  0.57455  1.0000
  H   H375      1.0  0.39379  0.76404  0.48648  1.0000
  C   C472      1.0  0.46204  0.73919  0.86886  1.0000
  C   C473      1.0  0.09339  0.91741  0.86062  1.0000
  C   C474      1.0  0.03240  0.94921  0.87717  1.0000
  H   H376      1.0  0.24171  0.69830  0.69159  1.0000
  H   H377      1.0  0.39491  0.77862  0.57944  1.0000
  C   C475      1.0  0.04070  0.80723  0.97221  1.0000
  C   C476      1.0  0.04348  0.93246  0.90986  1.0000
  C   C477      1.0  0.24450  0.71704  0.89613  1.0000
  C   C478      1.0  0.31817  0.70241  0.76052  1.0000
  H   H378      1.0  0.04571  0.70894  0.94095  1.0000
  H   H379      1.0  0.42112  0.66833  0.64988  1.0000
  H   H380      1.0  0.44849  0.78272  0.63135  1.0000
  H   H381      1.0  0.34482  0.71802  0.72324  1.0000
  C   C479      1.0  0.31913  0.69011  0.79936  1.0000
  H   H382      1.0  0.30214  0.76680  0.49569  1.0000
  C   C480      1.0  0.09158  0.87565  0.93965  1.0000
  C   C481      1.0  0.47291  0.69558  0.89795  1.0000
  C   C482      1.0  0.45417  0.74506  0.73936  1.0000
  H   H383      1.0  0.40375  0.66225  0.56526  1.0000
  C   C483      1.0  0.30293  0.73015  0.54908  1.0000
  P   P17       1.0  0.04501  0.90446  0.89012  1.0000
  H   H384      1.0  0.45761  0.76270  0.74224  1.0000
  C   C484      1.0  0.41994  0.65924  0.83797  1.0000
  C   C485      1.0  0.07227  0.77808  0.95480  1.0000
  H   H385      1.0  0.26042  0.72176  0.56030  1.0000
  C   C486      1.0  0.11013  0.91818  0.82983  1.0000
  C   C487      1.0  0.44696  0.72720  0.61640  1.0000
  H   H386      1.0  0.29593  0.72268  0.51498  1.0000
  C   C488      1.0  0.45849  0.74812  0.63190  1.0000
  S   S64       1.0  0.26501  0.65379  0.72288  1.0000
  C   C489      1.0  0.05429  0.93800  0.95713  1.0000
  H   H387      1.0  0.39467  0.70831  0.78021  1.0000
  H   H388      1.0  0.37708  0.70074  0.92471  1.0000
  H   H389      1.0  0.47638  0.66629  0.69538  1.0000
  H   H390      1.0  0.12570  0.85192  0.97592  1.0000
  C   C490      1.0  0.03853  0.84236  0.63612  1.0000
  H   H391      1.0  0.02300  0.84896  0.56293  1.0000
  C   C491      1.0  0.43783  0.66472  0.63272  1.0000
  H   H392      1.0  0.02336  0.85992  0.86154  1.0000
  P   P18       1.0  0.41146  0.68326  0.86623  1.0000
  C   C492      1.0  0.02765  0.79806  0.61060  1.0000
  H   H393      1.0  0.03378  0.88525  0.79646  1.0000
  C   C493      1.0  0.34895  0.76302  0.49525  1.0000
  H   H394      1.0  0.02762  0.77869  0.85234  1.0000
  H   H395      1.0  0.48170  0.74997  0.65562  1.0000
  C   C494      1.0  0.25708  0.70371  0.86950  1.0000
  C   C495      1.0  0.47863  0.73103  0.76142  1.0000
  C   C496      1.0  0.06556  0.81256  0.91385  1.0000
  H   H396      1.0  0.02389  0.78100  0.60023  1.0000
  S   S65       1.0  0.27672  0.64774  0.50264  1.0000
  H   H397      1.0  0.03593  0.83641  0.93128  1.0000
  C   C497      1.0  0.00693  0.89323  0.86342  1.0000
  C   C498      1.0  0.46911  0.66354  0.65835  1.0000
  C   C499      1.0  0.42799  0.66132  0.58493  1.0000
  H   H398      1.0  0.08221  0.76181  0.96158  1.0000
  H   H399      1.0  0.02857  0.88953  0.96933  1.0000
  C   C500      1.0  0.05362  0.78604  0.97999  1.0000
  C   C501      1.0  0.49217  0.73167  0.88868  1.0000
  H   H400      1.0  0.01079  0.75259  0.54284  1.0000
  C   C502      1.0  0.05360  0.95989  0.97129  1.0000
  C   C503      1.0  0.49082  0.65868  0.63639  1.0000
  C   C504      1.0  0.02735  0.83642  0.58933  1.0000
  H   H401      1.0  0.49205  0.69707  0.77490  1.0000
  C   C505      1.0  0.02202  0.81427  0.57658  1.0000
  H   H402      1.0  0.04291  0.85951  0.64598  1.0000
  H   H403      1.0  0.01367  0.80966  0.54030  1.0000
  C   C506      1.0  0.99790  0.71651  0.65294  1.0000
  C   C507      1.0  0.99637  0.75638  0.65272  1.0000
  C   C508      1.0  0.00130  0.80549  0.73103  1.0000
  H   H404      1.0  0.00531  0.71207  0.53998  1.0000
  H   H405      1.0  0.06317  0.92563  0.98328  1.0000
  Fe  Fe34      1.0  0.76122  0.09097  0.16680  1.0000
  S   S66       1.0  0.79891  0.11383  0.20806  1.0000
  S   S67       1.0  0.72097  0.10036  0.10222  1.0000
  Fe  Fe35      1.0  0.79089  0.04981  0.22207  1.0000
  S   S68       1.0  0.83014  0.07043  0.26624  1.0000
  S   S69       1.0  0.80117  0.01357  0.24185  1.0000
  Fe  Fe36      1.0  0.79571  0.09578  0.27081  1.0000
  S   S70       1.0  0.80739  0.10813  0.34608  1.0000
  Fe  Fe37      1.0  0.83047  0.08672  0.20123  1.0000
  S   S71       1.0  0.87730  0.09290  0.19424  1.0000
  S   S72       1.0  0.75590  0.07421  0.23032  1.0000
  S   S73       1.0  0.79344  0.06480  0.15632  1.0000
  H   H406      1.0  0.92996  0.04298  0.16633  1.0000
  H   H407      1.0  0.94818  0.16153  0.39781  1.0000
  H   H408      1.0  0.62461  0.26095  0.06554  1.0000
  C   C509      1.0  0.68593  0.02143  0.40152  1.0000
  C   C510      1.0  0.74717  0.15366  0.24762  1.0000
  C   C511      1.0  0.65605  0.19820  0.15293  1.0000
  C   C512      1.0  0.88044  0.02048  0.15660  1.0000
  H   H409      1.0  0.69186  0.08550  0.16960  1.0000
  C   C513      1.0  0.80158  0.12601  0.38922  1.0000
  C   C514      1.0  0.82028  0.12356  0.43564  1.0000
  H   H410      1.0  0.81226  0.17626  0.23761  1.0000
  C   C515      1.0  0.90548  0.12034  0.48229  1.0000
  C   C516      1.0  0.77546  0.15618  0.41401  1.0000
  C   C517      1.0  0.77920  0.14251  0.37873  1.0000
  C   C518      1.0  0.97392  0.05394  0.16712  1.0000
  H   H411      1.0  0.65578  0.07242  0.20880  1.0000
  H   H412      1.0  0.75807  0.16886  0.40537  1.0000
  H   H413      1.0  0.76461  0.14470  0.34360  1.0000
  C   C519      1.0  0.88182  0.08757  0.14001  1.0000
  C   C520      1.0  0.85693  0.08079  0.10221  1.0000
  C   C521      1.0  0.86076  0.07709  0.05909  1.0000
  C   C522      1.0  0.88948  0.08011  0.05322  1.0000
  C   C523      1.0  0.91464  0.08638  0.09125  1.0000
  C   C524      1.0  0.91072  0.09030  0.13446  1.0000
  H   H414      1.0  0.83455  0.07875  0.10592  1.0000
  H   H415      1.0  0.84124  0.07206  0.03014  1.0000
  H   H416      1.0  0.93688  0.08873  0.08707  1.0000
  H   H417      1.0  0.93005  0.09562  0.16357  1.0000
  C   C525      1.0  0.71438  0.16625  0.07193  1.0000
  C   C526      1.0  0.72429  0.14605  0.09455  1.0000
  C   C527      1.0  0.71120  0.12623  0.07377  1.0000
  C   C528      1.0  0.68859  0.12692  0.02970  1.0000
  H   H418      1.0  0.82277  0.19388  0.42121  1.0000
  H   H419      1.0  0.74167  0.14586  0.12837  1.0000
  H   H420      1.0  0.67824  0.11172  0.01329  1.0000
  C   C529      1.0  0.97257  0.01922  0.10608  1.0000
  H   H421      1.0  0.84753  0.00679  0.07032  1.0000
  C   C530      1.0  0.68509  0.01445  0.44454  1.0000
  C   C531      1.0  0.85637  0.01175  0.04326  1.0000
  P   P19       1.0  0.91540  0.00325  0.10474  1.0000
  H   H422      1.0  0.66823  0.01616  0.37011  1.0000
  C   C532      1.0  0.66145  0.08976  0.20972  1.0000
  C   C533      1.0  0.88817  0.01226  0.05058  1.0000
  C   C534      1.0  0.65509  0.12726  0.23251  1.0000
  C   C535      1.0  0.70777  0.02144  0.48501  1.0000
  C   C536      1.0  0.67604  0.13469  0.21117  1.0000
  C   C537      1.0  0.88835  0.14303  0.99304  1.0000
  H   H423      1.0  0.85520  0.03442  0.19842  1.0000
  C   C538      1.0  0.79409  0.15367  0.46039  1.0000
  C   C539      1.0  0.66306  0.19668  0.33260  1.0000
  C   C540      1.0  0.64109  0.28098  0.02098  1.0000
  C   C541      1.0  0.68196  0.09709  0.18793  1.0000
  C   C542      1.0  0.64668  0.18420  0.25280  1.0000
  H   H424      1.0  0.64406  0.13863  0.24943  1.0000
  C   C543      1.0  0.78798  0.17382  0.23199  1.0000
  H   H425      1.0  0.83781  0.11102  0.44434  1.0000
  C   C544      1.0  0.69298  0.18973  0.33809  1.0000
  H   H426      1.0  0.91723  0.09956  0.43250  1.0000
  H   H427      1.0  0.74020  0.14044  0.26550  1.0000
  H   H428      1.0  0.66461  0.20871  0.18316  1.0000
  C   C545      1.0  0.92330  0.14892  0.33032  1.0000
  C   C546      1.0  0.95226  0.14742  0.02528  1.0000
  H   H429      1.0  0.86016  0.00112  0.24663  1.0000
  C   C547      1.0  0.64449  0.30234  0.00685  1.0000
  C   C548      1.0  0.89695  0.00220  0.14880  1.0000
  C   C549      1.0  0.70953  0.03531  0.39895  1.0000
  C   C550      1.0  0.87000  0.00133  0.21897  1.0000
  C   C551      1.0  0.67905  0.14710  0.00674  1.0000
  C   C552      1.0  0.86736  0.02011  0.19191  1.0000
  H   H430      1.0  0.72316  0.17471  0.30638  1.0000
  C   C553      1.0  0.76585  0.98527  0.10455  1.0000
  H   H431      1.0  0.81103  0.01780  0.99550  1.0000
  C   C554      1.0  0.66211  0.17548  0.15596  1.0000
  C   C555      1.0  0.92835  0.15212  0.37766  1.0000
  H   H432      1.0  0.61668  0.19919  0.28588  1.0000
  S   S74       1.0  0.67866  0.19312  0.00291  1.0000
  H   H433      1.0  0.92287  0.01829  0.01823  1.0000
  H   H434      1.0  0.79540  0.14717  0.28052  1.0000
  H   H435      1.0  0.69353  0.12514  0.40760  1.0000
  C   C556      1.0  0.90506  0.13711  0.03836  1.0000
  C   C557      1.0  0.73481  0.18373  0.19313  1.0000
  C   C558      1.0  0.88234  0.13123  0.37083  1.0000
  H   H436      1.0  0.75571  0.17864  0.01694  1.0000
  H   H437      1.0  0.80931  0.00208  0.12836  1.0000
  H   H438      1.0  0.72226  0.09416  0.45358  1.0000
  H   H439      1.0  0.97716  0.14840  0.03721  1.0000
  H   H440      1.0  0.66672  0.00378  0.44654  1.0000
  C   C559      1.0  0.62951  0.19453  0.07060  1.0000
  C   C560      1.0  0.75321  0.98375  0.20438  1.0000
  H   H441      1.0  0.87795  0.03516  0.13574  1.0000
  C   C561      1.0  0.89853  0.01802  0.01381  1.0000
  C   C562      1.0  0.68952  0.11941  0.18910  1.0000
  C   C563      1.0  0.63992  0.19390  0.28999  1.0000
  H   H442      1.0  0.63584  0.22522  0.10797  1.0000
  C   C564      1.0  0.63525  0.17193  0.07339  1.0000
  C   C565      1.0  0.89869  0.98317  0.17544  1.0000
  C   C566      1.0  0.94857  0.03979  0.15311  1.0000
  C   C567      1.0  0.86357  0.17387  0.43695  1.0000
  H   H443      1.0  0.71842  0.19415  0.16861  1.0000
  H   H444      1.0  0.86632  0.12429  0.38607  1.0000
  C   C568      1.0  0.81662  0.13727  0.47098  1.0000
  H   H445      1.0  0.62815  0.16192  0.04218  1.0000
  C   C569      1.0  0.74170  0.08337  0.40141  1.0000
  C   C570      1.0  0.78667  0.04799  0.40590  1.0000
  C   C571      1.0  0.81291  0.05935  0.40475  1.0000
  C   C572      1.0  0.83136  0.05071  0.38050  1.0000
  C   C573      1.0  0.82398  0.03047  0.35768  1.0000
  C   C574      1.0  0.79819  0.01882  0.35926  1.0000
  C   C575      1.0  0.77961  0.02746  0.38346  1.0000
  C   C576      1.0  0.99433  0.98925  0.99922  1.0000
  S   S75       1.0  0.98536  0.07497  0.03328  1.0000
  C   C577      1.0  0.70728  0.11778  0.34815  1.0000
  C   C578      1.0  0.72430  0.10376  0.32939  1.0000
  C   C579      1.0  0.74151  0.08666  0.35589  1.0000
  H   H446      1.0  0.97254  0.00603  0.08200  1.0000
  P   P20       1.0  0.91477  0.14596  0.45990  1.0000
  C   C580      1.0  0.84447  0.18967  0.44699  1.0000
  C   C581      1.0  0.76614  0.18689  0.20031  1.0000
  C   C582      1.0  0.72338  0.09689  0.41919  1.0000
  H   H447      1.0  0.85077  0.06009  0.37808  1.0000
  H   H448      1.0  0.65784  0.20416  0.36148  1.0000
  C   C583      1.0  0.73275  0.04207  0.43940  1.0000
  H   H449      1.0  0.81856  0.07526  0.42142  1.0000
  H   H450      1.0  0.63199  0.09916  0.24875  1.0000
  H   H451      1.0  0.83782  0.02402  0.33785  1.0000
  H   H452      1.0  0.79227  0.00333  0.34061  1.0000
  H   H453      1.0  0.75978  0.01813  0.38396  1.0000
  C   C584      1.0  0.61711  0.29548  0.07486  1.0000
  C   C585      1.0  0.70672  0.11429  0.39297  1.0000
  H   H454      1.0  0.69470  0.13141  0.32814  1.0000
  H   H455      1.0  0.72475  0.10630  0.29460  1.0000
  H   H456      1.0  0.75483  0.07626  0.34069  1.0000
  C   C586      1.0  0.62749  0.27755  0.05507  1.0000
  C   C587      1.0  0.89795  0.13672  0.30339  1.0000
  P   P21       1.0  0.76241  0.06054  0.43508  1.0000
  H   H457      1.0  0.71088  0.19181  0.37128  1.0000
  C   C588      1.0  0.83543  0.01770  0.00047  1.0000
  C   C589      1.0  0.64806  0.10484  0.23211  1.0000
  H   H458      1.0  0.65684  0.14503  0.11640  1.0000
  C   C590      1.0  0.65166  0.16242  0.11576  1.0000
  H   H459      1.0  0.95003  0.13398  0.08911  1.0000
  C   C591      1.0  0.72508  0.16712  0.21695  1.0000
  H   H460      1.0  0.93914  0.15574  0.31443  1.0000
  H   H461      1.0  0.75348  0.99869  0.11400  1.0000
  H   H462      1.0  0.61798  0.20191  0.03722  1.0000
  H   H463      1.0  0.73838  0.99784  0.19284  1.0000
  C   C592      1.0  0.87737  0.12802  0.32364  1.0000
  C   C593      1.0  0.78445  0.98692  0.22848  1.0000
  H   H464      1.0  0.70545  0.12480  0.17196  1.0000
  H   H465      1.0  0.89424  0.13386  0.26685  1.0000
  H   H466      1.0  0.62835  0.18182  0.22024  1.0000
  C   C594      1.0  0.73145  0.03528  0.48257  1.0000
  C   C595      1.0  0.90811  0.14292  0.39844  1.0000
  C   C596      1.0  0.67679  0.17741  0.25783  1.0000
  S   S76       1.0  0.89214  0.07739  0.99717  1.0000
  C   C597      1.0  0.94759  0.02223  0.12240  1.0000
  H   H467      1.0  0.70972  0.04077  0.36536  1.0000
  C   C598      1.0  0.93702  0.13922  0.05444  1.0000
  C   C599      1.0  0.69985  0.18006  0.30098  1.0000
  C   C600      1.0  0.69162  0.16696  0.02801  1.0000
  H   H468      1.0  0.85767  0.11857  0.30283  1.0000
  H   H469      1.0  0.85622  0.16615  0.40313  1.0000
  C   C601      1.0  0.63980  0.20765  0.11039  1.0000
  H   H470      1.0  0.72427  0.18148  0.08867  1.0000
  P   P22       1.0  0.68487  0.16362  0.21043  1.0000
  C   C602      1.0  0.77848  0.15737  0.25598  1.0000
  H   H471      1.0  0.89331  0.13014  0.06053  1.0000
  H   H472      1.0  0.60674  0.29256  0.10138  1.0000
  H   H473      1.0  0.77347  0.19946  0.18120  1.0000
  H   H474      1.0  0.90136  0.06506  0.46001  1.0000
  H   H475      1.0  0.50736  0.29978  0.05340  1.0000
  C   C603      1.0  0.90849  0.10015  0.46137  1.0000
  Fe  Fe38      1.0  0.99177  0.04648  0.98948  1.0000
  C   C604      1.0  0.88520  0.98277  0.21028  1.0000
  C   C605      1.0  0.89106  0.16765  0.47098  1.0000
  C   C606      1.0  0.89962  0.08049  0.47697  1.0000
  C   C607      1.0  0.79737  0.98721  0.11247  1.0000
  H   H476      1.0  0.64849  0.26710  0.00471  1.0000
  H   H477      1.0  0.97422  0.06757  0.19028  1.0000
  H   H478      1.0  0.55678  0.30743  0.04257  1.0000
  H   H479      1.0  0.94955  0.18733  0.48251  1.0000
  Fe  Fe39      1.0  0.58400  0.20634  0.85156  1.0000
  S   S77       1.0  0.60125  0.23172  0.81334  1.0000
  H   H480      1.0  0.56093  0.27249  0.81288  1.0000
  Fe  Fe40      1.0  0.64716  0.20366  0.93082  1.0000
  S   S78       1.0  0.66707  0.23006  0.89726  1.0000
  H   H481      1.0  0.68159  0.15007  0.79671  1.0000
  Fe  Fe41      1.0  0.62156  0.24757  0.88358  1.0000
  S   S79       1.0  0.61407  0.28427  0.89363  1.0000
  Fe  Fe42      1.0  0.64486  0.21151  0.83056  1.0000
  S   S80       1.0  0.66540  0.19830  0.77611  1.0000
  S   S81       1.0  0.60340  0.22263  0.92153  1.0000
  S   S82       1.0  0.62602  0.18461  0.86462  1.0000
  Fe  Fe43      1.0  0.87183  0.18065  0.66462  1.0000
  S   S83       1.0  0.85398  0.15129  0.61774  1.0000
  S   S84       1.0  0.92368  0.18487  0.67961  1.0000
  Fe  Fe44      1.0  0.80812  0.18958  0.67486  1.0000
  S   S85       1.0  0.78616  0.16110  0.62861  1.0000
  S   S86       1.0  0.78522  0.21205  0.71509  1.0000
  Fe  Fe45      1.0  0.82920  0.14288  0.66735  1.0000
  S   S87       1.0  0.82555  0.10772  0.68710  1.0000
  Fe  Fe46      1.0  0.81264  0.17164  0.58190  1.0000
  S   S88       1.0  0.84976  0.17029  0.71704  1.0000
  S   S89       1.0  0.83182  0.20203  0.62509  1.0000
  Fe  Fe47      1.0  0.95992  0.07026  0.89990  1.0000
  S   S90       1.0  0.94626  0.06536  0.82299  1.0000
  C   C608      1.0  0.85851  0.09674  0.72818  1.0000
  C   C609      1.0  0.85985  0.07408  0.73637  1.0000
  C   C610      1.0  0.88636  0.06466  0.76733  1.0000
  C   C611      1.0  0.91145  0.07790  0.79108  1.0000
  C   C612      1.0  0.90991  0.10066  0.78371  1.0000
  C   C613      1.0  0.88351  0.11008  0.75202  1.0000
  H   H482      1.0  0.84058  0.06371  0.71802  1.0000
  H   H483      1.0  0.88766  0.04703  0.77231  1.0000
  H   H484      1.0  0.92963  0.11084  0.80075  1.0000
  H   H485      1.0  0.88279  0.12754  0.74540  1.0000
  C   C614      1.0  0.69854  0.20299  0.75915  1.0000
  C   C615      1.0  0.70327  0.18952  0.72440  1.0000
  C   C616      1.0  0.72924  0.19230  0.70997  1.0000
  C   C617      1.0  0.75120  0.20844  0.73054  1.0000
  C   C618      1.0  0.74620  0.22217  0.76477  1.0000
  C   C619      1.0  0.72020  0.21942  0.77921  1.0000
  H   H486      1.0  0.68669  0.17682  0.70844  1.0000
  H   H487      1.0  0.73231  0.18187  0.68302  1.0000
  H   H488      1.0  0.76255  0.23507  0.78025  1.0000
  H   H489      1.0  0.71678  0.23009  0.80554  1.0000
  C   C620      1.0  0.76182  0.14314  0.73657  1.0000
  H   H490      1.0  0.95823  0.25127  0.77786  1.0000
  S   S91       1.0  0.94319  0.04681  0.94235  1.0000
  H   H491      1.0  0.66152  0.14735  0.97306  1.0000
  C   C621      1.0  0.58335  0.29327  0.91272  1.0000
  C   C622      1.0  0.79306  0.12013  0.92679  1.0000
  C   C623      1.0  0.52830  0.29896  0.79231  1.0000
  H   H492      1.0  0.76799  0.14410  0.70538  1.0000
  H   H493      1.0  0.97670  0.13749  0.71244  1.0000
  C   C624      1.0  0.96498  0.23585  0.76612  1.0000
  C   C625      1.0  0.94232  0.22205  0.73612  1.0000
  C   C626      1.0  0.95077  0.20226  0.71989  1.0000
  H   H494      1.0  0.98364  0.13591  0.89750  1.0000
  H   H495      1.0  0.53189  0.27426  0.96220  1.0000
  S   S92       1.0  0.94993  0.10022  0.93531  1.0000
  H   H496      1.0  0.91841  0.22692  0.72504  1.0000
  H   H497      1.0  0.65455  0.30490  0.97977  1.0000
  H   H498      1.0  0.88065  0.06560  0.52549  1.0000
  C   C627      1.0  0.82510  0.05815  0.56529  1.0000
  C   C628      1.0  0.82854  0.11363  0.80849  1.0000
  C   C629      1.0  0.83651  0.09337  0.83036  1.0000
  C   C630      1.0  0.85815  0.09248  0.87458  1.0000
  C   C631      1.0  0.87151  0.11186  0.89710  1.0000
  C   C632      1.0  0.86347  0.13233  0.87559  1.0000
  C   C633      1.0  0.84229  0.13299  0.83067  1.0000
  P   P23       1.0  0.88184  0.15738  0.90357  1.0000
  H   H499      1.0  0.85166  0.18690  0.82717  1.0000
  C   C634      1.0  0.90742  0.16786  0.87475  1.0000
  H   H500      1.0  0.87644  0.10097  0.56387  1.0000
  C   C635      1.0  0.69776  0.13136  0.86026  1.0000
  C   C636      1.0  0.84207  0.18994  0.85466  1.0000
  C   C637      1.0  0.93211  0.16469  0.81593  1.0000
  C   C638      1.0  0.91336  0.15583  0.83931  1.0000
  H   H501      1.0  0.91010  0.07130  0.68498  1.0000
  H   H502      1.0  0.95033  0.21349  0.87346  1.0000
  H   H503      1.0  0.53298  0.23396  0.76826  1.0000
  H   H504      1.0  0.74829  0.04081  0.51448  1.0000
  H   H505      1.0  0.96085  0.19192  0.81162  1.0000
  C   C639      1.0  0.85236  0.17816  0.89634  1.0000
  C   C640      1.0  0.83943  0.18291  0.93111  1.0000
  C   C641      1.0  0.81625  0.19875  0.92383  1.0000
  C   C642      1.0  0.80604  0.21018  0.88210  1.0000
  C   C643      1.0  0.92069  0.18878  0.88683  1.0000
  H   H506      1.0  0.91619  0.19837  0.91392  1.0000
  H   H507      1.0  0.81245  0.11423  0.77364  1.0000
  H   H508      1.0  0.82651  0.07836  0.81250  1.0000
  H   H509      1.0  0.86492  0.07677  0.89146  1.0000
  H   H510      1.0  0.88835  0.11064  0.93107  1.0000
  H   H511      1.0  0.83702  0.14832  0.81220  1.0000
  H   H512      1.0  0.75500  0.14512  0.97079  1.0000
  C   C644      1.0  0.63519  0.12510  0.84789  1.0000
  S   S93       1.0  0.78879  0.17187  0.50315  1.0000
  H   H513      1.0  0.93653  0.15545  0.78826  1.0000
  H   H514      1.0  0.90351  0.13970  0.82963  1.0000
  C   C645      1.0  0.78774  0.06868  0.49172  1.0000
  H   H515      1.0  0.81155  0.21485  0.81547  1.0000
  C   C646      1.0  0.51400  0.30977  0.71193  1.0000
  H   H516      1.0  0.94823  0.15912  0.95797  1.0000
  H   H517      1.0  0.92338  0.13922  0.65942  1.0000
  H   H518      1.0  0.98518  0.10599  0.84321  1.0000
  H   H519      1.0  0.53556  0.29134  0.67031  1.0000
  H   H520      1.0  0.78797  0.22237  0.87627  1.0000
  C   C647      1.0  0.64408  0.13675  0.81507  1.0000
  C   C648      1.0  0.82560  0.07972  0.58155  1.0000
  H   H521      1.0  0.56601  0.26785  0.73517  1.0000
  C   C649      1.0  0.97435  0.16854  0.62168  1.0000
  C   C650      1.0  0.88803  0.08077  0.51389  1.0000
  C   C651      1.0  0.54343  0.28585  0.94677  1.0000
  H   H522      1.0  0.98888  0.18095  0.72293  1.0000
  C   C652      1.0  0.96282  0.12266  0.70545  1.0000
  H   H523      1.0  0.72806  0.18401  0.84657  1.0000
  H   H524      1.0  0.53900  0.24187  0.87290  1.0000
  H   H525      1.0  0.79123  0.17000  0.77008  1.0000
  H   H526      1.0  0.57619  0.26197  0.93950  1.0000
  C   C653      1.0  0.97759  0.19138  0.62102  1.0000
  H   H527      1.0  0.88553  0.20009  0.55969  1.0000
  C   C654      1.0  0.96549  0.17380  0.49418  1.0000
  H   H528      1.0  0.83962  0.08388  0.61659  1.0000
  C   C655      1.0  0.75302  0.09364  0.89020  1.0000
  H   H529      1.0  0.83886  0.04564  0.58777  1.0000
  C   C656      1.0  0.52317  0.22607  0.92397  1.0000
  P   P24       1.0  0.73768  0.13762  0.87072  1.0000
  C   C657      1.0  0.91375  0.10518  0.66737  1.0000
  C   C658      1.0  0.77513  0.15763  0.77331  1.0000
  H   H530      1.0  0.77855  0.16734  0.84229  1.0000
  H   H531      1.0  0.82989  0.02814  0.93096  1.0000
  C   C659      1.0  0.97632  0.13472  0.50294  1.0000
  C   C660      1.0  0.95498  0.15192  0.48851  1.0000
  C   C661      1.0  0.80794  0.09593  0.55269  1.0000
  C   C662      1.0  0.76745  0.15635  0.81383  1.0000
  C   C663      1.0  0.80637  0.05266  0.52048  1.0000
  H   H532      1.0  0.95743  0.20182  0.61363  1.0000
  C   C664      1.0  0.49820  0.22246  0.93951  1.0000
  C   C665      1.0  0.51991  0.23954  0.88579  1.0000
  H   H533      1.0  0.96258  0.06929  0.73902  1.0000
  C   C666      1.0  0.94559  0.18535  0.82864  1.0000
  H   H534      1.0  0.70567  0.11427  0.92507  1.0000
  C   C667      1.0  0.93262  0.12374  0.67522  1.0000
  H   H535      1.0  0.74259  0.21478  0.97849  1.0000
  H   H536      1.0  0.88982  0.10641  0.64630  1.0000
  C   C668      1.0  0.73566  0.18278  0.88389  1.0000
  C   C669      1.0  0.74579  0.14085  0.81736  1.0000
  C   C670      1.0  0.74056  0.12747  0.74007  1.0000
  C   C671      1.0  0.95526  0.08431  0.71997  1.0000
  C   C672      1.0  0.76253  0.11561  0.89988  1.0000
  C   C673      1.0  0.73261  0.12627  0.78039  1.0000
  H   H537      1.0  0.73033  0.11626  0.71152  1.0000
  C   C674      1.0  0.68871  0.12003  0.89356  1.0000
  H   H538      1.0  0.91978  0.17277  0.54198  1.0000
  C   C675      1.0  0.93989  0.19741  0.86399  1.0000
  C   C676      1.0  0.97440  0.10291  0.72817  1.0000
  H   H539      1.0  0.76614  0.05952  0.90070  1.0000
  H   H540      1.0  0.71638  0.11385  0.78286  1.0000
  H   H541      1.0  0.95179  0.16136  0.61506  1.0000
  C   C677      1.0  0.98202  0.19628  0.73480  1.0000
  Fe  Fe48      1.0  0.93750  0.07652  0.98276  1.0000
  C   C678      1.0  0.53308  0.30767  0.93992  1.0000
  H   H542      1.0  0.50124  0.21186  0.96888  1.0000
  S   S94       1.0  0.53336  0.19573  0.82639  1.0000
  H   H543      1.0  0.52603  0.30047  0.82638  1.0000
  C   C679      1.0  0.67523  0.14005  0.82139  1.0000
  C   C680      1.0  0.97294  0.98798  0.95468  1.0000
  H   H544      1.0  0.72960  0.21738  0.89318  1.0000
  C   C681      1.0  0.85241  0.19913  0.49112  1.0000
  H   H545      1.0  0.54491  0.21804  0.94075  1.0000
  H   H546      1.0  0.96709  0.00257  0.93364  1.0000
  C   C682      1.0  0.56841  0.27874  0.93345  1.0000
  H   H547      1.0  0.81995  0.06787  0.94907  1.0000
  C   C683      1.0  0.80374  0.08107  0.93565  1.0000
  H   H548      1.0  0.65062  0.10835  0.91332  1.0000
  C   C684      1.0  0.53377  0.29372  0.70448  1.0000
  C   C685      1.0  0.89457  0.12035  0.52018  1.0000
  H   H549      1.0  0.61100  0.12312  0.84347  1.0000
  H   H550      1.0  0.62685  0.14404  0.78557  1.0000
  H   H551      1.0  0.80128  0.13693  0.93283  1.0000
  H   H552      1.0  0.80843  0.11271  0.56537  1.0000
  C   C686      1.0  0.81917  0.20589  0.84775  1.0000
  C   C687      1.0  0.78931  0.09052  0.50775  1.0000
  H   H553      1.0  0.88558  0.02811  0.94265  1.0000
  C   C688      1.0  0.74334  0.16229  0.90541  1.0000
  C   C689      1.0  0.65750  0.11678  0.88717  1.0000
  H   H554      1.0  0.83126  0.13526  0.50639  1.0000
  C   C690      1.0  0.50326  0.21225  0.78929  1.0000
  H   H555      1.0  0.72996  0.08981  0.86787  1.0000
  C   C691      1.0  0.87975  0.19311  0.52512  1.0000
  C   C692      1.0  0.73619  0.20172  0.91028  1.0000
  C   C693      1.0  0.81341  0.10286  0.94516  1.0000
  C   C694      1.0  0.92518  0.08541  0.68927  1.0000
  C   C695      1.0  0.55088  0.28042  0.74093  1.0000
  C   C696      1.0  0.90333  0.15171  0.96361  1.0000
  C   C697      1.0  0.75080  0.16091  0.95365  1.0000
  H   H556      1.0  0.96891  0.11773  0.49821  1.0000
  C   C698      1.0  0.77353  0.07643  0.90834  1.0000
  C   C699      1.0  0.88573  0.10067  0.53563  1.0000
  C   C700      1.0  0.50948  0.23012  0.76509  1.0000
  C   C701      1.0  0.54802  0.28300  0.78475  1.0000
  C   C702      1.0  0.89907  0.17755  0.51500  1.0000
  H   H557      1.0  0.83684  0.21059  0.49939  1.0000
  H   H558      1.0  0.89194  0.13552  0.53720  1.0000
  C   C703      1.0  0.74366  0.20027  0.95828  1.0000
  H   H559      1.0  0.83696  0.10621  0.96608  1.0000
  H   H560      1.0  0.80594  0.03580  0.50847  1.0000
  H   H561      1.0  0.80623  0.20221  0.95064  1.0000
  H   H562      1.0  0.86390  0.14001  0.98047  1.0000
  H   H563      1.0  0.70689  0.01627  0.51842  1.0000
  C   C704      1.0  0.93557  0.15363  0.98010  1.0000
  H   H564      1.0  0.84708  0.17474  0.96400  1.0000
  C   C705      1.0  0.84599  0.02349  0.96416  1.0000
  C   C706      1.0  0.87744  0.02343  0.97072  1.0000
  C   C707      1.0  0.75111  0.17988  0.97996  1.0000
  C   C708      1.0  0.99528  0.13843  0.87231  1.0000
  H   H565      1.0  0.77641  0.10353  0.48604  1.0000
  H   H566      1.0  0.61530  0.38119  0.13875  1.0000
  C   C709      1.0  0.55907  0.34666  0.12390  1.0000
  H   H567      1.0  0.63595  0.33658  0.01342  1.0000
  C   C710      1.0  0.61340  0.39710  0.01756  1.0000
  H   H568      1.0  0.65305  0.39195  0.21358  1.0000
  H   H569      1.0  0.65760  0.31700  0.15062  1.0000
  H   H570      1.0  0.52198  0.35311  0.15097  1.0000
  C   C711      1.0  0.67652  0.36075  0.22408  1.0000
  H   H571      1.0  0.64257  0.37840  0.07414  1.0000
  H   H572      1.0  0.55369  0.35024  0.00198  1.0000
  C   C712      1.0  0.62028  0.37914  0.04760  1.0000
  C   C713      1.0  0.65400  0.37561  0.19962  1.0000
  C   C714      1.0  0.65626  0.33341  0.16369  1.0000
  C   C715      1.0  0.51180  0.32563  0.10374  1.0000
  H   H573      1.0  0.69309  0.36556  0.25699  1.0000
  C   C716      1.0  0.63261  0.36942  0.15717  1.0000
  C   C717      1.0  0.63367  0.34830  0.13865  1.0000
  C   C718      1.0  0.56945  0.33375  0.09361  1.0000
  H   H574      1.0  0.63001  0.41021  0.02159  1.0000
  P   P25       1.0  0.60543  0.34018  0.08428  1.0000
  C   C719      1.0  0.59830  0.36252  0.04350  1.0000
  C   C720      1.0  0.67764  0.33966  0.20614  1.0000
  H   H575      1.0  0.57252  0.36026  0.14288  1.0000
  C   C721      1.0  0.55038  0.31689  0.06812  1.0000
  C   C722      1.0  0.53034  0.34264  0.12876  1.0000
  H   H576      1.0  0.69510  0.32813  0.22517  1.0000
  C   C723      1.0  0.63365  0.32028  0.02588  1.0000
  C   C724      1.0  0.57044  0.36333  0.00693  1.0000
  C   C725      1.0  0.61963  0.31699  0.05981  1.0000
  S   S95       1.0  0.50210  0.37220  0.02003  1.0000
  C   C726      1.0  0.52195  0.31265  0.07375  1.0000
  H   H577      1.0  0.54082  0.33944  0.91504  1.0000
  C   C727      1.0  0.54854  0.32256  0.92051  1.0000
  H   H578      1.0  0.55243  0.51695  0.86203  1.0000
  C   C728      1.0  0.55128  0.64114  0.63864  1.0000
  C   C729      1.0  0.55417  0.37323  0.84677  1.0000
  C   C730      1.0  0.56360  0.38129  0.97703  1.0000
  H   H579      1.0  0.54600  0.47659  0.84977  1.0000
  C   C731      1.0  0.50563  0.47267  0.95165  1.0000
  C   C732      1.0  0.53767  0.39121  0.85510  1.0000
  H   H580      1.0  0.57899  0.41264  0.96059  1.0000
  H   H581      1.0  0.55190  0.34164  0.81419  1.0000
  H   H582      1.0  0.50665  0.54080  0.84910  1.0000
  H   H583      1.0  0.54145  0.38223  0.95006  1.0000
  C   C733      1.0  0.57900  0.63696  0.94787  1.0000
  C   C734      1.0  0.57378  0.31540  0.90740  1.0000
  S   S96       1.0  0.50065  0.31501  0.95614  1.0000
  C   C735      1.0  0.51974  0.61824  0.77217  1.0000
  C   C736      1.0  0.52594  0.48708  0.84248  1.0000
  C   C737      1.0  0.54585  0.62310  0.80981  1.0000
  C   C738      1.0  0.55943  0.61915  0.65058  1.0000
  H   H584      1.0  0.58561  0.32690  0.89227  1.0000
  H   H585      1.0  0.54926  0.61534  0.84296  1.0000
  C   C739      1.0  0.53864  0.35529  0.82051  1.0000
  C   C740      1.0  0.57520  0.60695  0.62652  1.0000
  H   H586      1.0  0.54962  0.40505  0.87570  1.0000
  C   C741      1.0  0.58287  0.61654  0.59033  1.0000
  C   C742      1.0  0.50383  0.52325  0.84229  1.0000
  C   C743      1.0  0.52960  0.50980  0.84966  1.0000
  H   H587      1.0  0.59529  0.60710  0.57195  1.0000
  C   C744      1.0  0.50273  0.45294  0.97339  1.0000
  S   S97       1.0  0.50863  0.42762  0.94889  1.0000
  H   H588      1.0  0.57905  0.37310  0.86088  1.0000
  H   H589      1.0  0.55242  0.61091  0.96491  1.0000
  C   C745      1.0  0.50561  0.39122  0.83749  1.0000
  H   H590      1.0  0.55388  0.61139  0.67860  1.0000
  H   H591      1.0  0.60074  0.63105  0.97093  1.0000
  C   C746      1.0  0.52357  0.63259  0.91357  1.0000
  C   C747      1.0  0.51520  0.62848  0.72960  1.0000
  C   C748      1.0  0.50639  0.35511  0.80301  1.0000
  H   H592      1.0  0.49931  0.36262  0.70253  1.0000
  H   H593      1.0  0.58169  0.59006  0.63619  1.0000
  C   C749      1.0  0.55165  0.62552  0.94458  1.0000
  H   H594      1.0  0.50276  0.50819  0.95278  1.0000
  H   H595      1.0  0.50296  0.60664  0.77632  1.0000
  C   C750      1.0  0.50045  0.49307  0.96982  1.0000
  C   C751      1.0  0.58483  0.39836  0.98281  1.0000
  H   H596      1.0  0.51188  0.47215  0.92069  1.0000
  C   C752      1.0  0.49650  0.47776  0.82807  1.0000
  C   C753      1.0  0.51140  0.31264  0.75612  1.0000
  H   H597      1.0  0.50050  0.31951  0.68299  1.0000
  C   C754      1.0  0.57468  0.63834  0.57802  1.0000
  H   H598      1.0  0.58746  0.64223  0.83451  1.0000
  C   C755      1.0  0.56734  0.63831  0.80508  1.0000
  C   C756      1.0  0.53645  0.64414  0.72486  1.0000
  Fe  Fe49      1.0  0.76318  0.88238  0.21755  1.0000
  S   S98       1.0  0.81107  0.87209  0.26022  1.0000
  S   S99       1.0  0.74326  0.91697  0.19760  1.0000
  Fe  Fe50      1.0  0.74058  0.83416  0.19885  1.0000
  S   S100      1.0  0.78655  0.82068  0.24171  1.0000
  S   S101      1.0  0.70146  0.80992  0.16529  1.0000
  Fe  Fe51      1.0  0.78780  0.84737  0.29342  1.0000
  S   S102      1.0  0.80777  0.84376  0.37261  1.0000
  Fe  Fe52      1.0  0.80592  0.84601  0.20548  1.0000
  S   S103      1.0  0.83695  0.83265  0.16745  1.0000
  S   S104      1.0  0.74007  0.85927  0.25360  1.0000
  S   S105      1.0  0.75984  0.85800  0.16013  1.0000
  P   P26       1.0  0.74990  0.73322  0.02606  1.0000
  Fe  Fe53      1.0  0.95503  0.87014  0.06415  1.0000
  H   H599      1.0  0.82036  0.96830  0.01679  1.0000
  S   S106      1.0  0.95228  0.87774  0.13504  1.0000
  C   C757      1.0  0.93027  0.97644  0.09678  1.0000
  C   C758      1.0  0.80246  0.82396  0.41221  1.0000
  C   C759      1.0  0.81685  0.82749  0.46000  1.0000
  H   H600      1.0  0.85734  0.74292  0.40414  1.0000
  H   H601      1.0  0.82741  0.97053  0.26271  1.0000
  C   C760      1.0  0.78135  0.78978  0.43055  1.0000
  C   C761      1.0  0.78498  0.80482  0.39767  1.0000
  C   C762      1.0  0.84976  0.74011  0.43363  1.0000
  P   P27       1.0  0.82012  0.92758  0.06999  1.0000
  H   H602      1.0  0.76736  0.77523  0.41888  1.0000
  H   H603      1.0  0.77424  0.80158  0.36111  1.0000
  C   C763      1.0  0.86732  0.84733  0.15802  1.0000
  C   C764      1.0  0.88808  0.85973  0.19317  1.0000
  C   C765      1.0  0.91437  0.86876  0.18617  1.0000
  C   C766      1.0  0.91934  0.86620  0.14350  1.0000
  C   C767      1.0  0.89808  0.85432  0.10802  1.0000
  C   C768      1.0  0.87245  0.84464  0.11553  1.0000
  H   H604      1.0  0.88458  0.86153  0.22631  1.0000
  H   H605      1.0  0.93103  0.87759  0.21397  1.0000
  H   H606      1.0  0.90167  0.85216  0.07504  1.0000
  H   H607      1.0  0.85668  0.83485  0.08839  1.0000
  C   C769      1.0  0.80327  0.96832  0.24370  1.0000
  C   C770      1.0  0.79118  0.94681  0.23445  1.0000
  C   C771      1.0  0.75998  0.94363  0.21009  1.0000
  C   C772      1.0  0.74111  0.96222  0.19522  1.0000
  C   C773      1.0  0.91798  0.78035  0.40988  1.0000
  H   H608      1.0  0.80595  0.93269  0.24619  1.0000
  H   H609      1.0  0.71693  0.95994  0.17645  1.0000
  C   C774      1.0  0.65195  0.77910  0.04486  1.0000
  C   C775      1.0  0.66411  0.78578  0.09166  1.0000
  C   C776      1.0  0.68737  0.80187  0.10587  1.0000
  C   C777      1.0  0.69848  0.81112  0.07261  1.0000
  C   C778      1.0  0.91755  0.96444  0.05551  1.0000
  H   H610      1.0  0.65520  0.77859  0.11696  1.0000
  H   H611      1.0  0.71628  0.82353  0.08290  1.0000
  C   C779      1.0  0.75116  0.75715  0.10509  1.0000
  C   C780      1.0  0.71592  0.71852  0.02617  1.0000
  H   H612      1.0  0.97007  0.78677  0.05545  1.0000
  C   C781      1.0  0.66080  0.69665  0.01868  1.0000
  C   C782      1.0  0.86151  0.79989  0.36240  1.0000
  C   C783      1.0  0.88530  0.80026  0.34346  1.0000
  H   H613      1.0  0.85974  0.68260  0.08726  1.0000
  C   C784      1.0  0.78153  0.79320  0.08333  1.0000
  C   C785      1.0  0.78790  0.86437  0.06560  1.0000
  C   C786      1.0  0.72758  0.91247  0.30438  1.0000
  P   P28       1.0  0.89885  0.76667  0.48385  1.0000
  C   C787      1.0  0.79758  0.90274  0.05321  1.0000
  C   C788      1.0  0.86590  0.78983  0.40504  1.0000
  C   C789      1.0  0.75637  0.88382  0.37671  1.0000
  S   S107      1.0  0.91847  0.88391  0.00319  1.0000
  H   H614      1.0  0.93987  0.77269  0.42721  1.0000
  C   C790      1.0  0.68438  0.68548  0.00846  1.0000
  H   H615      1.0  0.79379  0.80707  0.07565  1.0000
  H   H616      1.0  0.86349  0.91921  0.23896  1.0000
  H   H617      1.0  0.69510  0.81176  0.00052  1.0000
  C   C791      1.0  0.68637  0.80441  0.02586  1.0000
  S   S108      1.0  0.95093  0.83622  0.03449  1.0000
  C   C792      1.0  0.78421  0.71666  0.04423  1.0000
  H   H618      1.0  0.80855  0.73644  0.00876  1.0000
  H   H619      1.0  0.83054  0.84215  0.47173  1.0000
  C   C793      1.0  0.72205  0.85209  0.43194  1.0000
  C   C794      1.0  0.80961  0.72236  0.03076  1.0000
  H   H620      1.0  0.68669  0.91132  0.39257  1.0000
  C   C795      1.0  0.95535  0.96760  0.13194  1.0000
  C   C796      1.0  0.68921  0.84504  0.33165  1.0000
  C   C797      1.0  0.71071  0.82992  0.32576  1.0000
  C   C798      1.0  0.70231  0.81489  0.28894  1.0000
  C   C799      1.0  0.67248  0.81504  0.25743  1.0000
  C   C800      1.0  0.65111  0.83037  0.26245  1.0000
  C   C801      1.0  0.65945  0.84544  0.29926  1.0000
  H   H621      1.0  0.88269  0.81394  0.48389  1.0000
  C   C802      1.0  0.90581  0.92107  0.16621  1.0000
  C   C803      1.0  0.77327  0.79358  0.12337  1.0000
  C   C804      1.0  0.79542  0.79346  0.47837  1.0000
  C   C805      1.0  0.78668  0.69901  0.07458  1.0000
  C   C806      1.0  0.86874  0.92057  0.20701  1.0000
  H   H622      1.0  0.73980  0.74326  0.11449  1.0000
  H   H623      1.0  0.71657  0.92292  0.27503  1.0000
  H   H624      1.0  0.68516  0.89866  0.30632  1.0000
  C   C807      1.0  0.76317  0.86400  0.02439  1.0000
  H   H625      1.0  0.71917  0.80357  0.28383  1.0000
  H   H626      1.0  0.66625  0.80371  0.22828  1.0000
  H   H627      1.0  0.62831  0.83084  0.23706  1.0000
  H   H628      1.0  0.64289  0.85764  0.30160  1.0000
  H   H629      1.0  0.63363  0.76710  0.03436  1.0000
  C   C808      1.0  0.82415  0.72667  0.42801  1.0000
  H   H630      1.0  0.64569  0.72765  0.03790  1.0000
  H   H631      1.0  0.84716  0.78965  0.41917  1.0000
  H   H632      1.0  0.79398  0.71242  0.46126  1.0000
  C   C809      1.0  0.92939  0.94380  0.04990  1.0000
  C   C810      1.0  0.70989  0.89874  0.32228  1.0000
  H   H633      1.0  0.75161  0.77608  0.16532  1.0000
  C   C811      1.0  0.66884  0.87809  0.38838  1.0000
  C   C812      1.0  0.89922  0.91997  0.20765  1.0000
  C   C813      1.0  0.76670  0.94816  0.07533  1.0000
  H   H634      1.0  0.88775  0.92338  0.09254  1.0000
  H   H635      1.0  0.73420  0.83022  0.34895  1.0000
  H   H636      1.0  0.63932  0.68830  0.01506  1.0000
  H   H637      1.0  0.81189  0.71963  0.39442  1.0000
  H   H638      1.0  0.87206  0.78142  0.99504  1.0000
  C   C814      1.0  0.80508  0.88362  0.08012  1.0000
  P   P29       1.0  0.70117  0.86507  0.37783  1.0000
  C   C815      1.0  0.75578  0.88287  0.99715  1.0000
  C   C816      1.0  0.77419  0.77495  0.05367  1.0000
  H   H639      1.0  0.93185  0.79069  0.35219  1.0000
  C   C817      1.0  0.88201  0.92292  0.12408  1.0000
  C   C818      1.0  0.66310  0.78832  0.01165  1.0000
  C   C819      1.0  0.85138  0.92387  0.12327  1.0000
  H   H640      1.0  0.92005  0.93482  0.01760  1.0000
  H   H641      1.0  0.81551  0.67300  0.11304  1.0000
  C   C820      1.0  0.79823  0.95022  0.08185  1.0000
  C   C821      1.0  0.89418  0.78005  0.42926  1.0000
  H   H642      1.0  0.84954  0.90064  0.01708  1.0000
  H   H643      1.0  0.77852  0.80788  0.14585  1.0000
  Fe  Fe54      1.0  0.98713  0.84584  0.00342  1.0000
  C   C822      1.0  0.92065  0.78413  0.03057  1.0000
  H   H644      1.0  0.69359  0.74717  0.04290  1.0000
  H   H645      1.0  0.76785  0.69492  0.08699  1.0000
  C   C823      1.0  0.83871  0.69211  0.07531  1.0000
  H   H646      1.0  0.91788  0.79163  0.06126  1.0000
  H   H647      1.0  0.64570  0.84729  0.39013  1.0000
  C   C824      1.0  0.91352  0.79048  0.36716  1.0000
  C   C825      1.0  0.72417  0.88457  0.35918  1.0000
  H   H648      1.0  0.92937  0.91968  0.16656  1.0000
  C   C826      1.0  0.84489  0.92257  0.16502  1.0000
  H   H649      1.0  0.82420  0.88333  0.11216  1.0000
  H   H650      1.0  0.83960  0.80747  0.34405  1.0000
  H   H651      1.0  0.74974  0.84908  0.01378  1.0000
  H   H652      1.0  0.64244  0.92841  0.40814  1.0000
  C   C827      1.0  0.81377  0.68667  0.08974  1.0000
  C   C828      1.0  0.81414  0.72250  0.46562  1.0000
  C   C829      1.0  0.66441  0.71882  0.03162  1.0000
  C   C830      1.0  0.77400  0.89748  0.35856  1.0000
  C   C831      1.0  0.96684  0.94680  0.12644  1.0000
  H   H653      1.0  0.89883  0.97102  0.02732  1.0000
  H   H654      1.0  0.88176  0.80810  0.31032  1.0000
  H   H655      1.0  0.82133  0.92303  0.16507  1.0000
  H   H656      1.0  0.91771  0.91795  0.24006  1.0000
  C   C832      1.0  0.95374  0.93486  0.08555  1.0000
  C   C833      1.0  0.75851  0.75693  0.06399  1.0000
  C   C834      1.0  0.75820  0.77557  0.13436  1.0000
  H   H657      1.0  0.79884  0.89618  0.37121  1.0000
  C   C835      1.0  0.86524  0.74985  0.47684  1.0000
  C   C836      1.0  0.64306  0.91073  0.40373  1.0000
  C   C837      1.0  0.75962  0.91183  0.32249  1.0000
  H   H658      1.0  0.77324  0.92186  0.30732  1.0000
  H   H659      1.0  0.76806  0.87207  0.40300  1.0000
  C   C838      1.0  0.83074  0.95511  0.00325  1.0000
  H   H660      1.0  0.75459  0.93292  0.06306  1.0000
  C   C839      1.0  0.62006  0.87484  0.40262  1.0000
  C   C840      1.0  0.69172  0.72978  0.03486  1.0000
  C   C841      1.0  0.64497  0.86505  0.39335  1.0000
  H   H661      1.0  0.79369  0.84972  0.08661  1.0000
  C   C842      1.0  0.89482  0.77826  0.99330  1.0000
  H   H662      1.0  0.60163  0.86468  0.40613  1.0000
  C   C843      1.0  0.83398  0.93394  0.02253  1.0000
  C   C844      1.0  0.71180  0.69639  0.01187  1.0000
  C   C845      1.0  0.84693  0.91715  0.00299  1.0000
  C   C846      1.0  0.95003  0.78139  0.02734  1.0000
  C   C847      1.0  0.71812  0.82957  0.43848  1.0000
  H   H663      1.0  0.70345  0.81942  0.41088  1.0000
  C   C848      1.0  0.61904  0.89768  0.40761  1.0000
  H   H664      1.0  0.59974  0.90525  0.41486  1.0000
  C   C849      1.0  0.66802  0.90098  0.39448  1.0000
  C   C850      1.0  0.77305  0.90213  0.01129  1.0000
  C   C851      1.0  0.74065  0.86477  0.46911  1.0000
  C   C852      1.0  0.81354  0.96974  0.10137  1.0000
  H   H665      1.0  0.78081  0.77493  0.02281  1.0000
  C   C853      1.0  0.98937  0.94953  0.00731  1.0000
  H   H666      1.0  0.72933  0.68773  0.00209  1.0000
  H   H667      1.0  0.91028  0.96856  0.16959  1.0000
  H   H668      1.0  0.68081  0.66856  0.99639  1.0000
  H   H669      1.0  0.76723  0.91660  0.98972  1.0000
  C   C854      1.0  0.75059  0.96569  0.08642  1.0000
  H   H670      1.0  0.72643  0.96386  0.08235  1.0000
  H   H671      1.0  0.98596  0.93987  0.15375  1.0000
  C   C855      1.0  0.83668  0.71001  0.04600  1.0000
  H   H672      1.0  0.85618  0.71445  0.03542  1.0000
  H   H673      1.0  0.96269  0.91876  0.08129  1.0000
  H   H674      1.0  0.74341  0.88226  0.46518  1.0000
  S   S109      1.0  0.99444  0.87922  0.03936  1.0000
  H   H675      1.0  0.88661  0.96809  0.23076  1.0000
  H   H676      1.0  0.83810  0.97128  0.10864  1.0000
  H   H677      1.0  0.96590  0.97676  0.16369  1.0000
  C   C856      1.0  0.95360  0.77290  0.98685  1.0000
  C   C857      1.0  0.73331  0.81980  0.48107  1.0000
  Fe  Fe55      1.0  0.56427  0.73403  0.83153  1.0000
  S   S110      1.0  0.59023  0.70661  0.81149  1.0000
  S   S111      1.0  0.51449  0.74378  0.79204  1.0000
  Fe  Fe56      1.0  0.62325  0.75116  0.90981  1.0000
  S   S112      1.0  0.65197  0.72384  0.89519  1.0000
  S   S113      1.0  0.64809  0.78117  0.95184  1.0000
  Fe  Fe57      1.0  0.62910  0.73093  0.81945  1.0000
  S   S114      1.0  0.65056  0.74329  0.76559  1.0000
  Fe  Fe58      1.0  0.61054  0.70225  0.88872  1.0000
  S   S115      1.0  0.61321  0.66876  0.92265  1.0000
  S   S116      1.0  0.60125  0.75865  0.83426  1.0000
  S   S117      1.0  0.58343  0.72910  0.90875  1.0000
  Fe  Fe59      1.0  0.80226  0.75234  0.68510  1.0000
  S   S118      1.0  0.78535  0.78385  0.64683  1.0000
  S   S119      1.0  0.77595  0.72992  0.71963  1.0000
  Fe  Fe60      1.0  0.86743  0.75664  0.67607  1.0000
  S   S120      1.0  0.85442  0.78852  0.63717  1.0000
  S   S121      1.0  0.91812  0.74862  0.68703  1.0000
  Fe  Fe61      1.0  0.83157  0.79715  0.68928  1.0000
  S   S122      1.0  0.83971  0.83127  0.72006  1.0000
  Fe  Fe62      1.0  0.80976  0.77276  0.59720  1.0000
  S   S123      1.0  0.84730  0.76662  0.73090  1.0000
  S   S124      1.0  0.82370  0.73990  0.63243  1.0000
  H   H678      1.0  0.96456  0.77643  0.51944  1.0000
  S   S125      1.0  0.87380  0.83176  0.93734  1.0000
  C   C858      1.0  0.84775  0.83168  0.78028  1.0000
  C   C859      1.0  0.84163  0.81331  0.80319  1.0000
  C   C860      1.0  0.84926  0.81357  0.85144  1.0000
  C   C861      1.0  0.86360  0.83202  0.87700  1.0000
  C   C862      1.0  0.86923  0.85059  0.85418  1.0000
  C   C863      1.0  0.86101  0.85048  0.80575  1.0000
  H   H679      1.0  0.83050  0.79904  0.78376  1.0000
  H   H680      1.0  0.84455  0.79933  0.86905  1.0000
  H   H681      1.0  0.87994  0.86498  0.87386  1.0000
  H   H682      1.0  0.86545  0.86480  0.78809  1.0000
  C   C864      1.0  0.68584  0.73937  0.75408  1.0000
  C   C865      1.0  0.69440  0.75473  0.72616  1.0000
  C   C866      1.0  0.72196  0.75230  0.71567  1.0000
  C   C867      1.0  0.74118  0.73424  0.73245  1.0000
  C   C868      1.0  0.73262  0.71890  0.76039  1.0000
  C   C869      1.0  0.70522  0.72146  0.77130  1.0000
  H   H683      1.0  0.67955  0.76858  0.71236  1.0000
  H   H684      1.0  0.72812  0.76422  0.69408  1.0000
  H   H685      1.0  0.74722  0.70484  0.77352  1.0000
  H   H686      1.0  0.69894  0.70946  0.79261  1.0000
  C   C870      1.0  0.92965  0.72617  0.49899  1.0000
  C   C871      1.0  0.56265  0.64886  0.76290  1.0000
  H   H687      1.0  0.67837  0.84475  0.66816  1.0000
  P   P30       1.0  0.53127  0.65721  0.66991  1.0000
  H   H688      1.0  0.93090  0.70690  0.88733  1.0000
  C   C872      1.0  0.85517  0.74540  0.51455  1.0000
  C   C873      1.0  0.74954  0.72942  0.93479  1.0000
  C   C874      1.0  0.94315  0.71282  0.74439  1.0000
  C   C875      1.0  0.94744  0.73408  0.73012  1.0000
  C   C876      1.0  0.97724  0.74295  0.74500  1.0000
  C   C877      1.0  0.53017  0.70212  0.69005  1.0000
  H   H689      1.0  0.92044  0.70556  0.73287  1.0000
  C   C878      1.0  0.72238  0.76062  0.95244  1.0000
  H   H690      1.0  0.68800  0.79750  0.77998  1.0000
  H   H691      1.0  0.63904  0.78934  0.79288  1.0000
  C   C879      1.0  0.96841  0.94826  0.96241  1.0000
  C   C880      1.0  0.91029  0.81774  0.60097  1.0000
  H   H692      1.0  0.82757  0.87165  0.92106  1.0000
  C   C881      1.0  0.75612  0.85486  0.51154  1.0000
  C   C882      1.0  0.75771  0.85043  0.85844  1.0000
  S   S126      1.0  0.95270  0.92295  0.93667  1.0000
  C   C883      1.0  0.57792  0.68852  0.68284  1.0000
  H   H693      1.0  0.71415  0.76994  0.97638  1.0000
  C   C884      1.0  0.93090  0.79975  0.87214  1.0000
  H   H694      1.0  0.98387  0.80434  0.83117  1.0000
  C   C885      1.0  0.75251  0.83236  0.51744  1.0000
  C   C886      1.0  0.85661  0.92152  0.96502  1.0000
  C   C887      1.0  0.95145  0.89745  0.83229  1.0000
  C   C888      1.0  0.92488  0.81673  0.83991  1.0000
  H   H695      1.0  0.79528  0.90486  0.91824  1.0000
  H   H696      1.0  0.58321  0.74321  0.70885  1.0000
  H   H697      1.0  0.59242  0.67522  0.67851  1.0000
  C   C889      1.0  0.84076  0.95942  0.96557  1.0000
  H   H698      1.0  0.72233  0.84083  0.63841  1.0000
  C   C890      1.0  0.96870  0.70036  0.77130  1.0000
  C   C891      1.0  0.97426  0.86162  0.83220  1.0000
  C   C892      1.0  0.96942  0.74183  0.91179  1.0000
  H   H699      1.0  0.81024  0.77863  0.94941  1.0000
  C   C893      1.0  0.65522  0.80068  0.81587  1.0000
  H   H700      1.0  0.97654  0.77204  0.98430  1.0000
  H   H701      1.0  0.74697  0.72610  0.86336  1.0000
  C   C894      1.0  0.54297  0.72320  0.69961  1.0000
  C   C895      1.0  0.73972  0.86935  0.85611  1.0000
  C   C896      1.0  0.80296  0.87109  0.90319  1.0000
  C   C897      1.0  0.94823  0.87502  0.82166  1.0000
  H   H702      1.0  0.86197  0.94606  0.91782  1.0000
  H   H703      1.0  0.92442  0.83353  0.85143  1.0000
  H   H704      1.0  0.54938  0.67751  0.86995  1.0000
  C   C898      1.0  0.92780  0.76627  0.94974  1.0000
  C   C899      1.0  0.95585  0.71287  0.51310  1.0000
  H   H705      1.0  0.92354  0.75629  0.79796  1.0000
  Fe  Fe63      1.0  0.95708  0.89093  0.97580  1.0000
  H   H706      1.0  0.77114  0.86453  0.53977  1.0000
  C   C900      1.0  0.98504  0.72242  0.52891  1.0000
  H   H707      1.0  0.49678  0.65205  0.56997  1.0000
  C   C901      1.0  0.78482  0.88973  0.90153  1.0000
  H   H708      1.0  0.62770  0.80567  0.86021  1.0000
  P   P31       1.0  0.74018  0.82552  0.82903  1.0000
  C   C902      1.0  0.76415  0.80170  0.84943  1.0000
  C   C903      1.0  0.73414  0.83060  0.76857  1.0000
  C   C904      1.0  0.75901  0.82924  0.75172  1.0000
  C   C905      1.0  0.75468  0.83283  0.70492  1.0000
  C   C906      1.0  0.77937  0.79886  0.89698  1.0000
  C   C907      1.0  0.79810  0.78048  0.91280  1.0000
  C   C908      1.0  0.80113  0.76454  0.88137  1.0000
  C   C909      1.0  0.78510  0.76687  0.83423  1.0000
  C   C910      1.0  0.76659  0.78529  0.81827  1.0000
  H   H709      1.0  0.76498  0.82447  0.54989  1.0000
  H   H710      1.0  0.71502  0.83837  0.90281  1.0000
  H   H711      1.0  0.78173  0.82531  0.77473  1.0000
  H   H712      1.0  0.77397  0.83141  0.69212  1.0000
  H   H713      1.0  0.77700  0.81094  0.92181  1.0000
  H   H714      1.0  0.87800  0.76539  0.92435  1.0000
  H   H715      1.0  0.81552  0.75025  0.89347  1.0000
  H   H716      1.0  0.78665  0.75431  0.80984  1.0000
  H   H717      1.0  0.75407  0.78651  0.78166  1.0000
  C   C911      1.0  0.98065  0.90657  0.85298  1.0000
  C   C912      1.0  0.97880  0.72812  0.95073  1.0000
  H   H718      1.0  0.92550  0.86799  0.80632  1.0000
  C   C913      1.0  0.74116  0.74214  0.96728  1.0000
  C   C914      1.0  0.89690  0.82401  0.55486  1.0000
  S   S127      1.0  0.78799  0.77477  0.51827  1.0000
  C   C915      1.0  0.88514  0.69889  0.84500  1.0000
  C   C916      1.0  0.91803  0.81200  0.79286  1.0000
  C   C917      1.0  0.85013  0.72940  0.81939  1.0000
  P   P32       1.0  0.93276  0.75558  0.89731  1.0000
  C   C918      1.0  0.68302  0.80538  0.80865  1.0000
  H   H719      1.0  0.71529  0.86900  0.83729  1.0000
  H   H720      1.0  0.91189  0.82513  0.76772  1.0000
  H   H721      1.0  0.98223  0.92383  0.86226  1.0000
  C   C919      1.0  0.64883  0.80986  0.85375  1.0000
  H   H722      1.0  0.69767  0.78056  0.89496  1.0000
  H   H723      1.0  0.96612  0.82108  0.75256  1.0000
  C   C920      1.0  0.59048  0.70966  0.69189  1.0000
  H   H724      1.0  0.82787  0.73557  0.79891  1.0000
  H   H725      1.0  0.91222  0.82949  0.62862  1.0000
  C   C921      1.0  0.89832  0.76928  0.95306  1.0000
  H   H726      1.0  0.98074  0.75929  0.73425  1.0000
  H   H727      1.0  0.86839  0.76157  0.84143  1.0000
  C   C922      1.0  0.57300  0.72701  0.70018  1.0000
  H   H728      1.0  0.57957  0.66068  0.76027  1.0000
  C   C923      1.0  0.93013  0.77778  0.85739  1.0000
  C   C924      1.0  0.90840  0.71349  0.86927  1.0000
  H   H729      1.0  0.68581  0.83888  0.75071  1.0000
  C   C925      1.0  0.70515  0.83679  0.73834  1.0000
  C   C926      1.0  0.96017  0.96756  0.93634  1.0000
  C   C927      1.0  0.52310  0.65147  0.88703  1.0000
  H   H730      1.0  0.71455  0.75932  0.83816  1.0000
  C   C928      1.0  0.75324  0.88890  0.87779  1.0000
  C   C929      1.0  0.71297  0.76675  0.90611  1.0000
  C   C930      1.0  0.91637  0.78065  0.57590  1.0000
  C   C931      1.0  0.90304  0.78680  0.52942  1.0000
  H   H731      1.0  0.76254  0.71438  0.94489  1.0000
  C   C932      1.0  0.72559  0.83822  0.67472  1.0000
  H   H732      1.0  0.53007  0.73646  0.70836  1.0000
  C   C933      1.0  0.87324  0.74406  0.84353  1.0000
  S   S128      1.0  0.95283  0.85839  0.93787  1.0000
  C   C934      1.0  0.91839  0.79024  0.77816  1.0000
  H   H733      1.0  0.80418  0.83760  0.88202  1.0000
  C   C935      1.0  0.78953  0.85160  0.88130  1.0000
  C   C936      1.0  0.90263  0.73625  0.86862  1.0000
  C   C937      1.0  0.55890  0.65060  0.60198  1.0000
  H   H734      1.0  0.83858  0.97579  0.95112  1.0000
  C   C938      1.0  0.57838  0.65578  0.92103  1.0000
  H   H735      1.0  0.96528  0.68371  0.78093  1.0000
  H   H736      1.0  0.51134  0.74264  0.89193  1.0000
  C   C939      1.0  0.69821  0.82835  0.87756  1.0000
  C   C940      1.0  0.67044  0.82349  0.88485  1.0000
  H   H737      1.0  0.55279  0.66751  0.59209  1.0000
  C   C941      1.0  0.70087  0.84036  0.69149  1.0000
  H   H738      1.0  0.61416  0.71254  0.69401  1.0000
  C   C942      1.0  0.70425  0.81986  0.83854  1.0000
  H   H739      1.0  0.66590  0.82962  0.91539  1.0000
  C   C943      1.0  0.74041  0.73582  0.88844  1.0000
  C   C944      1.0  0.92018  0.79609  0.61145  1.0000
  C   C945      1.0  0.92438  0.77315  0.81023  1.0000
  H   H740      1.0  0.91311  0.78654  0.74169  1.0000
  H   H741      1.0  0.95720  0.73542  0.62095  1.0000
  H   H742      1.0  0.82444  0.81543  0.52944  1.0000
  C   C946      1.0  0.54739  0.68465  0.68085  1.0000
  C   C947      1.0  0.55018  0.66321  0.89123  1.0000
  C   C948      1.0  0.98599  0.81039  0.76261  1.0000
  H   H743      1.0  0.86639  0.75265  0.54825  1.0000
  H   H744      1.0  0.92306  0.76377  0.58485  1.0000
  C   C949      1.0  0.89340  0.80866  0.51919  1.0000
  C   C950      1.0  0.72215  0.75452  0.87413  1.0000
  H   H745      1.0  0.92965  0.79097  0.64723  1.0000
  H   H746      1.0  0.93125  0.90774  0.82599  1.0000
  H   H747      1.0  0.82165  0.72872  0.53771  1.0000
  H   H748      1.0  0.88989  0.68143  0.84482  1.0000
  C   C951      1.0  0.81355  0.81231  0.49286  1.0000
  H   H749      1.0  0.93506  0.80390  0.90820  1.0000
  C   C952      1.0  0.93249  0.74922  0.50111  1.0000
  C   C953      1.0  0.85602  0.70686  0.81996  1.0000
  H   H750      1.0  0.83811  0.69569  0.80018  1.0000
  H   H751      1.0  0.73926  0.90343  0.87594  1.0000
  C   C954      1.0  0.85384  0.94268  0.94665  1.0000
  H   H752      1.0  0.98298  0.77133  0.64408  1.0000
  H   H753      1.0  0.88861  0.84068  0.54668  1.0000
  H   H754      1.0  0.58077  0.64581  0.55010  1.0000
  H   H755      1.0  0.94414  0.96669  0.90148  1.0000
  H   H756      1.0  0.97181  0.84416  0.82521  1.0000
  H   H757      1.0  0.50726  0.69950  0.69130  1.0000
  H   H758      1.0  0.86637  0.90853  0.94975  1.0000
  H   H759      1.0  0.50176  0.65680  0.86224  1.0000
  H   H760      1.0  0.98139  0.75398  0.85330  1.0000
  C   C955      1.0  0.98809  0.74532  0.53075  1.0000
  H   H761      1.0  0.95348  0.69511  0.51187  1.0000
  H   H762      1.0  0.73087  0.80228  0.48563  1.0000
  H   H763      1.0  0.96453  0.72617  0.97245  1.0000
  C   C956      1.0  0.98817  0.74385  0.88388  1.0000
  C   C957      1.0  0.98164  0.73609  0.63948  1.0000
  H   H764      1.0  0.99260  0.81223  0.69655  1.0000
  H   H765      1.0  0.98613  0.70083  0.64447  1.0000
  C   C958      1.0  0.82985  0.73164  0.50887  1.0000
  C   C959      1.0  0.49759  0.70993  0.90364  1.0000
  C   C960      1.0  0.96193  0.75870  0.51731  1.0000
  H   H766      1.0  0.73662  0.88254  0.96516  1.0000
  Fe  Fe64      1.0  0.91737  0.85066  0.97121  1.0000
  H   H767      1.0  0.52097  0.70409  0.91902  1.0000
  H   H768      1.0  0.90731  0.71834  0.48690  1.0000
