data_image0
_chemical_formula_structural       CHC3HSHC2HC5HCHSHCFeC2HC3SHCHCHC6HC4SC3PC2H2CHSC2HPH2SCPH2C2H2FeHC3PHCH3C2H3CH2CHC4H2CH2C4FeCH3CHCH3CHC3HC2HCH2C2H5SC2HFeC2H2CH5CHFeCH2C2H2CHC2H2C2H2CHCHC5HCH2CH3CH2C4H3CHC3HC3H2SC3HCHCHCHC4HCHFeC3HC2HC3S2HC3H2CSHCHC2SPCHFeCPHCHC2HC2SH3SHCSC3H2FeC2HCH2C3HC3PHCHC7FeSC2SC2SHCHC3SCH2FeCHCSCHFeCHC2H3C3SCSH2SC3HCHC2S2H2FeHCH3CHC3FeHSHFeSC10FeC3H2C2HPCHCH5C2HSHC2H4SC2HCH2CFeCFeCHSHC2HS2H2CHSHCHFeCH3CHCFeCH2CHCFe2CH3CHPHCHC3H3CFeC2HC2SH3C2HSH2C2H2CH2C3HC2HCHCH2CHC2H2C5HCHSHC2PHC6HCH2C3H2C2HSCHPC2HCFeHCHCHCPC6HCH3CHCHC2H2C2HCH2C3HCH2C2SC3H3C4HC3HC6SC3HC2HCH5C3H3C3FeH3FeC4H3CSH3CS2HC4HCH2CSH3CHCHCHC2H2C2H3CPHFeSC4HCH2CSHCHCH3C7H2PC2H5CHCSHCHC2H2SH2C7HC3H2C2H5C3H2CSHFeC2HSC3HCHSCHCH2SH2FeCSCHCH3C3HC2SC2HSHC2HC2HC11H4FeCSH3C3FeSH3PHFeC2HC4HC4HC2H2C2HC6PCHC4HC2H2C4S2H3C3HCH2CH2CHPFeHC3H2SCH7CH2FeC2SHC3HC2HC3HCFeS2CH3CH3SC5HSHC4HC2HCHC2HC3H2CHCHC2HCH2CH2CH2C3HC2HC3H2PC4H2CH2SC2HC2HC2HC2HCHC3H2CHC2H4C3HC2H2SC3HC3H3C2H2C3H2C2H6C2HC2HC3HC7HCP2C3H2C2HC3H2CSH4SC2H2CH3PSHCSCFeC3HCFeH3CHCHCH2CFeCH2C3SC2HCFeCHC2HCH2SCHC2H2SC2HCHCH3C2FeHCHCH2FeCHC2SHC4HCSCHC3H3C4H2CHCHCH2C2PHCHC3PHC2SHC2HC2HCHC3H3C3HC2H8C2H2C4HCHCHCHCHC2HCH2C5H3CPH5SHCSHC3H3C5H3SCPCH2C3H5CFeHCH3FeCHCHC2H2FeCH2C2H2CHC2HC3HC4H2S2CPH4SC2FeCH5CFeSC2H4CH2CPCH2C4HCSCHC4H4C6HCHSC2FeCS2H2CH2CHC2SHC4HSH2SHCH2C2HC2SC2HFeC2FeHCH2CH3CSCHC2HC5SCHC5HC4HC3HCH5C2H3C6FeC2HCSC4H3CHSCFeC4HC4HCH2CSCHC3SC4HC2HFeHC2H2CHCSH2CFeC2HFeCH4C2H2CSC5H3CHC2HCHCH2CHSH3CHFeHC2HCH2PFeC2HC2H2C3H3C3HCPC2HCHFeCH2CH2CSFeHC3HC3SC3H3C3HPC4HSFeHCHC2FeH2S2CSH2C3HC2FeC5H2CHCHC2H2CH3S2CHC2HFeHFeCH3C2HC3H3CSC2HS2C2S2HCH2CH3CHCHCHCHC5H3CHC4H2SH4C3HCSC4HC2H2C3HC2SH4CS2C3SC2HCSFeH3C3HC2SH2CHCH2CS2CHCPC2H2CSHC7PCSCH2CH2CFeC2H5CSCH3C2HC2H2CFeH2CHC2FeS2C3HCH2CSHCHCSC2FeCSC5FeS2HCH2C2HCHC3H3SCHCH2CH3CHSCH2C2SFeHFeCHFe2H3SC2HCHC2HCHCFeCH2SC2H3C8HCSH4C4HCH3SCH3CH2C2PCFeCSCH2CSCHSCH5C2FeHC4FeHSC6HCHSHC2H3CH2C2H2CH2SH3C2HC5H6C2H3C2HCHS2H2C2HP2HCH5C2HCHCH2CHC2H4CHCHC2HCHCHSC2S2C3HC2H2CFeHC4HCH2SCH2C2H2CHC2HC2H6CH2FeSHFe2H2C3H3CHSHC2H2CHSCHC3H2C9HC3HCHC4HSPHC3H2CH2C2HCH3CHC2HSCHCHCHCH2C3H2CH2CSCHC5HCSHSC2HC2HC2PHC2FeC2SC3H6CHC2H4C3H2C3HCSCHSCH2FeSPC2HCSCFeHCH2C5HCHC5HCSH3SCH4CH3CHCHCHFeH2CHC3H2C2H2CSCFeHSHSC2HPCHC3HCPHSH3CSH2SH3CH2C2Fe2SC4HC2HC4HCHC5FeH3FeC2HFeC2HSC3HC2H2CSC2HFeCH3CHCFeHC2HSCH2C3H2C2H2CHSC3HC2HC4H5C2H2C3HCSCHC4SCSHCH3C4H3CHC2SC2SH3CHS2H3CHC3H3C3HC2H2C3H3C3HSHCH2FeCH2SCHC2HFeCH3CHC5H2SCHC3H6C3HSH4C2HCH3SC3HC3H3CPFeC4H3CH2CHCH2CHCHSC5HCFe2CHCFeHC3HCHC2SC4HC2HC5S2H3CH2C2HSH2CHC4HC3FeH2CH2C8H3C2H4CHSCHCHFeHCHCSCH2CFeHC3H3CHCFeHPC2HSC3HC2HS2PHCHC5H2C2HCHCH4C3H2CHCHCH2C3HC2SHFeC2H5C3HSC2HCSC2FeHC5HSCHSHC2HC3H2C2H3CPCHS2HCPHCHSH3C4HSH2C2HC4H2FeHC3PHC2PHCFeHCHC2H3CHCH3CSHC2HC8HC4HC2HC7FeHCHCSHC2H2CH2CHC2HFeHCHC2H3CHC2H3C2H2C2H3CHC2H4C4H2CH4CHC3H2CSHC4SH3C3H4FeH2C2HC2HC2FeH2C3SHC2HC3PCHSHSC2HCH3C4HCSC2H2C3H2C4PCHCH7CPSHC3HC6PC3S2H2CH2CHC2PHCHC3FeCHC2H4C3H2C2HCH2CFeC2H5C4HC3HCHSC5SH2CFeCH2C3HSC2H3CH2C2HCH2C4HC3SHC3PH2CPHC2HCFeH2SH2C2HCSCHC2HCH3C2H2CH2FeHCHC8H2SHC2H2CHCHCHFeCH6C2HC4HCSC4H2C8H2CHS2CH2CFeH2FeH2C3HCHCHSCHS3HC4HC3HCH2FeC3HCH2C5H2FeHSC4HCHFeH2C2HCSH2CH2CH3CHCH2CH3CHC4PHC2HC2H4CH2FeCH2CHFeHS2HCHC2HC4H2CHCHC3H3SCS2C3PC2H3CH4SH2C2SC3HC2HC2HC5S2PCHC4SH2C2HC6H4C3HC4H3CPCHCHCHCSC2FeH4CHCPCHC4H4CHCHCHSPC2HC2H2CHSCPC5HC2H4C2SHCHC3H3C6HCH2SC9HCH3C2HCHC4H2SHC8H4C2H2C4HCFeH2PH2CHC2HCSHSHCHSH2C3H4CHC2HC2HC2H2CH3C2HC3HC3SFeHC3HSCFeHC3H2C2HC8HCHC2H2FeCHC2HPHC2SHCSH3C2H2C2H2SCFeHC2FeCH3CHC2H2CHC3H2CSHSHC2HSHFeH3C2HC2HC5HCH2CHC2HCHC2HCFeHCHC3SH2PCHCHCH2C2H2C2SC2H2CHCHS2C2HFeHC3HCHCH2SCHCH2CHC2HCHC3HCH3C4SHCHCHC3HCHC3HCHPCPHC2SCH2CHCH3C2SCHCSHCHCHC2H2C4HCSHPCS3CSH2FeC2HCFeC3HCHC3HSCSFeC3H3C3H2C2HCHFeCFeH2CH4C2H3C4HC3HCFe2CHC2HCHCH3C2H2CSHS2PC2PCHC2H3CHC3HCHC7SCH3CH2C5FeHCSHC4H2CPC2HC2HC2PCH2C2HCH2C2H4CHC4HC2FeCH2C2HC4HCH2CH4C2HFeC2H3CFeSC2H3PC2HCSC3H3SCSCHCHC3HC2HC2HCH2CH3C3HC2H3CH2C3H
_chemical_formula_sum              "C2160 H1728 S288 Fe144 P72"
_cell_length_a       46.6838
_cell_length_b       44.5217
_cell_length_c       36.0856
_cell_angle_alpha    84.9245
_cell_angle_beta     68.1013
_cell_angle_gamma    116.829

_space_group_name_H-M_alt    "P 1"
_space_group_IT_number       1

loop_
  _space_group_symop_operation_xyz
  'x, y, z'

loop_
  _atom_site_type_symbol
  _atom_site_label
  _atom_site_symmetry_multiplicity
  _atom_site_fract_x
  _atom_site_fract_y
  _atom_site_fract_z
  _atom_site_occupancy
  C   C1        1.0  0.12447  0.17246  0.66702  1.0000
  H   H1        1.0  0.42353  0.13422  0.75490  1.0000
  C   C2        1.0  0.29438  0.37613  0.55748  1.0000
  C   C3        1.0  0.17590  0.41212  0.67496  1.0000
  C   C4        1.0  0.05505  0.00155  0.67483  1.0000
  H   H2        1.0  0.43392  0.41043  0.67885  1.0000
  S   S1        1.0  0.29011  0.24702  0.77645  1.0000
  H   H3        1.0  0.99767  0.07760  0.77450  1.0000
  C   C5        1.0  0.14918  0.05786  0.66214  1.0000
  C   C6        1.0  0.40341  0.42869  0.59745  1.0000
  H   H4        1.0  0.21899  0.05177  0.73047  1.0000
  C   C7        1.0  0.16179  0.19231  0.64062  1.0000
  C   C8        1.0  0.16177  0.47864  0.77247  1.0000
  C   C9        1.0  0.21629  0.31774  0.65915  1.0000
  C   C10       1.0  0.31853  0.46022  0.61895  1.0000
  C   C11       1.0  0.32079  0.39701  0.76909  1.0000
  H   H5        1.0  0.01330  0.13794  0.77904  1.0000
  C   C12       1.0  0.04500  0.08225  0.77657  1.0000
  H   H6        1.0  0.12494  0.08060  0.63860  1.0000
  S   S2        1.0  0.05671  0.29053  0.74693  1.0000
  H   H7        1.0  0.26244  0.02388  0.75120  1.0000
  C   C13       1.0  0.20445  0.36545  0.66302  1.0000
  Fe  Fe1       1.0  0.25305  0.26711  0.78276  1.0000
  C   C14       1.0  0.31594  0.03715  0.55489  1.0000
  C   C15       1.0  0.08329  0.27170  0.74325  1.0000
  H   H8        1.0  0.02859  0.99217  0.77842  1.0000
  C   C16       1.0  0.12974  0.24585  0.73380  1.0000
  C   C17       1.0  0.44866  0.34956  0.62838  1.0000
  C   C18       1.0  0.38816  0.33232  0.71093  1.0000
  S   S3        1.0  0.25408  0.29595  0.72790  1.0000
  H   H9        1.0  0.97935  0.20277  0.79681  1.0000
  C   C19       1.0  0.16292  0.44962  0.63949  1.0000
  H   H10       1.0  0.45842  0.12875  0.58078  1.0000
  C   C20       1.0  0.37846  0.14242  0.77975  1.0000
  H   H11       1.0  0.44217  0.46883  0.65618  1.0000
  C   C21       1.0  0.26397  0.09126  0.67209  1.0000
  C   C22       1.0  0.40819  0.02463  0.62136  1.0000
  C   C23       1.0  0.26281  0.47325  0.65642  1.0000
  C   C24       1.0  0.01789  0.02478  0.67094  1.0000
  C   C25       1.0  0.08975  0.26373  0.77658  1.0000
  C   C26       1.0  0.45016  0.22121  0.72344  1.0000
  H   H12       1.0  0.00482  0.03938  0.68189  1.0000
  C   C27       1.0  0.09860  0.26492  0.70595  1.0000
  C   C28       1.0  0.15288  0.16524  0.58714  1.0000
  C   C29       1.0  0.20605  0.31231  0.62743  1.0000
  C   C30       1.0  0.37960  0.45055  0.74260  1.0000
  S   S4        1.0  0.42076  0.47503  0.74366  1.0000
  C   C31       1.0  0.28239  0.43229  0.63873  1.0000
  C   C32       1.0  0.34945  0.32933  0.78047  1.0000
  C   C33       1.0  0.38252  0.10315  0.73791  1.0000
  P   P1        1.0  0.20717  0.40208  0.68262  1.0000
  C   C34       1.0  0.11551  0.14413  0.61462  1.0000
  C   C35       1.0  0.19459  0.36012  0.63078  1.0000
  H   H13       1.0  0.20632  0.29150  0.61418  1.0000
  H   H14       1.0  0.31011  0.12465  0.61207  1.0000
  C   C36       1.0  0.43350  0.11917  0.57846  1.0000
  H   H15       1.0  0.42282  0.48087  0.60396  1.0000
  S   S5        1.0  0.27351  0.38748  0.73689  1.0000
  C   C37       1.0  0.43454  0.24782  0.77741  1.0000
  C   C38       1.0  0.43046  0.44851  0.64285  1.0000
  H   H16       1.0  0.36635  0.02774  0.70136  1.0000
  P   P2        1.0  0.40529  0.34616  0.65452  1.0000
  H   H17       1.0  0.22041  0.44234  0.74060  1.0000
  H   H18       1.0  0.38649  0.37553  0.59676  1.0000
  S   S6        1.0  0.18337  0.29452  0.79559  1.0000
  C   C39       1.0  0.34994  0.01213  0.73415  1.0000
  P   P3        1.0  0.32726  0.07786  0.56850  1.0000
  H   H19       1.0  0.30377  0.10153  0.76466  1.0000
  H   H20       1.0  0.12820  0.36275  0.72079  1.0000
  C   C40       1.0  0.38602  0.31036  0.59992  1.0000
  C   C41       1.0  0.11359  0.39390  0.69242  1.0000
  H   H21       1.0  0.32623  0.29860  0.69807  1.0000
  H   H22       1.0  0.26371  0.11322  0.68267  1.0000
  Fe  Fe2       1.0  0.42403  0.44514  0.79394  1.0000
  H   H23       1.0  0.21999  0.00144  0.70687  1.0000
  C   C42       1.0  0.36786  0.08447  0.61132  1.0000
  C   C43       1.0  0.23937  0.02829  0.68582  1.0000
  C   C44       1.0  0.08538  0.13791  0.78183  1.0000
  P   P4        1.0  0.10521  0.08716  0.78182  1.0000
  H   H24       1.0  0.07097  0.99907  0.68876  1.0000
  C   C45       1.0  0.34869  0.09366  0.74077  1.0000
  H   H25       1.0  0.98447  0.25323  0.75487  1.0000
  H   H26       1.0  0.35825  0.40532  0.79400  1.0000
  H   H27       1.0  0.14715  0.05265  0.75739  1.0000
  C   C46       1.0  0.32438  0.26785  0.61562  1.0000
  C   C47       1.0  0.42570  0.41531  0.65568  1.0000
  H   H28       1.0  0.27699  0.40596  0.63956  1.0000
  H   H29       1.0  0.22347  0.34800  0.70161  1.0000
  H   H30       1.0  0.24121  0.19036  0.76473  1.0000
  C   C48       1.0  0.26615  0.03455  0.64637  1.0000
  H   H31       1.0  0.30039  0.37122  0.79152  1.0000
  H   H32       1.0  0.38881  0.28255  0.78805  1.0000
  C   C49       1.0  0.41936  0.45522  0.61373  1.0000
  H   H33       1.0  0.28371  0.45980  0.73168  1.0000
  C   C50       1.0  0.21522  0.34396  0.67719  1.0000
  C   C51       1.0  0.31450  0.41123  0.73891  1.0000
  C   C52       1.0  0.14077  0.05770  0.73257  1.0000
  C   C53       1.0  0.41032  0.38869  0.63883  1.0000
  H   H34       1.0  0.35587  0.35678  0.72343  1.0000
  H   H35       1.0  0.37126  0.28438  0.55670  1.0000
  C   C54       1.0  0.03927  0.02154  0.68771  1.0000
  H   H36       1.0  0.33606  0.45651  0.68748  1.0000
  H   H37       1.0  0.34004  0.45506  0.60442  1.0000
  C   C55       1.0  0.28233  0.47412  0.75443  1.0000
  C   C56       1.0  0.23710  0.00133  0.77531  1.0000
  C   C57       1.0  0.43317  0.04126  0.63641  1.0000
  C   C58       1.0  0.12905  0.07389  0.66503  1.0000
  Fe  Fe3       1.0  0.19374  0.25897  0.75977  1.0000
  C   C59       1.0  0.14685  0.12241  0.77733  1.0000
  H   H38       1.0  0.09730  0.12483  0.60543  1.0000
  H   H39       1.0  0.18712  0.32936  0.58875  1.0000
  H   H40       1.0  0.09997  0.09489  0.70273  1.0000
  C   C60       1.0  0.21484  0.17164  0.76833  1.0000
  H   H41       1.0  0.34231  0.06676  0.63921  1.0000
  C   C61       1.0  0.40011  0.09714  0.61423  1.0000
  H   H42       1.0  0.16044  0.05184  0.63370  1.0000
  H   H43       1.0  0.08486  0.37431  0.71015  1.0000
  H   H44       1.0  0.21659  0.46151  0.62433  1.0000
  C   C62       1.0  0.35340  0.41656  0.77084  1.0000
  H   H45       1.0  0.07243  0.13245  0.67521  1.0000
  C   C63       1.0  0.36559  0.01648  0.76103  1.0000
  C   C64       1.0  0.32999  0.10887  0.76246  1.0000
  C   C65       1.0  0.19016  0.38915  0.73885  1.0000
  H   H46       1.0  0.40976  0.03959  0.59463  1.0000
  C   C66       1.0  0.16329  0.35394  0.76368  1.0000
  C   C67       1.0  0.07657  0.10368  0.77984  1.0000
  H   H47       1.0  0.39476  0.43397  0.57490  1.0000
  C   C68       1.0  0.19511  0.33346  0.61330  1.0000
  H   H48       1.0  0.42509  0.29300  0.64020  1.0000
  H   H49       1.0  0.13374  0.24716  0.67223  1.0000
  C   C69       1.0  0.29026  0.09761  0.63212  1.0000
  C   C70       1.0  0.44991  0.31879  0.62604  1.0000
  H   H50       1.0  0.10974  0.15535  0.78379  1.0000
  H   H51       1.0  0.17956  0.21088  0.65096  1.0000
  H   H52       1.0  0.28321  0.25670  0.67742  1.0000
  H   H53       1.0  0.26289  0.02499  0.56375  1.0000
  H   H54       1.0  0.11507  0.42660  0.78992  1.0000
  S   S7        1.0  0.43260  0.39965  0.79027  1.0000
  C   C71       1.0  0.34467  0.13305  0.78203  1.0000
  C   C72       1.0  0.39710  0.31109  0.72970  1.0000
  H   H55       1.0  0.34968  0.34539  0.55402  1.0000
  Fe  Fe4       1.0  0.45510  0.01649  0.75128  1.0000
  C   C73       1.0  0.39887  0.39554  0.60991  1.0000
  C   C74       1.0  0.15529  0.05008  0.69577  1.0000
  H   H56       1.0  0.39722  0.09156  0.72094  1.0000
  H   H57       1.0  0.18659  0.37661  0.61906  1.0000
  C   C75       1.0  0.45930  0.28143  0.74782  1.0000
  H   H58       1.0  0.44743  0.19830  0.71346  1.0000
  H   H59       1.0  0.17186  0.03867  0.69306  1.0000
  H   H60       1.0  0.39417  0.03550  0.74929  1.0000
  H   H61       1.0  0.27608  0.38251  0.57896  1.0000
  H   H62       1.0  0.10421  0.01251  0.55396  1.0000
  C   C76       1.0  0.36146  0.28724  0.58774  1.0000
  H   H63       1.0  0.23142  0.18744  0.70226  1.0000
  Fe  Fe5       1.0  0.24361  0.32895  0.76828  1.0000
  C   C77       1.0  0.23861  0.05662  0.69897  1.0000
  H   H64       1.0  0.17140  0.44166  0.55134  1.0000
  H   H65       1.0  0.24159  0.47865  0.67128  1.0000
  C   C78       1.0  0.39735  0.12738  0.75731  1.0000
  C   C79       1.0  0.35837  0.30815  0.79875  1.0000
  H   H66       1.0  0.10659  0.43015  0.65846  1.0000
  H   H67       1.0  0.11774  0.24475  0.79778  1.0000
  C   C80       1.0  0.36403  0.34121  0.73679  1.0000
  H   H68       1.0  0.06910  0.17620  0.78426  1.0000
  C   C81       1.0  0.17540  0.14536  0.73740  1.0000
  C   C82       1.0  0.12141  0.25160  0.70143  1.0000
  H   H69       1.0  0.17162  0.14411  0.70964  1.0000
  H   H70       1.0  0.32929  0.14396  0.79914  1.0000
  C   C83       1.0  0.17601  0.18864  0.60089  1.0000
  C   C84       1.0  0.06252  0.15006  0.78167  1.0000
  H   H71       1.0  0.06826  0.45190  0.77246  1.0000
  H   H72       1.0  0.20502  0.20452  0.58068  1.0000
  C   C85       1.0  0.10134  0.14814  0.65426  1.0000
  H   H73       1.0  0.17229  0.47336  0.61604  1.0000
  C   C86       1.0  0.29156  0.06930  0.61889  1.0000
  H   H74       1.0  0.15383  0.33365  0.74935  1.0000
  C   C87       1.0  0.42923  0.21737  0.76538  1.0000
  C   C88       1.0  0.20098  0.41487  0.75863  1.0000
  C   C89       1.0  0.03112  0.12853  0.77863  1.0000
  C   C90       1.0  0.28223  0.01657  0.55565  1.0000
  C   C91       1.0  0.34074  0.44537  0.71087  1.0000
  H   H75       1.0  0.39930  0.08929  0.64407  1.0000
  C   C92       1.0  0.01212  0.00790  0.64139  1.0000
  H   H76       1.0  0.99438  0.00907  0.62942  1.0000
  H   H77       1.0  0.03728  0.05556  0.77564  1.0000
  C   C93       1.0  0.31191  0.27181  0.65550  1.0000
  H   H78       1.0  0.41456  0.32512  0.57805  1.0000
  H   H79       1.0  0.22464  0.30127  0.67015  1.0000
  H   H80       1.0  0.30531  0.24975  0.60642  1.0000
  C   C94       1.0  0.13844  0.38745  0.69838  1.0000
  H   H81       1.0  0.19425  0.99205  0.57932  1.0000
  H   H82       1.0  0.45393  0.06901  0.62128  1.0000
  C   C95       1.0  0.37312  0.46513  0.71293  1.0000
  C   C96       1.0  0.20933  0.16985  0.73298  1.0000
  C   C97       1.0  0.11304  0.25097  0.77181  1.0000
  C   C98       1.0  0.11442  0.08149  0.70185  1.0000
  H   H83       1.0  0.41500  0.30321  0.71098  1.0000
  H   H84       1.0  0.30595  0.35738  0.60394  1.0000
  H   H85       1.0  0.16468  0.48714  0.74159  1.0000
  C   C99       1.0  0.12581  0.42516  0.66326  1.0000
  H   H86       1.0  0.04260  0.03368  0.71165  1.0000
  C   C100      1.0  0.43122  0.02218  0.67118  1.0000
  C   C101      1.0  0.33643  0.29534  0.66742  1.0000
  C   C102      1.0  0.18800  0.44298  0.64474  1.0000
  H   H87       1.0  0.26740  0.01223  0.63804  1.0000
  C   C103      1.0  0.02245  0.09468  0.77589  1.0000
  C   C104      1.0  0.38234  0.29922  0.77345  1.0000
  C   C105      1.0  0.31153  0.36235  0.57130  1.0000
  H   H88       1.0  0.11368  0.17616  0.69734  1.0000
  H   H89       1.0  0.33678  0.07434  0.72649  1.0000
  S   S8        1.0  0.16171  0.23324  0.72608  1.0000
  C   C106      1.0  0.37370  0.31451  0.63993  1.0000
  C   C107      1.0  0.11944  0.07278  0.73643  1.0000
  C   C108      1.0  0.36884  0.09429  0.57257  1.0000
  H   H90       1.0  0.09343  0.27071  0.68020  1.0000
  C   C109      1.0  0.25405  0.43854  0.65713  1.0000
  H   H91       1.0  0.21062  0.42028  0.55669  1.0000
  C   C110      1.0  0.38038  0.98908  0.64171  1.0000
  H   H92       1.0  0.07742  0.99883  0.79565  1.0000
  C   C111      1.0  0.28042  0.46122  0.79260  1.0000
  H   H93       1.0  0.28082  0.43718  0.79847  1.0000
  C   C112      1.0  0.10728  0.20020  0.91743  1.0000
  C   C113      1.0  0.96149  0.45047  0.95289  1.0000
  C   C114      1.0  0.27715  0.47879  0.82302  1.0000
  C   C115      1.0  0.34914  0.28680  0.03176  1.0000
  H   H94       1.0  0.20603  0.40534  0.87314  1.0000
  C   C116      1.0  0.34563  0.48682  0.83654  1.0000
  H   H95       1.0  0.12475  0.21181  0.85100  1.0000
  Fe  Fe6       1.0  0.39733  0.37812  0.86034  1.0000
  C   C117      1.0  0.99955  0.19695  0.88193  1.0000
  C   C118      1.0  0.99581  0.40848  0.98006  1.0000
  C   C119      1.0  0.41638  0.31574  0.85763  1.0000
  H   H96       1.0  0.39236  0.43087  0.01096  1.0000
  C   C120      1.0  0.04442  0.32666  0.97246  1.0000
  C   C121      1.0  0.29133  0.06443  0.01892  1.0000
  H   H97       1.0  0.01051  0.27085  0.98712  1.0000
  C   C122      1.0  0.29975  0.36167  0.99518  1.0000
  C   C123      1.0  0.40963  0.12580  0.84189  1.0000
  C   C124      1.0  0.26760  0.39576  0.89363  1.0000
  S   S9        1.0  0.99604  0.32726  0.90553  1.0000
  S   S10       1.0  0.97657  0.27506  0.84894  1.0000
  H   H98       1.0  0.22783  0.29205  0.96470  1.0000
  C   C125      1.0  0.35249  0.15885  0.88928  1.0000
  C   C126      1.0  0.24639  0.08026  0.02799  1.0000
  C   C127      1.0  0.12930  0.14666  0.96638  1.0000
  H   H99       1.0  0.13794  0.14548  0.90383  1.0000
  H   H100      1.0  0.03628  0.12055  0.98943  1.0000
  C   C128      1.0  0.08165  0.48043  0.81449  1.0000
  S   S11       1.0  0.37515  0.99693  0.90449  1.0000
  H   H101      1.0  0.99054  0.40095  0.90287  1.0000
  C   C129      1.0  0.36326  0.17527  0.84739  1.0000
  H   H102      1.0  0.33205  0.09551  0.03653  1.0000
  C   C130      1.0  0.02691  0.00648  0.89252  1.0000
  C   C131      1.0  0.31482  0.04489  0.91055  1.0000
  S   S12       1.0  0.38436  0.42093  0.86277  1.0000
  P   P5        1.0  0.11388  0.14772  0.04876  1.0000
  C   C132      1.0  0.01673  0.17792  0.87990  1.0000
  H   H103      1.0  0.01097  0.22267  0.88652  1.0000
  Fe  Fe7       1.0  0.20822  0.03120  0.96846  1.0000
  C   C133      1.0  0.42974  0.07941  0.96047  1.0000
  P   P6        1.0  0.02418  0.45226  0.94220  1.0000
  H   H104      1.0  0.26378  0.00543  0.84715  1.0000
  C   C134      1.0  0.06129  0.35458  0.98655  1.0000
  H   H105      1.0  0.15137  0.44810  0.88303  1.0000
  C   C135      1.0  0.28751  0.05014  0.86715  1.0000
  C   C136      1.0  0.99689  0.47166  0.94710  1.0000
  H   H106      1.0  0.26491  0.21939  0.02191  1.0000
  C   C137      1.0  0.05777  0.34746  0.02702  1.0000
  C   C138      1.0  0.26036  0.05870  0.01599  1.0000
  S   S13       1.0  0.35710  0.32102  0.89903  1.0000
  H   H107      1.0  0.28805  0.17796  0.93978  1.0000
  H   H108      1.0  0.41192  0.28871  0.96942  1.0000
  H   H109      1.0  0.37809  0.07524  0.99149  1.0000
  S   S14       1.0  0.45200  0.11296  0.97930  1.0000
  H   H110      1.0  0.31373  0.99658  0.92334  1.0000
  C   C139      1.0  0.31471  0.47825  0.87324  1.0000
  S   S15       1.0  0.04317  0.35817  0.80356  1.0000
  C   C140      1.0  0.28798  0.23809  0.02525  1.0000
  C   C141      1.0  0.27769  0.01594  0.86542  1.0000
  C   C142      1.0  0.00153  0.17018  0.98185  1.0000
  H   H111      1.0  0.24946  0.31520  0.03933  1.0000
  H   H112      1.0  0.44742  0.30834  0.03635  1.0000
  Fe  Fe8       1.0  0.98415  0.05275  0.98756  1.0000
  C   C143      1.0  0.33801  0.25076  0.04015  1.0000
  C   C144      1.0  0.32048  0.19477  0.87269  1.0000
  H   H113      1.0  0.16202  0.12036  0.03640  1.0000
  C   C145      1.0  0.02152  0.28425  0.03848  1.0000
  H   H114      1.0  0.30853  0.20928  0.86647  1.0000
  H   H115      1.0  0.14414  0.17529  0.95672  1.0000
  C   C146      1.0  0.20346  0.35618  0.88842  1.0000
  C   C147      1.0  0.21373  0.23940  0.99216  1.0000
  C   C148      1.0  0.20667  0.44768  0.93958  1.0000
  H   H116      1.0  0.07069  0.36898  0.03816  1.0000
  C   C149      1.0  0.06346  0.47675  0.95003  1.0000
  C   C150      1.0  0.07094  0.48022  0.85624  1.0000
  C   C151      1.0  0.29461  0.11318  0.04588  1.0000
  P   P7        1.0  0.27117  0.46019  0.87393  1.0000
  H   H117      1.0  0.09976  0.43934  0.01901  1.0000
  C   C152      1.0  0.26329  0.10728  0.04352  1.0000
  H   H118      1.0  0.34970  0.41166  0.95747  1.0000
  C   C153      1.0  0.15192  0.12601  0.81299  1.0000
  C   C154      1.0  0.22976  0.19816  0.90083  1.0000
  C   C155      1.0  0.00171  0.21105  0.03677  1.0000
  C   C156      1.0  0.14232  0.21957  0.01320  1.0000
  C   C157      1.0  0.38137  0.29925  0.89109  1.0000
  C   C158      1.0  0.14969  0.19386  0.02462  1.0000
  C   C159      1.0  0.39570  0.02685  0.92805  1.0000
  Fe  Fe9       1.0  0.37613  0.16898  0.02410  1.0000
  S   S16       1.0  0.15800  0.03159  0.00449  1.0000
  C   C160      1.0  0.26882  0.34239  0.03434  1.0000
  C   C161      1.0  0.10169  0.03966  0.84258  1.0000
  S   S17       1.0  0.42755  0.47422  0.92579  1.0000
  C   C162      1.0  0.18576  0.20402  0.01330  1.0000
  C   C163      1.0  0.00245  0.38139  0.97207  1.0000
  S   S18       1.0  0.24549  0.30174  0.82200  1.0000
  H   H119      1.0  0.04659  0.33173  0.94141  1.0000
  C   C164      1.0  0.22230  0.16365  0.90418  1.0000
  H   H120      1.0  0.44776  0.03220  0.89552  1.0000
  C   C165      1.0  0.25246  0.35939  0.89990  1.0000
  C   C166      1.0  0.04632  0.99453  0.90391  1.0000
  C   C167      1.0  0.21878  0.39266  0.88152  1.0000
  S   S19       1.0  0.03231  0.08741  0.92474  1.0000
  C   C168      1.0  0.09407  0.47428  0.92929  1.0000
  H   H121      1.0  0.35499  0.20659  0.80752  1.0000
  H   H122      1.0  0.06418  0.99265  0.98208  1.0000
  Fe  Fe10      1.0  0.13568  0.99796  0.96776  1.0000
  C   C169      1.0  0.26771  0.21609  0.82580  1.0000
  H   H123      1.0  0.04176  0.18917  0.88217  1.0000
  C   C170      1.0  0.17031  0.25497  0.99244  1.0000
  S   S20       1.0  0.39410  0.15503  0.96465  1.0000
  C   C171      1.0  0.09457  0.08954  0.01957  1.0000
  H   H124      1.0  0.25703  0.25067  0.85911  1.0000
  Fe  Fe11      1.0  0.18575  0.26439  0.84615  1.0000
  C   C172      1.0  0.43228  0.04096  0.91717  1.0000
  H   H125      1.0  0.29358  0.47318  0.93963  1.0000
  C   C173      1.0  0.07992  0.44421  0.04011  1.0000
  C   C174      1.0  0.18579  0.40549  0.80234  1.0000
  H   H126      1.0  0.28090  0.06545  0.85066  1.0000
  H   H127      1.0  0.16442  0.27431  0.98261  1.0000
  H   H128      1.0  0.96808  0.43402  0.82669  1.0000
  C   C175      1.0  0.97266  0.15579  0.02216  1.0000
  C   C176      1.0  0.32557  0.39679  0.98768  1.0000
  C   C177      1.0  0.42839  0.33689  0.98653  1.0000
  S   S21       1.0  0.09351  0.39284  0.87659  1.0000
  C   C178      1.0  0.08379  0.15704  0.88374  1.0000
  S   S22       1.0  0.44897  0.24796  0.87384  1.0000
  H   H129      1.0  0.04477  0.10865  0.04537  1.0000
  H   H130      1.0  0.98272  0.32569  0.99379  1.0000
  S   S23       1.0  0.05101  0.30152  0.85830  1.0000
  C   C179      1.0  0.08373  0.01117  0.87899  1.0000
  C   C180      1.0  0.18577  0.45791  0.96822  1.0000
  C   C181      1.0  0.02392  0.29183  0.99858  1.0000
  H   H131      1.0  0.01367  0.12864  0.87635  1.0000
  C   C182      1.0  0.10632  0.09283  0.94758  1.0000
  H   H132      1.0  0.24161  0.24670  0.98181  1.0000
  C   C183      1.0  0.24377  0.47192  0.91305  1.0000
  C   C184      1.0  0.42658  0.11639  0.86128  1.0000
  S   S24       1.0  0.19379  0.22738  0.81130  1.0000
  S   S25       1.0  0.23913  0.02370  0.99849  1.0000
  H   H133      1.0  0.19363  0.42096  0.93830  1.0000
  H   H134      1.0  0.41637  0.08873  0.87462  1.0000
  Fe  Fe12      1.0  0.45375  0.21982  0.00692  1.0000
  H   H135      1.0  0.07688  0.38161  0.96602  1.0000
  C   C185      1.0  0.31726  0.48074  0.91060  1.0000
  H   H136      1.0  0.08499  0.15029  0.85550  1.0000
  H   H137      1.0  0.30406  0.34939  0.97057  1.0000
  H   H138      1.0  0.35664  0.00108  0.82416  1.0000
  C   C186      1.0  0.25209  0.22426  0.86162  1.0000
  H   H139      1.0  0.03666  0.40733  0.02917  1.0000
  C   C187      1.0  0.96684  0.40132  0.01826  1.0000
  C   C188      1.0  0.42269  0.16164  0.82445  1.0000
  C   C189      1.0  0.32525  0.15954  0.92240  1.0000
  Fe  Fe13      1.0  0.99171  0.27588  0.90113  1.0000
  H   H140      1.0  0.96114  0.42173  0.02536  1.0000
  S   S26       1.0  0.96090  0.23014  0.96002  1.0000
  H   H141      1.0  0.10287  0.07979  0.92429  1.0000
  Fe  Fe14      1.0  0.43406  0.15218  0.98291  1.0000
  S   S27       1.0  0.41418  0.22735  0.99306  1.0000
  C   C190      1.0  0.36636  0.26587  0.91854  1.0000
  C   C191      1.0  0.03082  0.20472  0.96904  1.0000
  C   C192      1.0  0.10700  0.19170  0.88117  1.0000
  C   C193      1.0  0.12590  0.12976  0.93607  1.0000
  C   C194      1.0  0.30916  0.17739  0.91412  1.0000
  C   C195      1.0  0.37592  0.03848  0.95595  1.0000
  C   C196      1.0  0.30558  0.06445  0.89021  1.0000
  C   C197      1.0  0.30851  0.09169  0.03365  1.0000
  C   C198      1.0  0.01631  0.42307  0.87864  1.0000
  C   C199      1.0  0.08110  0.17473  0.95678  1.0000
  Fe  Fe15      1.0  0.20506  0.04291  0.88514  1.0000
  C   C200      1.0  0.34705  0.19337  0.83940  1.0000
  C   C201      1.0  0.15399  0.45675  0.85235  1.0000
  C   C202      1.0  0.26124  0.18188  0.82918  1.0000
  H   H142      1.0  0.07571  0.04433  0.99827  1.0000
  H   H143      1.0  0.01318  0.48479  0.83749  1.0000
  C   C203      1.0  0.45640  0.37237  0.97391  1.0000
  C   C204      1.0  0.05982  0.45197  0.80476  1.0000
  H   H144      1.0  0.15720  0.43909  0.98843  1.0000
  P   P8        1.0  0.39821  0.17403  0.80429  1.0000
  C   C205      1.0  0.18607  0.15014  0.80835  1.0000
  H   H145      1.0  0.02908  0.04430  0.84950  1.0000
  C   C206      1.0  0.15880  0.37051  0.82683  1.0000
  H   H146      1.0  0.14592  0.36352  0.86076  1.0000
  H   H147      1.0  0.00124  0.15425  0.96090  1.0000
  H   H148      1.0  0.32880  0.05611  0.92846  1.0000
  H   H149      1.0  0.19269  0.18458  0.01900  1.0000
  H   H150      1.0  0.12979  0.11003  0.84430  1.0000
  C   C207      1.0  0.30573  0.01084  0.90809  1.0000
  C   C208      1.0  0.12939  0.43394  0.84006  1.0000
  H   H151      1.0  0.36479  0.14526  0.89676  1.0000
  S   S28       1.0  0.19313  0.13115  0.95333  1.0000
  H   H152      1.0  0.09891  0.00235  0.88834  1.0000
  C   C209      1.0  0.08222  0.05138  0.83025  1.0000
  C   C210      1.0  0.03859  0.45116  0.88875  1.0000
  H   H153      1.0  0.27269  0.17529  0.80141  1.0000
  H   H154      1.0  0.07716  0.26767  0.80592  1.0000
  H   H155      1.0  0.19013  0.15264  0.83587  1.0000
  H   H156      1.0  0.11521  0.21226  0.01892  1.0000
  S   S29       1.0  0.14118  0.24210  0.91289  1.0000
  C   C211      1.0  0.38748  0.40964  0.03424  1.0000
  C   C212      1.0  0.96930  0.12986  0.87217  1.0000
  H   H157      1.0  0.97534  0.03768  0.85302  1.0000
  C   C213      1.0  0.96760  0.18285  0.87822  1.0000
  H   H158      1.0  0.08011  0.18137  0.98511  1.0000
  H   H159      1.0  0.29955  0.19899  0.04290  1.0000
  C   C214      1.0  0.43309  0.31597  0.96075  1.0000
  Fe  Fe16      1.0  0.43434  0.21325  0.93490  1.0000
  C   C215      1.0  0.09087  0.07280  0.98927  1.0000
  Fe  Fe17      1.0  0.05428  0.35329  0.85852  1.0000
  C   C216      1.0  0.28688  0.99599  0.88571  1.0000
  H   H160      1.0  0.02490  0.38639  0.94302  1.0000
  S   S30       1.0  0.23382  0.07904  0.91522  1.0000
  H   H161      1.0  0.17904  0.34075  0.88556  1.0000
  C   C217      1.0  0.03154  0.22465  0.99681  1.0000
  C   C218      1.0  0.00103  0.14396  0.87631  1.0000
  H   H162      1.0  0.22244  0.07587  0.02570  1.0000
  S   S31       1.0  0.15460  0.04462  0.91536  1.0000
  S   S32       1.0  0.18487  0.99474  0.93538  1.0000
  H   H163      1.0  0.31685  0.14646  0.95457  1.0000
  H   H164      1.0  0.30218  0.04786  0.00965  1.0000
  C   C219      1.0  0.39315  0.06542  0.97129  1.0000
  H   H165      1.0  0.39293  0.37944  0.99190  1.0000
  S   S33       1.0  0.44339  0.40557  0.87517  1.0000
  H   H166      1.0  0.21745  0.20450  0.92831  1.0000
  C   C220      1.0  0.38765  0.38026  0.02363  1.0000
  H   H167      1.0  0.31191  0.09044  0.89279  1.0000
  Fe  Fe18      1.0  0.43288  0.44992  0.87315  1.0000
  C   C221      1.0  0.43640  0.29922  0.85181  1.0000
  H   H168      1.0  0.28517  0.28321  0.00507  1.0000
  H   H169      1.0  0.29288  0.41046  0.89488  1.0000
  H   H170      1.0  0.42834  0.34148  0.83638  1.0000
  C   C222      1.0  0.23779  0.15545  0.86824  1.0000
  H   H171      1.0  0.34610  0.29801  0.83261  1.0000
  C   C223      1.0  0.25074  0.41273  0.88462  1.0000
  Fe  Fe19      1.0  0.03638  0.30450  0.80600  1.0000
  C   C224      1.0  0.05651  0.14031  0.95937  1.0000
  H   H172      1.0  0.23098  0.12867  0.87001  1.0000
  H   H173      1.0  0.33917  0.25275  0.94402  1.0000
  C   C225      1.0  0.02705  0.42355  0.83676  1.0000
  H   H174      1.0  0.38589  0.10506  0.84146  1.0000
  C   C226      1.0  0.38688  0.24978  0.91355  1.0000
  Fe  Fe20      1.0  0.18239  0.07794  0.94868  1.0000
  Fe  Fe21      1.0  0.98406  0.32816  0.85107  1.0000
  C   C227      1.0  0.97911  0.34719  0.00095  1.0000
  H   H175      1.0  0.13085  0.05280  0.82470  1.0000
  H   H176      1.0  0.37551  0.22439  0.93542  1.0000
  H   H177      1.0  0.99809  0.99449  0.91238  1.0000
  C   C228      1.0  0.11342  0.12662  0.00843  1.0000
  H   H178      1.0  0.34760  0.02745  0.96459  1.0000
  P   P9        1.0  0.38820  0.31769  0.03684  1.0000
  H   H179      1.0  0.26632  0.34679  0.90531  1.0000
  C   C229      1.0  0.05899  0.13114  0.92275  1.0000
  H   H180      1.0  0.05317  0.21607  0.93760  1.0000
  C   C230      1.0  0.32969  0.29822  0.01918  1.0000
  C   C231      1.0  0.32060  0.41268  0.01930  1.0000
  C   C232      1.0  0.42199  0.26655  0.88016  1.0000
  H   H181      1.0  0.05478  0.25114  0.98622  1.0000
  H   H182      1.0  0.00764  0.99244  0.02242  1.0000
  H   H183      1.0  0.29999  0.99530  0.04247  1.0000
  C   C233      1.0  0.22016  0.33953  0.89785  1.0000
  Fe  Fe22      1.0  0.41540  0.99521  0.84771  1.0000
  C   C234      1.0  0.04474  0.03487  0.85618  1.0000
  C   C235      1.0  0.20599  0.26490  0.98204  1.0000
  H   H184      1.0  0.20843  0.31134  0.90253  1.0000
  C   C236      1.0  0.99024  0.48486  0.83673  1.0000
  C   C237      1.0  0.30750  0.22657  0.03707  1.0000
  S   S34       1.0  0.41361  0.16249  0.04432  1.0000
  H   H185      1.0  0.34090  0.43990  0.01328  1.0000
  H   H186      1.0  0.12680  0.31758  0.82642  1.0000
  H   H187      1.0  0.41977  0.24567  0.80981  1.0000
  C   C238      1.0  0.45321  0.18772  0.82609  1.0000
  C   C239      1.0  0.21585  0.00607  0.81082  1.0000
  H   H188      1.0  0.00992  0.40186  0.82905  1.0000
  S   S35       1.0  0.23018  0.04834  0.81639  1.0000
  H   H189      1.0  0.19422  0.42570  0.81711  1.0000
  H   H190      1.0  0.09338  0.45631  0.91079  1.0000
  C   C240      1.0  0.45609  0.14258  0.86429  1.0000
  C   C241      1.0  0.44909  0.06683  0.93389  1.0000
  H   H191      1.0  0.33046  0.33575  0.80032  1.0000
  H   H192      1.0  0.34414  0.48384  0.80772  1.0000
  C   C242      1.0  0.96482  0.45635  0.83058  1.0000
  H   H193      1.0  0.35303  0.24119  0.04863  1.0000
  H   H194      1.0  0.45387  0.38930  0.99277  1.0000
  C   C243      1.0  0.34439  0.99638  0.80329  1.0000
  C   C244      1.0  0.14765  0.34475  0.80749  1.0000
  C   C245      1.0  0.04439  0.42626  0.04577  1.0000
  H   H195      1.0  0.33816  0.32581  0.01103  1.0000
  C   C246      1.0  0.29927  0.27395  0.01599  1.0000
  C   C247      1.0  0.13368  0.44448  0.79975  1.0000
  H   H196      1.0  0.06894  0.24494  0.04721  1.0000
  C   C248      1.0  0.02878  0.45790  0.09358  1.0000
  H   H197      1.0  0.34126  0.24012  0.17779  1.0000
  C   C249      1.0  0.16597  0.21445  0.13143  1.0000
  H   H198      1.0  0.09726  0.99938  0.23080  1.0000
  H   H199      1.0  0.41201  0.24342  0.25583  1.0000
  C   C250      1.0  0.06034  0.23759  0.27722  1.0000
  H   H200      1.0  0.14635  0.29928  0.17341  1.0000
  C   C251      1.0  0.09233  0.00356  0.20428  1.0000
  C   C252      1.0  0.14246  0.36351  0.25894  1.0000
  H   H201      1.0  0.99041  0.38861  0.24176  1.0000
  H   H202      1.0  0.37319  0.99685  0.22461  1.0000
  C   C253      1.0  0.38204  0.41215  0.07431  1.0000
  C   C254      1.0  0.03383  0.16474  0.11919  1.0000
  C   C255      1.0  0.07046  0.01745  0.20646  1.0000
  C   C256      1.0  0.23084  0.15620  0.15254  1.0000
  C   C257      1.0  0.16031  0.39911  0.23576  1.0000
  H   H203      1.0  0.16775  0.04426  0.17987  1.0000
  C   C258      1.0  0.44828  0.37196  0.25435  1.0000
  H   H204      1.0  0.42713  0.13334  0.25304  1.0000
  S   S36       1.0  0.43471  0.38192  0.21811  1.0000
  H   H205      1.0  0.28704  0.17259  0.12900  1.0000
  C   C259      1.0  0.26349  0.35483  0.21771  1.0000
  C   C260      1.0  0.36437  0.25485  0.14689  1.0000
  P   P10       1.0  0.99591  0.46633  0.12877  1.0000
  H   H206      1.0  0.11367  0.99676  0.10537  1.0000
  C   C261      1.0  0.19196  0.34773  0.12437  1.0000
  C   C262      1.0  0.04238  0.12464  0.06568  1.0000
  C   C263      1.0  0.10171  0.00218  0.13391  1.0000
  C   C264      1.0  0.33422  0.05875  0.25535  1.0000
  C   C265      1.0  0.18873  0.03892  0.16336  1.0000
  C   C266      1.0  0.39178  0.29313  0.07588  1.0000
  H   H207      1.0  0.99145  0.41846  0.07696  1.0000
  C   C267      1.0  0.20318  0.38158  0.10141  1.0000
  H   H208      1.0  0.11701  0.48185  0.05834  1.0000
  H   H209      1.0  0.08232  0.25720  0.15745  1.0000
  C   C268      1.0  0.43230  0.24748  0.22522  1.0000
  C   C269      1.0  0.40477  0.05060  0.18357  1.0000
  C   C270      1.0  0.06610  0.25277  0.14119  1.0000
  H   H210      1.0  0.03386  0.22234  0.27887  1.0000
  H   H211      1.0  0.45162  0.27652  0.09145  1.0000
  C   C271      1.0  0.20822  0.00161  0.13075  1.0000
  C   C272      1.0  0.01064  0.12557  0.08200  1.0000
  H   H212      1.0  0.03636  0.30742  0.08374  1.0000
  S   S37       1.0  0.04124  0.31542  0.26799  1.0000
  C   C273      1.0  0.26105  0.16092  0.15670  1.0000
  H   H213      1.0  0.96162  0.09988  0.19726  1.0000
  P   P11       1.0  0.22405  0.33377  0.11759  1.0000
  C   C274      1.0  0.40941  0.02110  0.27063  1.0000
  C   C275      1.0  0.13112  0.33684  0.16341  1.0000
  H   H214      1.0  0.17258  0.99418  0.07531  1.0000
  C   C276      1.0  0.33992  0.05858  0.12806  1.0000
  Fe  Fe23      1.0  0.07205  0.07641  0.29589  1.0000
  H   H215      1.0  0.08825  0.38469  0.26721  1.0000
  C   C277      1.0  0.08097  0.38732  0.24250  1.0000
  H   H216      1.0  0.43277  0.10021  0.13500  1.0000
  C   C278      1.0  0.12310  0.25428  0.24896  1.0000
  H   H217      1.0  0.98443  0.23964  0.15691  1.0000
  C   C279      1.0  0.45888  0.22376  0.17440  1.0000
  P   P12       1.0  0.40376  0.07043  0.22518  1.0000
  C   C280      1.0  0.42405  0.29379  0.06708  1.0000
  C   C281      1.0  0.12257  0.12651  0.08492  1.0000
  C   C282      1.0  0.22436  0.13572  0.23257  1.0000
  C   C283      1.0  0.20893  0.21468  0.23704  1.0000
  C   C284      1.0  0.39686  0.25640  0.13826  1.0000
  C   C285      1.0  0.06369  0.02321  0.17273  1.0000
  H   H218      1.0  0.05206  0.39685  0.15646  1.0000
  C   C286      1.0  0.12845  0.27685  0.27356  1.0000
  H   H219      1.0  0.08365  0.12630  0.14157  1.0000
  H   H220      1.0  0.28132  0.15314  0.19861  1.0000
  H   H221      1.0  0.30164  0.03426  0.19391  1.0000
  C   C287      1.0  0.06433  0.47540  0.08821  1.0000
  H   H222      1.0  0.43054  0.07253  0.07839  1.0000
  C   C288      1.0  0.08062  0.42423  0.18935  1.0000
  H   H223      1.0  0.28692  0.40601  0.08299  1.0000
  C   C289      1.0  0.13971  0.09697  0.13945  1.0000
  C   C290      1.0  0.15734  0.21351  0.29043  1.0000
  H   H224      1.0  0.10610  0.25542  0.08395  1.0000
  H   H225      1.0  0.23090  0.39948  0.07755  1.0000
  C   C291      1.0  0.29000  0.39339  0.05865  1.0000
  C   C292      1.0  0.23273  0.24648  0.24008  1.0000
  H   H226      1.0  0.17767  0.45246  0.23846  1.0000
  C   C293      1.0  0.06029  0.39426  0.18028  1.0000
  H   H227      1.0  0.96644  0.04101  0.22095  1.0000
  H   H228      1.0  0.17712  0.09475  0.08402  1.0000
  C   C294      1.0  0.23359  0.35692  0.22162  1.0000
  C   C295      1.0  0.16264  0.23757  0.10695  1.0000
  C   C296      1.0  0.97616  0.43890  0.18208  1.0000
  H   H229      1.0  0.08696  0.17975  0.11056  1.0000
  C   C297      1.0  0.28041  0.46980  0.23810  1.0000
  H   H230      1.0  0.40077  0.00747  0.09492  1.0000
  H   H231      1.0  0.35256  0.08504  0.13053  1.0000
  C   C298      1.0  0.20453  0.26345  0.14830  1.0000
  C   C299      1.0  0.43556  0.33660  0.27331  1.0000
  S   S38       1.0  0.09831  0.04405  0.28652  1.0000
  C   C300      1.0  0.26368  0.35812  0.06649  1.0000
  C   C301      1.0  0.29048  0.17594  0.26235  1.0000
  C   C302      1.0  0.43205  0.21844  0.21318  1.0000
  H   H232      1.0  0.19822  0.35218  0.19529  1.0000
  H   H233      1.0  0.30880  0.44589  0.24958  1.0000
  H   H234      1.0  0.45887  0.20130  0.16514  1.0000
  C   C303      1.0  0.42041  0.07182  0.14219  1.0000
  C   C304      1.0  0.01885  0.43292  0.07258  1.0000
  C   C305      1.0  0.96446  0.48095  0.08219  1.0000
  C   C306      1.0  0.96088  0.45567  0.11271  1.0000
  H   H235      1.0  0.10930  0.44412  0.22491  1.0000
  C   C307      1.0  0.19747  0.05549  0.27446  1.0000
  C   C308      1.0  0.18685  0.22738  0.15210  1.0000
  C   C309      1.0  0.08902  0.23450  0.25092  1.0000
  H   H236      1.0  0.41133  0.13683  0.18855  1.0000
  C   C310      1.0  0.22148  0.35053  0.19142  1.0000
  C   C311      1.0  0.15561  0.32535  0.15515  1.0000
  C   C312      1.0  0.10454  0.12026  0.12832  1.0000
  C   C313      1.0  0.30876  0.06776  0.25719  1.0000
  C   C314      1.0  0.44783  0.10721  0.21227  1.0000
  C   C315      1.0  0.08979  0.46854  0.06165  1.0000
  S   S39       1.0  0.31697  0.14749  0.06362  1.0000
  C   C316      1.0  0.29191  0.45666  0.26260  1.0000
  C   C317      1.0  0.31115  0.03007  0.16366  1.0000
  C   C318      1.0  0.30661  0.98998  0.12144  1.0000
  H   H237      1.0  0.23350  0.16429  0.12162  1.0000
  C   C319      1.0  0.10768  0.99523  0.16827  1.0000
  C   C320      1.0  0.32031  0.10153  0.23422  1.0000
  H   H238      1.0  0.15246  0.18653  0.13437  1.0000
  C   C321      1.0  0.05810  0.24541  0.07928  1.0000
  H   H239      1.0  0.28815  0.46902  0.20607  1.0000
  H   H240      1.0  0.18738  0.41918  0.09208  1.0000
  H   H241      1.0  0.39912  0.24276  0.16244  1.0000
  H   H242      1.0  0.99751  0.06131  0.14340  1.0000
  H   H243      1.0  0.09835  0.09982  0.18887  1.0000
  C   C322      1.0  0.37145  0.08382  0.23183  1.0000
  C   C323      1.0  0.38284  0.11761  0.20854  1.0000
  C   C324      1.0  0.42652  0.27557  0.09829  1.0000
  H   H244      1.0  0.15365  0.17221  0.26222  1.0000
  H   H245      1.0  0.33805  0.40650  0.28696  1.0000
  H   H246      1.0  0.00702  0.02048  0.10437  1.0000
  C   C325      1.0  0.36168  0.27279  0.11575  1.0000
  C   C326      1.0  0.96573  0.12071  0.21178  1.0000
  C   C327      1.0  0.14262  0.37066  0.14071  1.0000
  Fe  Fe24      1.0  0.30615  0.28958  0.24951  1.0000
  H   H247      1.0  0.43787  0.36979  0.12588  1.0000
  H   H248      1.0  0.32486  0.03202  0.27168  1.0000
  H   H249      1.0  0.13808  0.34384  0.24274  1.0000
  Fe  Fe25      1.0  0.03801  0.10965  0.26231  1.0000
  C   C328      1.0  0.45945  0.28186  0.19856  1.0000
  C   C329      1.0  0.20136  0.28690  0.12362  1.0000
  C   C330      1.0  0.02329  0.24020  0.09977  1.0000
  C   C331      1.0  0.19724  0.14071  0.18822  1.0000
  H   H250      1.0  0.21398  0.06894  0.24109  1.0000
  H   H251      1.0  0.45916  0.30388  0.20880  1.0000
  H   H252      1.0  0.17742  0.29118  0.08379  1.0000
  C   C332      1.0  0.38297  0.35321  0.05290  1.0000
  S   S40       1.0  0.02290  0.11747  0.21175  1.0000
  H   H253      1.0  0.25252  0.12390  0.05298  1.0000
  H   H254      1.0  0.04697  0.03428  0.17444  1.0000
  H   H255      1.0  0.98127  0.19646  0.26159  1.0000
  C   C333      1.0  0.22419  0.06254  0.15555  1.0000
  S   S41       1.0  0.09426  0.13021  0.25399  1.0000
  S   S42       1.0  0.33145  0.34667  0.24722  1.0000
  H   H256      1.0  0.08470  0.21633  0.23267  1.0000
  C   C334      1.0  0.28139  0.34646  0.18352  1.0000
  C   C335      1.0  0.07072  0.14472  0.07488  1.0000
  C   C336      1.0  0.16477  0.42495  0.25614  1.0000
  C   C337      1.0  0.03810  0.31241  0.05287  1.0000
  H   H257      1.0  0.37583  0.07473  0.06196  1.0000
  C   C338      1.0  0.97094  0.02326  0.20418  1.0000
  H   H258      1.0  0.36620  0.15264  0.19213  1.0000
  H   H259      1.0  0.16761  0.11810  0.25528  1.0000
  C   C339      1.0  0.00637  0.14566  0.10867  1.0000
  S   S43       1.0  0.08897  0.46533  0.16607  1.0000
  H   H260      1.0  0.97102  0.35211  0.12041  1.0000
  H   H261      1.0  0.98142  0.14578  0.12186  1.0000
  H   H262      1.0  0.27245  0.35906  0.24156  1.0000
  C   C340      1.0  0.25143  0.05536  0.13623  1.0000
  H   H263      1.0  0.28370  0.33362  0.12697  1.0000
  C   C341      1.0  0.41914  0.05628  0.11024  1.0000
  H   H264      1.0  0.10328  0.31977  0.18793  1.0000
  C   C342      1.0  0.04914  0.36066  0.20353  1.0000
  H   H265      1.0  0.23064  0.08647  0.16439  1.0000
  C   C343      1.0  0.35734  0.12651  0.21005  1.0000
  C   C344      1.0  0.11317  0.10563  0.15536  1.0000
  H   H266      1.0  0.38229  0.43515  0.08225  1.0000
  H   H267      1.0  0.34476  0.21712  0.24672  1.0000
  C   C345      1.0  0.98865  0.03483  0.16030  1.0000
  C   C346      1.0  0.33674  0.01860  0.08626  1.0000
  H   H268      1.0  0.23717  0.28653  0.27068  1.0000
  H   H269      1.0  0.37343  0.38751  0.13472  1.0000
  H   H270      1.0  0.14675  0.22761  0.09065  1.0000
  C   C347      1.0  0.99425  0.01201  0.13839  1.0000
  P   P13       1.0  0.99928  0.23892  0.07001  1.0000
  H   H271      1.0  0.05918  0.02419  0.23425  1.0000
  Fe  Fe26      1.0  0.98181  0.28391  0.28813  1.0000
  S   S44       1.0  0.97740  0.04475  0.05336  1.0000
  C   C348      1.0  0.37755  0.35605  0.09321  1.0000
  C   C349      1.0  0.23935  0.34209  0.15692  1.0000
  C   C350      1.0  0.17850  0.01849  0.28883  1.0000
  C   C351      1.0  0.18011  0.27360  0.10314  1.0000
  H   H272      1.0  0.21960  0.36319  0.24828  1.0000
  C   C352      1.0  0.45096  0.13342  0.23220  1.0000
  H   H273      1.0  0.41155  0.19187  0.23444  1.0000
  H   H274      1.0  0.12373  0.37972  0.14748  1.0000
  C   C353      1.0  0.05871  0.35721  0.23537  1.0000
  S   S45       1.0  0.01804  0.05450  0.29743  1.0000
  H   H275      1.0  0.41923  0.31581  0.26385  1.0000
  C   C354      1.0  0.07942  0.25170  0.09992  1.0000
  H   H276      1.0  0.30388  0.34373  0.18113  1.0000
  C   C355      1.0  0.18137  0.24601  0.29221  1.0000
  H   H277      1.0  0.42703  0.02145  0.24061  1.0000
  H   H278      1.0  0.01929  0.17007  0.25211  1.0000
  H   H279      1.0  0.27897  0.07388  0.12989  1.0000
  C   C356      1.0  0.17137  0.19783  0.26280  1.0000
  C   C357      1.0  0.18050  0.00830  0.15092  1.0000
  C   C358      1.0  0.99805  0.16011  0.24290  1.0000
  C   C359      1.0  0.14839  0.11668  0.06947  1.0000
  C   C360      1.0  0.15714  0.10224  0.09647  1.0000
  C   C361      1.0  0.06600  0.16460  0.10216  1.0000
  C   C362      1.0  0.38608  0.99827  0.16082  1.0000
  H   H280      1.0  0.14578  0.08497  0.16062  1.0000
  H   H281      1.0  0.02979  0.17919  0.14121  1.0000
  P   P14       1.0  0.21937  0.12260  0.28452  1.0000
  C   C363      1.0  0.19393  0.13026  0.22802  1.0000
  C   C364      1.0  0.97640  0.17501  0.24837  1.0000
  H   H282      1.0  0.03298  0.33749  0.19697  1.0000
  H   H283      1.0  0.07542  0.02152  0.10954  1.0000
  H   H284      1.0  0.16957  0.40656  0.20218  1.0000
  H   H285      1.0  0.26484  0.02001  0.10761  1.0000
  H   H286      1.0  0.38431  0.46722  0.27891  1.0000
  C   C365      1.0  0.01045  0.24203  0.14093  1.0000
  H   H287      1.0  0.34812  0.01452  0.05637  1.0000
  C   C366      1.0  0.07985  0.01618  0.13616  1.0000
  S   S46       1.0  0.08322  0.47909  0.27588  1.0000
  H   H288      1.0  0.33627  0.27139  0.12310  1.0000
  C   C367      1.0  0.25936  0.48444  0.25476  1.0000
  H   H289      1.0  0.18941  0.20940  0.17108  1.0000
  C   C368      1.0  0.32330  0.18988  0.26414  1.0000
  C   C369      1.0  0.40213  0.01951  0.11954  1.0000
  H   H290      1.0  0.30054  0.10823  0.23503  1.0000
  H   H291      1.0  0.98922  0.11075  0.07398  1.0000
  S   S47       1.0  0.35321  0.28576  0.24632  1.0000
  H   H292      1.0  0.21977  0.20244  0.21600  1.0000
  H   H293      1.0  0.15486  0.29143  0.27220  1.0000
  C   C370      1.0  0.32802  0.16912  0.28986  1.0000
  C   C371      1.0  0.97773  0.40171  0.23397  1.0000
  C   C372      1.0  0.38698  0.01375  0.19271  1.0000
  C   C373      1.0  0.24349  0.02504  0.12361  1.0000
  C   C374      1.0  0.35288  0.05279  0.08943  1.0000
  C   C375      1.0  0.99248  0.42200  0.19255  1.0000
  C   C376      1.0  0.26962  0.34039  0.15304  1.0000
  H   H294      1.0  0.18053  0.00377  0.26668  1.0000
  C   C377      1.0  0.09218  0.42088  0.21923  1.0000
  C   C378      1.0  0.99322  0.13343  0.22379  1.0000
  C   C379      1.0  0.37704  0.38534  0.10379  1.0000
  H   H295      1.0  0.98094  0.30385  0.13905  1.0000
  H   H296      1.0  0.01681  0.42466  0.16907  1.0000
  C   C380      1.0  0.26225  0.14076  0.28586  1.0000
  C   C381      1.0  0.39281  0.04098  0.27274  1.0000
  H   H297      1.0  0.17372  0.13703  0.18530  1.0000
  H   H298      1.0  0.37452  0.33634  0.11651  1.0000
  H   H299      1.0  0.35270  0.18042  0.29295  1.0000
  H   H300      1.0  0.28689  0.19282  0.24331  1.0000
  H   H301      1.0  0.22041  0.27253  0.16483  1.0000
  C   C382      1.0  0.17855  0.39291  0.10957  1.0000
  C   C383      1.0  0.25778  0.15023  0.19645  1.0000
  C   C384      1.0  0.21892  0.26208  0.26788  1.0000
  H   H302      1.0  0.28000  0.04825  0.27592  1.0000
  H   H303      1.0  0.14506  0.25109  0.22960  1.0000
  C   C385      1.0  0.03170  0.24809  0.16156  1.0000
  S   S48       1.0  0.27968  0.26579  0.21040  1.0000
  H   H304      1.0  0.02141  0.24930  0.19341  1.0000
  Fe  Fe27      1.0  0.37580  0.34081  0.25032  1.0000
  C   C386      1.0  0.29474  0.99592  0.16051  1.0000
  C   C387      1.0  0.24962  0.48574  0.29595  1.0000
  H   H305      1.0  0.08196  0.07363  0.05184  1.0000
  S   S49       1.0  0.96009  0.28134  0.24201  1.0000
  C   C388      1.0  0.45974  0.36663  0.10608  1.0000
  C   C389      1.0  0.97265  0.17600  0.04959  1.0000
  C   C390      1.0  0.16106  0.47900  0.44957  1.0000
  H   H306      1.0  0.18013  0.23245  0.53195  1.0000
  C   C391      1.0  0.22620  0.37817  0.46520  1.0000
  H   H307      1.0  0.99323  0.30862  0.38847  1.0000
  S   S50       1.0  0.28546  0.45620  0.53740  1.0000
  C   C392      1.0  0.21722  0.37396  0.43242  1.0000
  H   H308      1.0  0.37063  0.26629  0.39232  1.0000
  C   C393      1.0  0.28210  0.45783  0.30386  1.0000
  H   H309      1.0  0.35962  0.35546  0.39361  1.0000
  H   H310      1.0  0.17286  0.07060  0.36917  1.0000
  S   S51       1.0  0.25227  0.04462  0.38868  1.0000
  H   H311      1.0  0.31261  0.16181  0.39864  1.0000
  H   H312      1.0  0.21773  0.39966  0.37884  1.0000
  Fe  Fe28      1.0  0.30379  0.32517  0.31748  1.0000
  C   C394      1.0  0.16839  0.33072  0.34551  1.0000
  S   S52       1.0  0.32675  0.22695  0.35331  1.0000
  C   C395      1.0  0.32121  0.12972  0.47409  1.0000
  H   H313      1.0  0.17829  0.35723  0.32786  1.0000
  C   C396      1.0  0.99605  0.02569  0.50620  1.0000
  H   H314      1.0  0.21711  0.34738  0.35171  1.0000
  H   H315      1.0  0.35159  0.18557  0.44133  1.0000
  H   H316      1.0  0.04283  0.26174  0.32211  1.0000
  C   C397      1.0  0.37402  0.30619  0.42299  1.0000
  C   C398      1.0  0.06338  0.29685  0.37498  1.0000
  C   C399      1.0  0.35853  0.31365  0.45973  1.0000
  H   H317      1.0  0.13748  0.23616  0.40537  1.0000
  C   C400      1.0  0.98192  0.39522  0.34271  1.0000
  C   C401      1.0  0.39895  0.40532  0.34557  1.0000
  S   S53       1.0  0.18499  0.07507  0.44308  1.0000
  C   C402      1.0  0.26030  0.27499  0.44242  1.0000
  C   C403      1.0  0.18939  0.13426  0.53767  1.0000
  H   H318      1.0  0.22030  0.35548  0.48722  1.0000
  S   S54       1.0  0.27722  0.34809  0.36109  1.0000
  H   H319      1.0  0.37178  0.13417  0.30658  1.0000
  C   C404      1.0  0.44468  0.44811  0.36036  1.0000
  C   C405      1.0  0.17423  0.05638  0.34636  1.0000
  H   H320      1.0  0.42139  0.03343  0.42793  1.0000
  C   C406      1.0  0.22411  0.11743  0.41937  1.0000
  C   C407      1.0  0.33280  0.11207  0.53016  1.0000
  H   H321      1.0  0.40417  0.12247  0.50594  1.0000
  C   C408      1.0  0.28756  0.15727  0.39943  1.0000
  C   C409      1.0  0.24294  0.43740  0.40730  1.0000
  C   C410      1.0  0.13903  0.14677  0.51474  1.0000
  C   C411      1.0  0.96200  0.99629  0.51718  1.0000
  C   C412      1.0  0.97900  0.18136  0.39805  1.0000
  C   C413      1.0  0.00864  0.29923  0.39634  1.0000
  C   C414      1.0  0.02130  0.02108  0.51378  1.0000
  C   C415      1.0  0.36243  0.45993  0.34542  1.0000
  C   C416      1.0  0.13462  0.30196  0.35355  1.0000
  C   C417      1.0  0.31012  0.39121  0.35454  1.0000
  C   C418      1.0  0.01359  0.26407  0.44593  1.0000
  H   H322      1.0  0.28924  0.22971  0.52062  1.0000
  H   H323      1.0  0.99023  0.44128  0.44075  1.0000
  H   H324      1.0  0.06295  0.26419  0.42376  1.0000
  H   H325      1.0  0.28101  0.30130  0.42039  1.0000
  Fe  Fe29      1.0  0.20172  0.03515  0.44155  1.0000
  C   C419      1.0  0.33648  0.35585  0.54283  1.0000
  S   S55       1.0  0.01959  0.12519  0.31984  1.0000
  H   H326      1.0  0.33359  0.44478  0.41279  1.0000
  H   H327      1.0  0.28940  0.38365  0.42081  1.0000
  H   H328      1.0  0.16178  0.12004  0.47793  1.0000
  C   C420      1.0  0.26726  0.12016  0.31175  1.0000
  C   C421      1.0  0.32628  0.37604  0.48701  1.0000
  C   C422      1.0  0.26329  0.24598  0.43534  1.0000
  Fe  Fe30      1.0  0.32393  0.26821  0.31662  1.0000
  S   S56       1.0  0.31352  0.04622  0.44271  1.0000
  H   H329      1.0  0.07098  0.11466  0.46863  1.0000
  H   H330      1.0  0.30859  0.12235  0.45390  1.0000
  H   H331      1.0  0.31568  0.21729  0.45414  1.0000
  P   P15       1.0  0.24853  0.47420  0.37374  1.0000
  H   H332      1.0  0.25431  0.20037  0.36351  1.0000
  Fe  Fe31      1.0  0.26120  0.02259  0.43885  1.0000
  C   C423      1.0  0.34485  0.36366  0.50013  1.0000
  C   C424      1.0  0.30127  0.38234  0.51560  1.0000
  H   H333      1.0  0.99733  0.44675  0.30929  1.0000
  C   C425      1.0  0.33504  0.43650  0.38532  1.0000
  C   C426      1.0  0.20429  0.46873  0.39842  1.0000
  C   C427      1.0  0.24403  0.41191  0.46867  1.0000
  C   C428      1.0  0.04352  0.30987  0.36611  1.0000
  H   H334      1.0  0.44201  0.43152  0.41979  1.0000
  C   C429      1.0  0.11323  0.15679  0.52385  1.0000
  C   C430      1.0  0.20352  0.23592  0.50551  1.0000
  C   C431      1.0  0.05211  0.99510  0.41100  1.0000
  C   C432      1.0  0.15694  0.00044  0.33185  1.0000
  H   H335      1.0  0.42398  0.16347  0.38462  1.0000
  C   C433      1.0  0.31488  0.10329  0.50545  1.0000
  C   C434      1.0  0.40259  0.11552  0.53650  1.0000
  H   H336      1.0  0.39497  0.06104  0.40021  1.0000
  H   H337      1.0  0.12059  0.42140  0.40392  1.0000
  C   C435      1.0  0.25193  0.44143  0.44028  1.0000
  C   C436      1.0  0.45005  0.39674  0.51185  1.0000
  H   H338      1.0  0.00215  0.24664  0.47705  1.0000
  C   C437      1.0  0.26032  0.47177  0.32103  1.0000
  C   C438      1.0  0.42927  0.43891  0.33353  1.0000
  C   C439      1.0  0.14160  0.43899  0.41105  1.0000
  C   C440      1.0  0.22436  0.14857  0.53389  1.0000
  C   C441      1.0  0.34720  0.08708  0.40390  1.0000
  C   C442      1.0  0.17919  0.29143  0.38140  1.0000
  P   P16       1.0  0.37939  0.35829  0.46241  1.0000
  C   C443      1.0  0.17666  0.44522  0.39007  1.0000
  H   H339      1.0  0.19690  0.28740  0.39115  1.0000
  C   C444      1.0  0.19982  0.46041  0.54086  1.0000
  C   C445      1.0  0.18303  0.07644  0.54500  1.0000
  C   C446      1.0  0.35603  0.14809  0.52397  1.0000
  C   C447      1.0  0.11614  0.11442  0.47146  1.0000
  H   H340      1.0  0.00311  0.39435  0.31747  1.0000
  C   C448      1.0  0.19061  0.32534  0.35909  1.0000
  C   C449      1.0  0.22543  0.40343  0.40363  1.0000
  H   H341      1.0  0.22994  0.07482  0.53904  1.0000
  H   H342      1.0  0.00305  0.05178  0.49085  1.0000
  C   C450      1.0  0.38366  0.38102  0.38466  1.0000
  C   C451      1.0  0.42301  0.06895  0.38167  1.0000
  C   C452      1.0  0.23878  0.12715  0.53487  1.0000
  C   C453      1.0  0.39928  0.38980  0.41170  1.0000
  S   S57       1.0  0.43377  0.19329  0.30334  1.0000
  S   S58       1.0  0.44616  0.24159  0.39012  1.0000
  H   H343      1.0  0.20437  0.34791  0.42903  1.0000
  H   H344      1.0  0.20262  0.21162  0.34747  1.0000
  H   H345      1.0  0.42513  0.32766  0.45322  1.0000
  C   C454      1.0  0.32784  0.24396  0.45618  1.0000
  C   C455      1.0  0.38056  0.99936  0.34659  1.0000
  C   C456      1.0  0.35862  0.27157  0.42116  1.0000
  H   H346      1.0  0.14082  0.08557  0.54920  1.0000
  C   C457      1.0  0.28703  0.18503  0.37886  1.0000
  H   H347      1.0  0.04793  0.04352  0.50471  1.0000
  H   H348      1.0  0.43324  0.30047  0.31979  1.0000
  C   C458      1.0  0.25868  0.47220  0.53132  1.0000
  H   H349      1.0  0.39804  0.32713  0.39558  1.0000
  H   H350      1.0  0.38723  0.39824  0.32452  1.0000
  C   C459      1.0  0.07067  0.02101  0.37212  1.0000
  H   H351      1.0  0.26449  0.46716  0.44465  1.0000
  P   P17       1.0  0.17161  0.16259  0.53469  1.0000
  Fe  Fe32      1.0  0.00161  0.07054  0.35526  1.0000
  H   H352      1.0  0.96643  0.26783  0.45953  1.0000
  C   C460      1.0  0.14094  0.12646  0.48738  1.0000
  C   C461      1.0  0.19601  0.48492  0.42911  1.0000
  C   C462      1.0  0.15509  0.11700  0.33978  1.0000
  H   H353      1.0  0.25175  0.41524  0.49345  1.0000
  H   H354      1.0  0.31606  0.29060  0.52411  1.0000
  S   S59       1.0  0.05473  0.08973  0.35554  1.0000
  C   C463      1.0  0.12382  0.26779  0.37503  1.0000
  H   H355      1.0  0.10027  0.47775  0.35419  1.0000
  H   H356      1.0  0.38172  0.20207  0.48648  1.0000
  H   H357      1.0  0.11781  0.09828  0.45084  1.0000
  H   H358      1.0  0.29179  0.44815  0.32221  1.0000
  H   H359      1.0  0.45816  0.41715  0.52657  1.0000
  H   H360      1.0  0.30355  0.11859  0.33415  1.0000
  H   H361      1.0  0.23925  0.18975  0.45696  1.0000
  C   C464      1.0  0.14565  0.26269  0.38969  1.0000
  H   H362      1.0  0.37705  0.10495  0.43882  1.0000
  H   H363      1.0  0.28840  0.39360  0.50487  1.0000
  Fe  Fe33      1.0  0.21921  0.98835  0.39184  1.0000
  C   C465      1.0  0.34540  0.16528  0.46707  1.0000
  C   C466      1.0  0.44406  0.09429  0.34199  1.0000
  S   S60       1.0  0.34979  0.32319  0.32053  1.0000
  H   H364      1.0  0.12358  0.37258  0.35667  1.0000
  C   C467      1.0  0.25618  0.12336  0.41940  1.0000
  C   C468      1.0  0.21000  0.17311  0.31972  1.0000
  C   C469      1.0  0.15475  0.01940  0.36055  1.0000
  H   H365      1.0  0.24070  0.17639  0.52947  1.0000
  C   C470      1.0  0.30934  0.40211  0.38984  1.0000
  C   C471      1.0  0.04830  0.27421  0.41544  1.0000
  H   H366      1.0  0.07848  0.04780  0.37121  1.0000
  C   C472      1.0  0.23664  0.21193  0.46341  1.0000
  C   C473      1.0  0.20697  0.20672  0.49928  1.0000
  C   C474      1.0  0.04385  0.45632  0.39576  1.0000
  H   H367      1.0  0.17109  0.25866  0.31277  1.0000
  C   C475      1.0  0.30010  0.13427  0.31343  1.0000
  Fe  Fe34      1.0  0.07480  0.14256  0.31410  1.0000
  S   S61       1.0  0.37298  0.46524  0.45687  1.0000
  S   S62       1.0  0.45029  0.48289  0.48884  1.0000
  C   C476      1.0  0.09962  0.27962  0.30062  1.0000
  H   H368      1.0  0.43231  0.10622  0.32985  1.0000
  H   H369      1.0  0.33195  0.38215  0.45445  1.0000
  H   H370      1.0  0.13624  0.17236  0.38893  1.0000
  C   C477      1.0  0.09761  0.98885  0.50623  1.0000
  H   H371      1.0  0.32484  0.07635  0.36095  1.0000
  H   H372      1.0  0.44118  0.08216  0.47600  1.0000
  H   H373      1.0  0.05470  0.32772  0.33538  1.0000
  S   S63       1.0  0.11026  0.19283  0.32383  1.0000
  C   C478      1.0  0.37081  0.04049  0.31220  1.0000
  C   C479      1.0  0.36314  0.44919  0.30988  1.0000
  C   C480      1.0  0.37277  0.12803  0.33560  1.0000
  C   C481      1.0  0.43113  0.34644  0.47042  1.0000
  C   C482      1.0  0.21832  0.09118  0.53977  1.0000
  H   H374      1.0  0.11233  0.17389  0.54324  1.0000
  S   S64       1.0  0.21280  0.01727  0.49164  1.0000
  H   H375      1.0  0.09915  0.24486  0.37906  1.0000
  C   C483      1.0  0.23031  0.26995  0.47736  1.0000
  C   C484      1.0  0.40219  0.14452  0.37956  1.0000
  C   C485      1.0  0.34592  0.09541  0.36657  1.0000
  C   C486      1.0  0.99357  0.27620  0.43622  1.0000
  H   H376      1.0  0.13797  0.00540  0.39386  1.0000
  C   C487      1.0  0.43475  0.12835  0.53962  1.0000
  C   C488      1.0  0.08989  0.12366  0.48152  1.0000
  H   H377      1.0  0.99937  0.14656  0.39859  1.0000
  C   C489      1.0  0.32807  0.28568  0.49514  1.0000
  H   H378      1.0  0.04493  0.00208  0.43957  1.0000
  C   C490      1.0  0.31278  0.25100  0.49330  1.0000
  C   C491      1.0  0.43789  0.05330  0.39729  1.0000
  H   H379      1.0  0.11255  0.01394  0.48188  1.0000
  C   C492      1.0  0.36249  0.17449  0.49235  1.0000
  C   C493      1.0  0.40305  0.00015  0.30743  1.0000
  C   C494      1.0  0.22337  0.14536  0.39970  1.0000
  H   H380      1.0  0.96250  0.46806  0.41650  1.0000
  H   H381      1.0  0.34676  0.01871  0.37934  1.0000
  C   C495      1.0  0.08858  0.14504  0.50750  1.0000
  H   H382      1.0  0.35855  0.05623  0.31467  1.0000
  C   C496      1.0  0.37571  0.11144  0.41013  1.0000
  H   H383      1.0  0.19859  0.14067  0.39962  1.0000
  C   C497      1.0  0.42398  0.39139  0.49862  1.0000
  C   C498      1.0  0.33710  0.41478  0.31443  1.0000
  H   H384      1.0  0.25685  0.10179  0.43453  1.0000
  C   C499      1.0  0.25490  0.17906  0.37908  1.0000
  H   H385      1.0  0.28632  0.24999  0.40785  1.0000
  H   H386      1.0  0.29715  0.07615  0.50872  1.0000
  C   C500      1.0  0.08082  0.48163  0.37780  1.0000
  H   H387      1.0  0.06861  0.15267  0.51472  1.0000
  H   H388      1.0  0.00260  0.20393  0.39655  1.0000
  C   C501      1.0  0.97728  0.14916  0.39892  1.0000
  H   H389      1.0  0.22779  0.29250  0.48217  1.0000
  H   H390      1.0  0.26609  0.13858  0.53097  1.0000
  C   C502      1.0  0.97854  0.42471  0.33801  1.0000
  C   C503      1.0  0.40063  0.15272  0.34231  1.0000
  C   C504      1.0  0.41390  0.36583  0.47835  1.0000
  H   H391      1.0  0.03466  0.43306  0.38561  1.0000
  C   C505      1.0  0.15206  0.16282  0.36938  1.0000
  C   C506      1.0  0.13489  0.12882  0.36640  1.0000
  H   H392      1.0  0.10587  0.11168  0.38463  1.0000
  C   C507      1.0  0.36445  0.01954  0.34897  1.0000
  C   C508      1.0  0.07943  0.01229  0.33487  1.0000
  C   C509      1.0  0.19300  0.13864  0.31716  1.0000
  H   H393      1.0  0.15463  0.43535  0.31532  1.0000
  H   H394      1.0  0.41206  0.40760  0.50367  1.0000
  P   P18       1.0  0.10666  0.30788  0.33341  1.0000
  C   C510      1.0  0.45713  0.35176  0.48377  1.0000
  C   C511      1.0  0.13390  0.37973  0.32290  1.0000
  C   C512      1.0  0.13384  0.45601  0.44071  1.0000
  C   C513      1.0  0.18955  0.18498  0.34592  1.0000
  H   H395      1.0  0.14107  0.09101  0.33681  1.0000
  H   H396      1.0  0.24577  0.09338  0.33128  1.0000
  C   C514      1.0  0.22201  0.44828  0.54409  1.0000
  H   H397      1.0  0.18218  0.43161  0.36747  1.0000
  H   H398      1.0  0.10686  0.45162  0.45659  1.0000
  S   S65       1.0  0.27510  0.26837  0.31984  1.0000
  C   C515      1.0  0.42980  0.42371  0.39936  1.0000
  C   C516      1.0  0.01881  0.46118  0.42655  1.0000
  H   H399      1.0  0.16744  0.04871  0.54795  1.0000
  C   C517      1.0  0.16828  0.09768  0.54488  1.0000
  C   C518      1.0  0.33039  0.99261  0.53668  1.0000
  H   H400      1.0  0.37013  0.15591  0.54261  1.0000
  C   C519      1.0  0.44332  0.32787  0.30519  1.0000
  C   C520      1.0  0.19491  0.07473  0.30310  1.0000
  H   H401      1.0  0.36536  0.03892  0.54646  1.0000
  C   C521      1.0  0.33979  0.02462  0.54578  1.0000
  C   C522      1.0  0.06554  0.25996  0.30204  1.0000
  H   H402      1.0  0.23893  0.19103  0.30155  1.0000
  C   C523      1.0  0.15157  0.41524  0.29966  1.0000
  H   H403      1.0  0.44059  0.45791  0.30353  1.0000
  C   C524      1.0  0.12947  0.35361  0.30267  1.0000
  C   C525      1.0  0.96477  0.88643  0.62610  1.0000
  C   C526      1.0  0.11327  0.80376  0.77554  1.0000
  H   H404      1.0  0.16819  0.57257  0.76089  1.0000
  H   H405      1.0  0.05259  0.78361  0.72339  1.0000
  C   C527      1.0  0.01198  0.84936  0.69590  1.0000
  H   H406      1.0  0.19437  0.51793  0.64751  1.0000
  C   C528      1.0  0.12920  0.66871  0.71279  1.0000
  C   C529      1.0  0.00435  0.69432  0.74449  1.0000
  H   H407      1.0  0.98222  0.73995  0.65610  1.0000
  H   H408      1.0  0.12513  0.91035  0.78637  1.0000
  H   H409      1.0  0.24198  0.96346  0.74386  1.0000
  H   H410      1.0  0.01703  0.82793  0.69376  1.0000
  C   C530      1.0  0.03456  0.68078  0.61516  1.0000
  C   C531      1.0  0.08445  0.87701  0.72612  1.0000
  C   C532      1.0  0.02729  0.98742  0.62906  1.0000
  H   H411      1.0  0.96650  0.58926  0.71450  1.0000
  C   C533      1.0  0.97840  0.84241  0.72549  1.0000
  C   C534      1.0  0.00837  0.72713  0.60159  1.0000
  H   H412      1.0  0.05842  0.86413  0.72663  1.0000
  H   H413      1.0  0.10736  0.52646  0.57510  1.0000
  S   S66       1.0  0.27730  0.90296  0.73961  1.0000
  C   C535      1.0  0.06183  0.64625  0.71435  1.0000
  C   C536      1.0  0.11518  0.88494  0.68985  1.0000
  C   C537      1.0  0.07314  0.95525  0.57868  1.0000
  H   H414      1.0  0.14763  0.68431  0.59075  1.0000
  C   C538      1.0  0.02843  0.72429  0.67079  1.0000
  C   C539      1.0  0.00813  0.69290  0.70449  1.0000
  C   C540      1.0  0.99654  0.90317  0.69752  1.0000
  H   H415      1.0  0.06697  0.85281  0.58616  1.0000
  H   H416      1.0  0.99553  0.66726  0.70013  1.0000
  H   H417      1.0  0.17868  0.92355  0.72292  1.0000
  C   C541      1.0  0.97062  0.86924  0.72614  1.0000
  C   C542      1.0  0.14918  0.90178  0.68861  1.0000
  H   H418      1.0  0.98522  0.85208  0.61071  1.0000
  H   H419      1.0  0.97313  0.93158  0.55438  1.0000
  C   C543      1.0  0.98439  0.72345  0.55156  1.0000
  C   C544      1.0  0.06496  0.62468  0.74119  1.0000
  C   C545      1.0  0.06033  0.97417  0.79244  1.0000
  H   H420      1.0  0.98910  0.67008  0.77027  1.0000
  H   H421      1.0  0.04119  0.59980  0.76367  1.0000
  C   C546      1.0  0.03842  0.88352  0.66804  1.0000
  C   C547      1.0  0.09835  0.63601  0.74076  1.0000
  H   H422      1.0  0.13327  0.96726  0.71235  1.0000
  H   H423      1.0  0.09987  0.61953  0.76305  1.0000
  H   H424      1.0  0.10705  0.50260  0.78975  1.0000
  H   H425      1.0  0.03560  0.63808  0.71598  1.0000
  H   H426      1.0  0.08070  0.72021  0.76894  1.0000
  H   H427      1.0  0.12338  0.70042  0.77479  1.0000
  C   C548      1.0  0.02069  0.72692  0.75121  1.0000
  C   C549      1.0  0.13869  0.82248  0.73342  1.0000
  H   H428      1.0  0.01872  0.72775  0.78198  1.0000
  C   C550      1.0  0.09655  0.74870  0.75916  1.0000
  C   C551      1.0  0.12172  0.90297  0.75983  1.0000
  H   H429      1.0  0.15366  0.61874  0.77289  1.0000
  C   C552      1.0  0.13895  0.69618  0.78824  1.0000
  C   C553      1.0  0.16434  0.68728  0.76632  1.0000
  C   C554      1.0  0.29592  0.59347  0.58841  1.0000
  H   H430      1.0  0.07848  0.95201  0.70470  1.0000
  C   C555      1.0  0.16851  0.61986  0.74102  1.0000
  C   C556      1.0  0.12210  0.76764  0.71670  1.0000
  C   C557      1.0  0.09313  0.76682  0.78887  1.0000
  C   C558      1.0  0.03968  0.75831  0.71828  1.0000
  C   C559      1.0  0.03300  0.97045  0.78248  1.0000
  C   C560      1.0  0.13858  0.97731  0.60177  1.0000
  C   C561      1.0  0.04301  0.75704  0.67837  1.0000
  H   H431      1.0  0.14027  0.97861  0.57088  1.0000
  C   C562      1.0  0.03083  0.91066  0.66848  1.0000
  P   P19       1.0  0.17124  0.68261  0.71519  1.0000
  P   P20       1.0  0.06516  0.95453  0.63195  1.0000
  C   C563      1.0  0.09237  0.67868  0.68624  1.0000
  C   C564      1.0  0.12606  0.68966  0.68491  1.0000
  C   C565      1.0  0.17619  0.59332  0.73434  1.0000
  H   H432      1.0  0.18219  0.75342  0.68755  1.0000
  H   H433      1.0  0.12625  0.75366  0.69422  1.0000
  C   C566      1.0  0.18532  0.68364  0.78377  1.0000
  C   C567      1.0  0.18524  0.50210  0.78575  1.0000
  H   H434      1.0  0.04471  0.89824  0.59147  1.0000
  C   C568      1.0  0.14442  0.80452  0.70430  1.0000
  C   C569      1.0  0.18017  0.64763  0.70680  1.0000
  C   C570      1.0  0.19482  0.59384  0.69347  1.0000
  H   H435      1.0  0.20124  0.57355  0.68862  1.0000
  H   H436      1.0  0.09083  0.69880  0.59683  1.0000
  C   C571      1.0  0.20757  0.75469  0.67104  1.0000
  S   S67       1.0  0.18449  0.82751  0.65636  1.0000
  H   H437      1.0  0.98713  0.90858  0.59885  1.0000
  H   H438      1.0  0.11143  0.81801  0.79822  1.0000
  H   H439      1.0  0.10065  0.57783  0.56090  1.0000
  H   H440      1.0  0.15647  0.85075  0.72438  1.0000
  S   S68       1.0  0.20562  0.83630  0.74594  1.0000
  C   C572      1.0  0.19765  0.64723  0.66575  1.0000
  C   C573      1.0  0.20517  0.62052  0.65915  1.0000
  H   H441      1.0  0.05816  0.78162  0.65302  1.0000
  H   H442      1.0  0.14908  0.71466  0.66261  1.0000
  C   C574      1.0  0.21043  0.72499  0.67912  1.0000
  H   H443      1.0  0.25722  0.87937  0.58358  1.0000
  H   H444      1.0  0.08980  0.69568  0.66606  1.0000
  H   H445      1.0  0.20619  0.67832  0.76660  1.0000
  P   P21       1.0  0.03925  0.72305  0.61749  1.0000
  S   S69       1.0  0.21838  0.54555  0.75290  1.0000
  H   H446      1.0  0.20588  0.66777  0.63885  1.0000
  C   C575      1.0  0.96389  0.85460  0.63296  1.0000
  S   S70       1.0  0.23227  0.62883  0.78795  1.0000
  C   C576      1.0  0.99693  0.61863  0.62328  1.0000
  Fe  Fe35      1.0  0.22621  0.85826  0.67726  1.0000
  C   C577      1.0  0.00064  0.65143  0.62482  1.0000
  C   C578      1.0  0.22268  0.53871  0.63078  1.0000
  C   C579      1.0  0.23802  0.78685  0.64195  1.0000
  H   H447      1.0  0.03701  0.81038  0.78632  1.0000
  C   C580      1.0  0.24500  0.72937  0.66159  1.0000
  Fe  Fe36      1.0  0.24233  0.58428  0.78419  1.0000
  H   H448      1.0  0.97697  0.65381  0.63403  1.0000
  H   H449      1.0  0.21921  0.62062  0.62744  1.0000
  H   H450      1.0  0.10368  0.75317  0.63074  1.0000
  C   C581      1.0  0.05935  0.92378  0.56839  1.0000
  H   H451      1.0  0.11276  0.87792  0.66265  1.0000
  C   C582      1.0  0.24472  0.54452  0.65014  1.0000
  H   H452      1.0  0.24870  0.70812  0.67074  1.0000
  C   C583      1.0  0.23696  0.56030  0.59039  1.0000
  H   H453      1.0  0.23349  0.52769  0.68142  1.0000
  H   H454      1.0  0.23572  0.80944  0.63471  1.0000
  C   C584      1.0  0.08729  0.88536  0.76166  1.0000
  Fe  Fe37      1.0  0.22282  0.89119  0.74834  1.0000
  C   C585      1.0  0.98330  0.73518  0.62686  1.0000
  H   H455      1.0  0.97061  0.59601  0.63129  1.0000
  H   H456      1.0  0.06435  0.88850  0.64509  1.0000
  C   C586      1.0  0.27183  0.79030  0.62268  1.0000
  C   C587      1.0  0.15245  0.91103  0.72349  1.0000
  C   C588      1.0  0.27543  0.76172  0.63303  1.0000
  S   S71       1.0  0.26087  0.80979  0.77528  1.0000
  C   C589      1.0  0.29176  0.96710  0.79184  1.0000
  C   C590      1.0  0.02693  0.61487  0.61215  1.0000
  H   H457      1.0  0.17286  0.90707  0.66088  1.0000
  C   C591      1.0  0.16939  0.98501  0.60640  1.0000
  Fe  Fe38      1.0  0.26106  0.84917  0.73202  1.0000
  C   C592      1.0  0.26512  0.75132  0.78335  1.0000
  H   H458      1.0  0.28144  0.51410  0.71733  1.0000
  C   C593      1.0  0.27864  0.52263  0.77588  1.0000
  C   C594      1.0  0.27571  0.78231  0.75505  1.0000
  H   H459      1.0  0.27709  0.54591  0.76974  1.0000
  C   C595      1.0  0.28108  0.50462  0.74626  1.0000
  H   H460      1.0  0.27060  0.70618  0.79193  1.0000
  H   H461      1.0  0.02405  0.58946  0.61104  1.0000
  S   S72       1.0  0.24149  0.91316  0.67995  1.0000
  C   C596      1.0  0.06447  0.67668  0.60438  1.0000
  H   H462      1.0  0.20026  0.72083  0.60272  1.0000
  C   C597      1.0  0.06070  0.64389  0.60268  1.0000
  C   C598      1.0  0.28090  0.57234  0.62961  1.0000
  H   H463      1.0  0.29542  0.81539  0.60048  1.0000
  H   H464      1.0  0.98910  0.92292  0.69746  1.0000
  S   S73       1.0  0.28129  0.86678  0.66230  1.0000
  C   C599      1.0  0.27903  0.73010  0.76978  1.0000
  C   C600      1.0  0.11150  0.76710  0.59927  1.0000
  H   H465      1.0  0.16638  0.80207  0.58718  1.0000
  C   C601      1.0  0.01148  0.93871  0.77734  1.0000
  H   H466      1.0  0.08406  0.64104  0.59373  1.0000
  C   C602      1.0  0.29905  0.50117  0.63657  1.0000
  H   H467      1.0  0.99113  0.93638  0.76811  1.0000
  H   H468      1.0  0.28758  0.64878  0.59759  1.0000
  H   H469      1.0  0.30575  0.52792  0.63553  1.0000
  C   C603      1.0  0.30044  0.79228  0.71281  1.0000
  C   C604      1.0  0.30444  0.74035  0.72795  1.0000
  Fe  Fe39      1.0  0.29201  0.66357  0.76421  1.0000
  H   H470      1.0  0.30197  0.76494  0.61910  1.0000
  C   C605      1.0  0.08599  0.75825  0.58399  1.0000
  H   H471      1.0  0.03280  0.80822  0.55840  1.0000
  C   C606      1.0  0.14734  0.79485  0.57447  1.0000
  H   H472      1.0  0.29689  0.57727  0.64614  1.0000
  H   H473      1.0  0.30917  0.81659  0.69099  1.0000
  Fe  Fe40      1.0  0.29500  0.92037  0.67049  1.0000
  C   C607      1.0  0.22587  0.96726  0.77137  1.0000
  H   H474      1.0  0.29045  0.70028  0.61921  1.0000
  C   C608      1.0  0.19774  0.73152  0.57677  1.0000
  C   C609      1.0  0.32684  0.49467  0.61779  1.0000
  S   S74       1.0  0.30270  0.61983  0.75554  1.0000
  H   H475      1.0  0.42092  0.58195  0.55623  1.0000
  C   C610      1.0  0.10396  0.96229  0.67694  1.0000
  C   C611      1.0  0.31331  0.67009  0.59303  1.0000
  C   C612      1.0  0.00850  0.72105  0.56397  1.0000
  C   C613      1.0  0.16817  0.71104  0.57001  1.0000
  H   H476      1.0  0.21987  0.55574  0.57526  1.0000
  C   C614      1.0  0.27334  0.58771  0.56934  1.0000
  S   S75       1.0  0.32336  0.71466  0.71213  1.0000
  C   C615      1.0  0.31513  0.77139  0.69936  1.0000
  H   H477      1.0  0.32051  0.80349  0.79220  1.0000
  C   C616      1.0  0.31480  0.69939  0.60538  1.0000
  C   C617      1.0  0.13493  0.97066  0.68139  1.0000
  C   C618      1.0  0.10569  0.96634  0.63700  1.0000
  H   H478      1.0  0.24812  0.78062  0.55424  1.0000
  H   H479      1.0  0.33490  0.77938  0.66703  1.0000
  H   H480      1.0  0.32260  0.90691  0.56369  1.0000
  C   C619      1.0  0.40464  0.98615  0.69023  1.0000
  C   C620      1.0  0.27462  0.87547  0.55720  1.0000
  C   C621      1.0  0.04906  0.98416  0.64545  1.0000
  C   C622      1.0  0.16769  0.98205  0.64610  1.0000
  H   H481      1.0  0.30182  0.98306  0.72778  1.0000
  H   H482      1.0  0.02052  0.97271  0.60821  1.0000
  C   C623      1.0  0.10157  0.53154  0.54958  1.0000
  H   H483      1.0  0.19139  0.98727  0.64963  1.0000
  C   C624      1.0  0.31332  0.98697  0.74926  1.0000
  H   H484      1.0  0.40259  0.69727  0.55353  1.0000
  C   C625      1.0  0.07987  0.85451  0.55353  1.0000
  H   H485      1.0  0.40789  0.72767  0.78944  1.0000
  H   H486      1.0  0.99966  0.88598  0.77941  1.0000
  C   C626      1.0  0.45577  0.97667  0.58639  1.0000
  C   C627      1.0  0.01621  0.91016  0.78412  1.0000
  P   P22       1.0  0.34271  0.62973  0.56192  1.0000
  H   H487      1.0  0.45485  0.80875  0.78425  1.0000
  C   C628      1.0  0.38661  0.60244  0.55916  1.0000
  H   H488      1.0  0.98226  0.75657  0.79484  1.0000
  C   C629      1.0  0.45616  0.76554  0.67421  1.0000
  C   C630      1.0  0.45102  0.95822  0.55774  1.0000
  C   C631      1.0  0.44923  0.61596  0.75242  1.0000
  P   P23       1.0  0.44519  0.87721  0.67748  1.0000
  H   H489      1.0  0.43289  0.70915  0.60239  1.0000
  C   C632      1.0  0.43323  0.82033  0.59507  1.0000
  C   C633      1.0  0.37899  0.96959  0.67576  1.0000
  S   S76       1.0  0.34696  0.97070  0.62502  1.0000
  H   H490      1.0  0.34866  0.75025  0.60910  1.0000
  C   C634      1.0  0.44003  0.72528  0.62180  1.0000
  C   C635      1.0  0.39317  0.60209  0.75040  1.0000
  H   H491      1.0  0.39996  0.81282  0.56410  1.0000
  C   C636      1.0  0.44416  0.83571  0.62322  1.0000
  C   C637      1.0  0.43085  0.85612  0.64190  1.0000
  H   H492      1.0  0.40323  0.97152  0.71694  1.0000
  C   C638      1.0  0.44278  0.58263  0.74841  1.0000
  H   H493      1.0  0.40501  0.74930  0.57430  1.0000
  C   C639      1.0  0.36841  0.89324  0.75930  1.0000
  C   C640      1.0  0.34486  0.66878  0.57463  1.0000
  C   C641      1.0  0.37796  0.69759  0.56796  1.0000
  H   H494      1.0  0.36336  0.55127  0.74333  1.0000
  H   H495      1.0  0.42528  0.59510  0.62015  1.0000
  H   H496      1.0  0.42694  0.64985  0.75918  1.0000
  C   C642      1.0  0.37507  0.83602  0.74255  1.0000
  C   C643      1.0  0.40092  0.89933  0.72767  1.0000
  C   C644      1.0  0.42382  0.62523  0.75400  1.0000
  H   H497      1.0  0.42367  0.83222  0.76087  1.0000
  C   C645      1.0  0.37940  0.72702  0.57996  1.0000
  C   C646      1.0  0.36886  0.61872  0.58044  1.0000
  H   H498      1.0  0.37666  0.81348  0.73554  1.0000
  H   H499      1.0  0.38467  0.71050  0.65988  1.0000
  H   H500      1.0  0.35718  0.63789  0.63414  1.0000
  H   H501      1.0  0.43122  0.93008  0.56886  1.0000
  H   H502      1.0  0.37314  0.60903  0.75306  1.0000
  H   H503      1.0  0.43966  0.96285  0.61984  1.0000
  H   H504      1.0  0.39893  0.74628  0.70612  1.0000
  H   H505      1.0  0.39335  0.49146  0.69110  1.0000
  C   C647      1.0  0.33965  0.85872  0.78295  1.0000
  C   C648      1.0  0.40715  0.59428  0.57324  1.0000
  H   H506      1.0  0.44381  0.80487  0.58055  1.0000
  H   H507      1.0  0.35798  0.94197  0.69127  1.0000
  C   C649      1.0  0.34307  0.83019  0.77455  1.0000
  C   C650      1.0  0.40668  0.86107  0.63174  1.0000
  C   C651      1.0  0.40881  0.82501  0.58557  1.0000
  C   C652      1.0  0.41245  0.72576  0.65461  1.0000
  H   H508      1.0  0.35482  0.51629  0.60225  1.0000
  C   C653      1.0  0.40466  0.87063  0.71963  1.0000
  H   H509      1.0  0.42280  0.92633  0.70978  1.0000
  C   C654      1.0  0.40965  0.60179  0.60910  1.0000
  H   H510      1.0  0.36172  0.66996  0.79107  1.0000
  C   C655      1.0  0.42047  0.74593  0.68077  1.0000
  H   H511      1.0  0.37659  0.84890  0.59639  1.0000
  C   C656      1.0  0.34772  0.72771  0.59922  1.0000
  H   H512      1.0  0.39326  0.62315  0.65891  1.0000
  C   C657      1.0  0.41245  0.55988  0.74396  1.0000
  C   C658      1.0  0.39564  0.84546  0.60377  1.0000
  H   H513      1.0  0.40771  0.53428  0.74076  1.0000
  C   C659      1.0  0.39166  0.61759  0.63086  1.0000
  H   H514      1.0  0.36540  0.91518  0.76565  1.0000
  H   H515      1.0  0.39608  0.87675  0.64573  1.0000
  C   C660      1.0  0.37130  0.62600  0.61665  1.0000
  C   C661      1.0  0.38753  0.56948  0.74523  1.0000
  C   C662      1.0  0.44977  0.83767  0.73824  1.0000
  C   C663      1.0  0.04230  0.91313  0.79653  1.0000
  C   C664      1.0  0.06542  0.94593  0.79880  1.0000
  H   H516      1.0  0.41331  0.56839  0.90711  1.0000
  H   H517      1.0  0.40662  0.50989  0.87463  1.0000
  H   H518      1.0  0.17290  0.85086  0.88192  1.0000
  C   C665      1.0  0.98590  0.51343  0.84234  1.0000
  P   P24       1.0  0.26337  0.67914  0.99392  1.0000
  H   H519      1.0  0.31406  0.79990  0.86055  1.0000
  H   H520      1.0  0.31976  0.73025  0.01211  1.0000
  H   H521      1.0  0.10274  0.73227  0.90233  1.0000
  H   H522      1.0  0.41628  0.82682  0.83360  1.0000
  H   H523      1.0  0.35239  0.49425  0.93973  1.0000
  S   S77       1.0  0.44676  0.74579  0.83712  1.0000
  H   H524      1.0  0.27500  0.52468  0.83613  1.0000
  C   C666      1.0  0.44154  0.65258  0.01578  1.0000
  S   S78       1.0  0.23393  0.57214  0.85041  1.0000
  H   H525      1.0  0.18546  0.50050  0.99237  1.0000
  C   C667      1.0  0.08102  0.85505  0.89112  1.0000
  C   C668      1.0  0.23858  0.51657  0.94452  1.0000
  C   C669      1.0  0.07479  0.87466  0.91799  1.0000
  H   H526      1.0  0.22979  0.68570  0.94117  1.0000
  H   H527      1.0  0.27071  0.98713  0.99768  1.0000
  H   H528      1.0  0.36319  0.75444  0.85134  1.0000
  C   C670      1.0  0.44933  0.62196  0.90204  1.0000
  C   C671      1.0  0.16701  0.72637  0.99326  1.0000
  C   C672      1.0  0.97546  0.80232  0.03618  1.0000
  C   C673      1.0  0.20667  0.92946  0.92513  1.0000
  C   C674      1.0  0.09690  0.61104  0.90540  1.0000
  H   H529      1.0  0.21222  0.70137  0.03287  1.0000
  H   H530      1.0  0.01512  0.79449  0.96496  1.0000
  H   H531      1.0  0.03430  0.77000  0.90846  1.0000
  S   S79       1.0  0.18611  0.62025  0.90800  1.0000
  C   C675      1.0  0.19409  0.93798  0.80356  1.0000
  P   P25       1.0  0.04747  0.87600  0.80787  1.0000
  C   C676      1.0  0.18841  0.80404  0.85126  1.0000
  H   H532      1.0  0.08694  0.94948  0.80633  1.0000
  H   H533      1.0  0.32221  0.74829  0.82017  1.0000
  C   C677      1.0  0.31782  0.89324  0.93339  1.0000
  C   C678      1.0  0.17264  0.94286  0.83862  1.0000
  C   C679      1.0  0.17822  0.77088  0.91659  1.0000
  H   H534      1.0  0.05429  0.86836  0.02925  1.0000
  H   H535      1.0  0.25093  0.78216  0.87860  1.0000
  H   H536      1.0  0.22739  0.82058  0.87431  1.0000
  H   H537      1.0  0.99374  0.73892  0.87840  1.0000
  H   H538      1.0  0.31779  0.91823  0.84172  1.0000
  C   C680      1.0  0.31262  0.91565  0.87403  1.0000
  Fe  Fe41      1.0  0.41671  0.77941  0.96602  1.0000
  H   H539      1.0  0.08795  0.50282  0.86301  1.0000
  C   C681      1.0  0.37337  0.67080  0.81212  1.0000
  H   H540      1.0  0.20061  0.50817  0.83505  1.0000
  H   H541      1.0  0.09467  0.84139  0.89404  1.0000
  H   H542      1.0  0.14381  0.78282  0.83655  1.0000
  Fe  Fe42      1.0  0.03588  0.68538  0.86439  1.0000
  C   C682      1.0  0.17083  0.58975  0.01270  1.0000
  H   H543      1.0  0.41560  0.67443  0.88737  1.0000
  C   C683      1.0  0.98519  0.75005  0.90288  1.0000
  H   H544      1.0  0.96060  0.83262  0.92971  1.0000
  C   C684      1.0  0.17938  0.68673  0.82377  1.0000
  C   C685      1.0  0.23550  0.71594  0.03790  1.0000
  H   H545      1.0  0.96951  0.84814  0.85551  1.0000
  H   H546      1.0  0.05371  0.90850  0.93376  1.0000
  Fe  Fe43      1.0  0.97624  0.62053  0.86002  1.0000
  C   C686      1.0  0.18244  0.87247  0.89442  1.0000
  H   H547      1.0  0.23189  0.84406  0.95673  1.0000
  H   H548      1.0  0.03254  0.97300  0.93261  1.0000
  C   C687      1.0  0.17728  0.79834  0.98358  1.0000
  C   C688      1.0  0.16665  0.69891  0.97668  1.0000
  H   H549      1.0  0.15343  0.64484  0.99034  1.0000
  H   H550      1.0  0.16216  0.57762  0.85862  1.0000
  C   C689      1.0  0.14280  0.74640  0.92446  1.0000
  H   H551      1.0  0.38441  0.86948  0.95645  1.0000
  C   C690      1.0  0.13377  0.70019  0.82771  1.0000
  C   C691      1.0  0.30863  0.80411  0.92101  1.0000
  H   H552      1.0  0.08354  0.87635  0.94204  1.0000
  C   C692      1.0  0.45708  0.89481  0.03025  1.0000
  C   C693      1.0  0.30724  0.97189  0.81911  1.0000
  C   C694      1.0  0.14414  0.58711  0.87161  1.0000
  H   H553      1.0  0.07902  0.62070  0.91790  1.0000
  C   C695      1.0  0.26049  0.78839  0.90163  1.0000
  C   C696      1.0  0.27698  0.51005  0.81394  1.0000
  C   C697      1.0  0.26515  0.71144  0.02116  1.0000
  C   C698      1.0  0.01077  0.80759  0.80259  1.0000
  H   H554      1.0  0.12451  0.72466  0.95333  1.0000
  H   H555      1.0  0.16636  0.98040  0.86915  1.0000
  S   S80       1.0  0.97564  0.65832  0.89705  1.0000
  S   S81       1.0  0.28781  0.65767  0.82877  1.0000
  C   C699      1.0  0.30560  0.64901  0.96955  1.0000
  P   P26       1.0  0.27978  0.95499  0.87511  1.0000
  H   H556      1.0  0.38112  0.94622  0.99479  1.0000
  H   H557      1.0  0.14809  0.92028  0.86345  1.0000
  H   H558      1.0  0.37081  0.61635  0.88720  1.0000
  H   H559      1.0  0.39780  0.90250  0.88727  1.0000
  S   S82       1.0  0.97274  0.58327  0.90916  1.0000
  C   C700      1.0  0.97986  0.77687  0.80770  1.0000
  C   C701      1.0  0.29612  0.79796  0.89128  1.0000
  Fe  Fe44      1.0  0.22854  0.61955  0.85220  1.0000
  C   C702      1.0  0.12403  0.61775  0.91739  1.0000
  H   H560      1.0  0.99895  0.54904  0.94632  1.0000
  H   H561      1.0  0.23323  0.79046  0.00265  1.0000
  H   H562      1.0  0.33622  0.62362  0.95213  1.0000
  H   H563      1.0  0.28814  0.52560  0.89605  1.0000
  H   H564      1.0  0.12732  0.63299  0.93879  1.0000
  C   C703      1.0  0.39957  0.87921  0.89036  1.0000
  Fe  Fe45      1.0  0.97704  0.62309  0.94373  1.0000
  S   S83       1.0  0.44808  0.97326  0.85520  1.0000
  C   C704      1.0  0.37870  0.49840  0.83714  1.0000
  C   C705      1.0  0.37855  0.64066  0.86629  1.0000
  H   H565      1.0  0.20611  0.82676  0.82327  1.0000
  H   H566      1.0  0.40240  0.79339  0.90265  1.0000
  H   H567      1.0  0.01320  0.85727  0.99793  1.0000
  H   H568      1.0  0.22252  0.62754  0.96014  1.0000
  C   C706      1.0  0.31100  0.73593  0.85349  1.0000
  H   H569      1.0  0.27376  0.93737  0.95870  1.0000
  H   H570      1.0  0.33570  0.81025  0.91324  1.0000
  C   C707      1.0  0.00664  0.83601  0.02254  1.0000
  P   P27       1.0  0.19048  0.77049  0.95821  1.0000
  C   C708      1.0  0.18179  0.49080  0.82531  1.0000
  H   H571      1.0  0.25551  0.71418  0.86577  1.0000
  H   H572      1.0  0.33773  0.72543  0.92674  1.0000
  C   C709      1.0  0.28921  0.66100  0.00080  1.0000
  C   C710      1.0  0.99712  0.78162  0.95183  1.0000
  C   C711      1.0  0.40174  0.81740  0.89930  1.0000
  C   C712      1.0  0.39371  0.82998  0.93365  1.0000
  H   H573      1.0  0.25108  0.54352  0.94577  1.0000
  C   C713      1.0  0.32305  0.63223  0.97650  1.0000
  S   S84       1.0  0.06299  0.58694  0.85708  1.0000
  C   C714      1.0  0.25958  0.50632  0.91620  1.0000
  H   H574      1.0  0.32655  0.94886  0.02966  1.0000
  C   C715      1.0  0.03095  0.61396  0.01838  1.0000
  C   C716      1.0  0.00809  0.76762  0.91987  1.0000
  C   C717      1.0  0.36954  0.94258  0.02828  1.0000
  C   C718      1.0  0.09706  0.52139  0.97603  1.0000
  H   H575      1.0  0.21559  0.95097  0.93803  1.0000
  H   H576      1.0  0.14970  0.69808  0.87632  1.0000
  H   H577      1.0  0.33835  0.88559  0.87307  1.0000
  H   H578      1.0  0.07671  0.83943  0.83799  1.0000
  C   C719      1.0  0.14844  0.60685  0.89922  1.0000
  C   C720      1.0  0.05801  0.89288  0.91322  1.0000
  C   C721      1.0  0.20165  0.49240  0.97053  1.0000
  C   C722      1.0  0.15261  0.66563  0.00343  1.0000
  C   C723      1.0  0.39142  0.86022  0.92961  1.0000
  C   C724      1.0  0.40374  0.67343  0.86647  1.0000
  H   H579      1.0  0.14745  0.86074  0.03009  1.0000
  C   C725      1.0  0.98812  0.52129  0.94892  1.0000
  H   H580      1.0  0.16113  0.57465  0.99373  1.0000
  S   S85       1.0  0.40407  0.96820  0.80083  1.0000
  C   C726      1.0  0.96313  0.77839  0.96678  1.0000
  C   C727      1.0  0.29521  0.93133  0.89770  1.0000
  Fe  Fe46      1.0  0.03341  0.61545  0.87575  1.0000
  C   C728      1.0  0.36245  0.63944  0.84017  1.0000
  S   S86       1.0  0.18088  0.89509  0.80081  1.0000
  S   S87       1.0  0.42620  0.89448  0.80504  1.0000
  H   H581      1.0  0.17842  0.70361  0.94299  1.0000
  H   H582      1.0  0.11424  0.70725  0.84407  1.0000
  C   C729      1.0  0.23760  0.78613  0.94175  1.0000
  H   H583      1.0  0.06669  0.70080  0.01320  1.0000
  H   H584      1.0  0.32745  0.87942  0.94683  1.0000
  C   C730      1.0  0.15315  0.72012  0.03685  1.0000
  H   H585      1.0  0.03510  0.59726  0.99954  1.0000
  C   C731      1.0  0.07098  0.85413  0.85909  1.0000
  C   C732      1.0  0.27345  0.71673  0.87911  1.0000
  S   S88       1.0  0.38981  0.72604  0.95837  1.0000
  H   H586      1.0  0.12874  0.85914  0.93680  1.0000
  C   C733      1.0  0.28895  0.65433  0.03974  1.0000
  C   C734      1.0  0.21795  0.64097  0.01744  1.0000
  C   C735      1.0  0.43369  0.59502  0.88607  1.0000
  C   C736      1.0  0.12805  0.52037  0.95301  1.0000
  H   H587      1.0  0.26307  0.94894  0.80346  1.0000
  S   S89       1.0  0.38793  0.80870  0.98102  1.0000
  H   H588      1.0  0.33798  0.61449  0.01981  1.0000
  H   H589      1.0  0.23871  0.89161  0.85533  1.0000
  S   S90       1.0  0.43849  0.76451  0.00526  1.0000
  H   H590      1.0  0.16595  0.95962  0.02615  1.0000
  C   C737      1.0  0.32372  0.62675  0.01479  1.0000
  H   H591      1.0  0.43955  0.65585  0.98696  1.0000
  H   H592      1.0  0.00537  0.53534  0.84752  1.0000
  C   C738      1.0  0.06458  0.49912  0.97526  1.0000
  C   C739      1.0  0.12633  0.49632  0.93043  1.0000
  H   H593      1.0  0.40964  0.93499  0.03556  1.0000
  C   C740      1.0  0.04877  0.67234  0.02584  1.0000
  C   C741      1.0  0.44926  0.86238  0.02227  1.0000
  S   S91       1.0  0.32755  0.59900  0.84379  1.0000
  C   C742      1.0  0.38109  0.50129  0.87421  1.0000
  C   C743      1.0  0.44501  0.60222  0.84287  1.0000
  H   H594      1.0  0.24644  0.74411  0.81604  1.0000
  Fe  Fe47      1.0  0.44076  0.94999  0.80447  1.0000
  C   C744      1.0  0.19238  0.85589  0.99283  1.0000
  C   C745      1.0  0.13904  0.65969  0.04679  1.0000
  Fe  Fe48      1.0  0.44271  0.74723  0.90077  1.0000
  H   H595      1.0  0.41051  0.80631  0.04385  1.0000
  C   C746      1.0  0.00760  0.83449  0.81786  1.0000
  H   H596      1.0  0.15045  0.49573  0.91258  1.0000
  H   H597      1.0  0.21418  0.93095  0.01572  1.0000
  C   C747      1.0  0.20069  0.80015  0.88013  1.0000
  H   H598      1.0  0.45124  0.52492  0.96872  1.0000
  H   H599      1.0  0.11447  0.56595  0.83750  1.0000
  H   H600      1.0  0.96582  0.88930  0.90630  1.0000
  C   C748      1.0  0.25066  0.79284  0.97128  1.0000
  S   S92       1.0  0.08558  0.94341  0.99619  1.0000
  C   C749      1.0  0.14033  0.78607  0.00714  1.0000
  H   H601      1.0  0.10097  0.79884  0.04205  1.0000
  C   C750      1.0  0.28789  0.92637  0.93979  1.0000
  C   C751      1.0  0.15384  0.69529  0.84561  1.0000
  H   H602      1.0  0.26912  0.84671  0.03034  1.0000
  C   C752      1.0  0.25887  0.70019  0.92191  1.0000
  C   C753      1.0  0.01030  0.97077  0.03295  1.0000
  C   C754      1.0  0.41400  0.70480  0.83904  1.0000
  C   C755      1.0  0.13031  0.75078  0.89588  1.0000
  C   C756      1.0  0.33822  0.94374  0.04845  1.0000
  S   S93       1.0  0.03774  0.65304  0.91391  1.0000
  C   C757      1.0  0.29586  0.73203  0.02625  1.0000
  H   H603      1.0  0.40245  0.50451  0.80907  1.0000
  C   C758      1.0  0.29951  0.90782  0.95747  1.0000
  C   C759      1.0  0.04767  0.89173  0.88142  1.0000
  C   C760      1.0  0.31949  0.72254  0.91372  1.0000
  C   C761      1.0  0.28176  0.70198  0.93923  1.0000
  C   C762      1.0  0.05521  0.87329  0.85320  1.0000
  H   H604      1.0  0.30493  0.65251  0.93984  1.0000
  C   C763      1.0  0.41003  0.86800  0.85535  1.0000
  C   C764      1.0  0.01060  0.50762  0.94330  1.0000
  C   C765      1.0  0.40934  0.83616  0.86028  1.0000
  C   C766      1.0  0.15330  0.77943  0.85897  1.0000
  H   H605      1.0  0.11987  0.75915  0.01268  1.0000
  C   C767      1.0  0.22811  0.93340  0.03450  1.0000
  C   C768      1.0  0.20545  0.62031  0.99352  1.0000
  C   C769      1.0  0.09421  0.59323  0.87566  1.0000
  H   H606      1.0  0.29592  0.80652  0.98397  1.0000
  C   C770      1.0  0.20327  0.83362  0.97584  1.0000
  H   H607      1.0  0.43289  0.58078  0.83124  1.0000
  H   H608      1.0  0.19482  0.68270  0.83768  1.0000
  H   H609      1.0  0.21253  0.88279  0.98737  1.0000
  H   H610      1.0  0.03872  0.52540  0.93505  1.0000
  H   H611      1.0  0.04079  0.50008  0.99340  1.0000
  C   C771      1.0  0.12954  0.80861  0.02350  1.0000
  C   C772      1.0  0.32404  0.89683  0.89179  1.0000
  H   H612      1.0  0.44109  0.61628  0.93541  1.0000
  H   H613      1.0  0.15016  0.91018  0.96376  1.0000
  H   H614      1.0  0.15366  0.53857  0.95190  1.0000
  C   C773      1.0  0.23200  0.92497  0.89379  1.0000
  C   C774      1.0  0.25939  0.96549  0.02494  1.0000
  C   C775      1.0  0.28605  0.80178  0.96093  1.0000
  C   C776      1.0  0.39950  0.70344  0.81115  1.0000
  C   C777      1.0  0.97281  0.82851  0.84187  1.0000
  C   C778      1.0  0.02989  0.84251  0.04050  1.0000
  Fe  Fe49      1.0  0.41526  0.71228  0.99346  1.0000
  C   C779      1.0  0.16951  0.90605  0.94029  1.0000
  C   C780      1.0  0.21966  0.89592  0.87903  1.0000
  H   H615      1.0  0.03468  0.90600  0.87848  1.0000
  C   C781      1.0  0.18332  0.97686  0.84213  1.0000
  S   S94       1.0  0.06613  0.74464  0.84309  1.0000
  C   C782      1.0  0.05488  0.65062  0.00222  1.0000
  C   C783      1.0  0.04234  0.97115  0.01040  1.0000
  C   C784      1.0  0.11697  0.58023  0.85995  1.0000
  C   C785      1.0  0.04587  0.94327  0.02404  1.0000
  H   H616      1.0  0.29494  0.90541  0.98958  1.0000
  H   H617      1.0  0.07767  0.66214  0.97103  1.0000
  H   H618      1.0  0.09860  0.54018  0.99342  1.0000
  C   C786      1.0  0.15563  0.84344  0.01669  1.0000
  H   H619      1.0  0.31440  0.85400  0.80718  1.0000
  S   S95       1.0  0.03650  0.65027  0.82401  1.0000
  C   C787      1.0  0.15743  0.87746  0.92503  1.0000
  Fe  Fe50      1.0  0.29366  0.61091  0.82202  1.0000
  C   C788      1.0  0.33403  0.73922  0.87093  1.0000
  C   C789      1.0  0.35041  0.49243  0.91094  1.0000
  C   C790      1.0  0.45888  0.51997  0.90735  1.0000
  C   C791      1.0  0.30646  0.63759  0.04649  1.0000
  H   H620      1.0  0.40149  0.63336  0.18162  1.0000
  C   C792      1.0  0.96549  0.96621  0.20444  1.0000
  C   C793      1.0  0.05215  0.58444  0.12117  1.0000
  C   C794      1.0  0.39210  0.54527  0.25234  1.0000
  C   C795      1.0  0.42448  0.66808  0.25322  1.0000
  H   H621      1.0  0.98158  0.82192  0.28280  1.0000
  C   C796      1.0  0.32193  0.60979  0.24164  1.0000
  H   H622      1.0  0.23872  0.94134  0.26867  1.0000
  H   H623      1.0  0.20255  0.97792  0.12137  1.0000
  C   C797      1.0  0.43970  0.70416  0.23359  1.0000
  S   S96       1.0  0.33592  0.92752  0.27329  1.0000
  C   C798      1.0  0.42791  0.68896  0.17579  1.0000
  H   H624      1.0  0.00887  0.50027  0.27134  1.0000
  C   C799      1.0  0.25294  0.70661  0.15865  1.0000
  C   C800      1.0  0.00416  0.86698  0.15935  1.0000
  C   C801      1.0  0.10602  0.91279  0.14612  1.0000
  S   S97       1.0  0.12888  0.78185  0.19217  1.0000
  C   C802      1.0  0.99513  0.62053  0.08256  1.0000
  C   C803      1.0  0.25109  0.67487  0.17088  1.0000
  C   C804      1.0  0.15014  0.70566  0.27484  1.0000
  C   C805      1.0  0.44695  0.64441  0.09015  1.0000
  H   H625      1.0  0.37860  0.72957  0.24254  1.0000
  C   C806      1.0  0.29281  0.71052  0.26953  1.0000
  C   C807      1.0  0.18743  0.89092  0.22042  1.0000
  H   H626      1.0  0.02321  0.94791  0.16962  1.0000
  Fe  Fe51      1.0  0.26083  0.79702  0.29142  1.0000
  H   H627      1.0  0.99556  0.97659  0.25996  1.0000
  C   C808      1.0  0.27687  0.67465  0.18144  1.0000
  C   C809      1.0  0.15725  0.73971  0.26089  1.0000
  H   H628      1.0  0.08886  0.89947  0.17940  1.0000
  H   H629      1.0  0.31647  0.56855  0.21274  1.0000
  C   C810      1.0  0.24601  0.88189  0.18163  1.0000
  H   H630      1.0  0.36712  0.80810  0.10726  1.0000
  C   C811      1.0  0.21575  0.90440  0.06725  1.0000
  S   S98       1.0  0.08482  0.53904  0.21485  1.0000
  H   H631      1.0  0.15870  0.83747  0.25967  1.0000
  H   H632      1.0  0.14493  0.92784  0.28732  1.0000
  C   C812      1.0  0.09118  0.66840  0.23677  1.0000
  Fe  Fe52      1.0  0.30503  0.83576  0.19774  1.0000
  C   C813      1.0  0.30391  0.94002  0.28877  1.0000
  C   C814      1.0  0.40145  0.86360  0.09606  1.0000
  H   H633      1.0  0.32738  0.76259  0.16723  1.0000
  Fe  Fe53      1.0  0.09636  0.80525  0.18921  1.0000
  C   C815      1.0  0.33526  0.64964  0.16635  1.0000
  H   H634      1.0  0.14563  0.58949  0.11419  1.0000
  H   H635      1.0  0.45000  0.64265  0.11828  1.0000
  H   H636      1.0  0.12951  0.63444  0.06738  1.0000
  H   H637      1.0  0.31925  0.77044  0.05484  1.0000
  C   C816      1.0  0.44105  0.76716  0.09725  1.0000
  C   C817      1.0  0.44126  0.71447  0.19467  1.0000
  H   H638      1.0  0.19241  0.87886  0.07387  1.0000
  H   H639      1.0  0.07212  0.49362  0.10553  1.0000
  C   C818      1.0  0.39275  0.83194  0.08666  1.0000
  S   S99       1.0  0.10717  0.80726  0.12323  1.0000
  C   C819      1.0  0.42939  0.56070  0.23818  1.0000
  C   C820      1.0  0.26355  0.94135  0.08416  1.0000
  C   C821      1.0  0.12393  0.91004  0.07491  1.0000
  C   C822      1.0  0.08330  0.63458  0.25356  1.0000
  C   C823      1.0  0.38259  0.74316  0.15833  1.0000
  H   H640      1.0  0.32828  0.92957  0.14808  1.0000
  H   H641      1.0  0.08354  0.86482  0.13036  1.0000
  H   H642      1.0  0.99916  0.50306  0.19311  1.0000
  C   C824      1.0  0.32859  0.64421  0.23685  1.0000
  H   H643      1.0  0.98261  0.57056  0.06986  1.0000
  C   C825      1.0  0.33461  0.66420  0.19944  1.0000
  C   C826      1.0  0.24919  0.91402  0.16685  1.0000
  H   H644      1.0  0.43378  0.82648  0.28436  1.0000
  C   C827      1.0  0.33959  0.93327  0.11465  1.0000
  H   H645      1.0  0.39698  0.71374  0.11778  1.0000
  C   C828      1.0  0.06548  0.90812  0.28764  1.0000
  H   H646      1.0  0.08704  0.83228  0.29725  1.0000
  H   H647      1.0  0.14563  0.77941  0.27730  1.0000
  C   C829      1.0  0.98501  0.95078  0.27994  1.0000
  H   H648      1.0  0.42983  0.69690  0.14538  1.0000
  S   S100      1.0  0.35387  0.87205  0.20408  1.0000
  H   H649      1.0  0.31603  0.59420  0.27119  1.0000
  H   H650      1.0  0.03845  0.84021  0.21937  1.0000
  H   H651      1.0  0.45318  0.74203  0.17853  1.0000
  C   C830      1.0  0.96989  0.90064  0.20178  1.0000
  H   H652      1.0  0.39680  0.88884  0.24281  1.0000
  Fe  Fe54      1.0  0.13744  0.78083  0.12723  1.0000
  H   H653      1.0  0.01750  0.85408  0.14305  1.0000
  C   C831      1.0  0.21953  0.91822  0.18651  1.0000
  C   C832      1.0  0.40581  0.73878  0.12413  1.0000
  H   H654      1.0  0.27239  0.70122  0.25907  1.0000
  C   C833      1.0  0.30540  0.70643  0.17898  1.0000
  H   H655      1.0  0.05991  0.92659  0.23531  1.0000
  H   H656      1.0  0.96738  0.75766  0.27496  1.0000
  P   P28       1.0  0.33762  0.70647  0.19530  1.0000
  Fe  Fe55      1.0  0.34191  0.82434  0.24750  1.0000
  C   C834      1.0  0.00941  0.62948  0.16321  1.0000
  C   C835      1.0  0.26202  0.83668  0.06279  1.0000
  H   H657      1.0  0.43950  0.91894  0.07647  1.0000
  C   C836      1.0  0.41759  0.65435  0.05169  1.0000
  C   C837      1.0  0.37878  0.54694  0.22388  1.0000
  H   H658      1.0  0.07406  0.59516  0.05410  1.0000
  H   H659      1.0  0.28206  0.76298  0.14809  1.0000
  C   C838      1.0  0.14651  0.68041  0.17828  1.0000
  C   C839      1.0  0.97304  0.60537  0.17368  1.0000
  C   C840      1.0  0.38581  0.93658  0.05123  1.0000
  H   H660      1.0  0.16292  0.69498  0.25300  1.0000
  H   H661      1.0  0.12079  0.89510  0.05318  1.0000
  H   H662      1.0  0.05880  0.61666  0.28246  1.0000
  C   C841      1.0  0.42631  0.90998  0.27666  1.0000
  C   C842      1.0  0.02142  0.81589  0.07333  1.0000
  C   C843      1.0  0.25644  0.94576  0.28281  1.0000
  H   H663      1.0  0.17523  0.75519  0.22821  1.0000
  C   C844      1.0  0.05742  0.57485  0.08441  1.0000
  P   P29       1.0  0.28587  0.94586  0.11668  1.0000
  C   C845      1.0  0.32199  0.59531  0.20883  1.0000
  C   C846      1.0  0.01459  0.52257  0.16258  1.0000
  H   H664      1.0  0.06468  0.61211  0.11955  1.0000
  C   C847      1.0  0.06400  0.82995  0.29419  1.0000
  H   H665      1.0  0.98686  0.50796  0.06934  1.0000
  Fe  Fe56      1.0  0.05780  0.75242  0.15111  1.0000
  C   C848      1.0  0.30685  0.73815  0.16714  1.0000
  H   H666      1.0  0.40150  0.65123  0.11650  1.0000
  H   H667      1.0  0.20622  0.64379  0.08053  1.0000
  C   C849      1.0  0.23558  0.73900  0.06178  1.0000
  H   H668      1.0  0.27375  0.64944  0.19227  1.0000
  H   H669      1.0  0.37690  0.78145  0.18864  1.0000
  C   C850      1.0  0.43997  0.57812  0.16667  1.0000
  S   S101      1.0  0.04409  0.75297  0.21733  1.0000
  Fe  Fe57      1.0  0.10156  0.49930  0.20678  1.0000
  H   H670      1.0  0.16903  0.96162  0.21440  1.0000
  C   C851      1.0  0.98933  0.50606  0.29094  1.0000
  C   C852      1.0  0.42975  0.80524  0.13646  1.0000
  C   C853      1.0  0.21354  0.85441  0.21536  1.0000
  H   H671      1.0  0.22435  0.88487  0.11576  1.0000
  C   C854      1.0  0.14924  0.94640  0.05966  1.0000
  C   C855      1.0  0.01735  0.91482  0.05994  1.0000
  C   C856      1.0  0.28081  0.73830  0.15690  1.0000
  S   S102      1.0  0.38947  0.82089  0.24381  1.0000
  C   C857      1.0  0.32647  0.71421  0.24582  1.0000
  C   C858      1.0  0.45308  0.80032  0.10343  1.0000
  C   C859      1.0  0.28015  0.83321  0.11715  1.0000
  H   H672      1.0  0.10011  0.59730  0.24557  1.0000
  H   H673      1.0  0.38295  0.86389  0.12471  1.0000
  H   H674      1.0  0.02890  0.64716  0.13175  1.0000
  C   C860      1.0  0.03113  0.55831  0.16019  1.0000
  C   C861      1.0  0.06662  0.83849  0.25442  1.0000
  C   C862      1.0  0.10681  0.62357  0.23244  1.0000
  H   H675      1.0  0.16421  0.89375  0.23448  1.0000
  P   P30       1.0  0.13398  0.97507  0.16690  1.0000
  C   C863      1.0  0.45366  0.57731  0.19516  1.0000
  C   C864      1.0  0.43351  0.89492  0.06817  1.0000
  C   C865      1.0  0.00715  0.92004  0.17400  1.0000
  C   C866      1.0  0.02124  0.63106  0.19381  1.0000
  H   H676      1.0  0.39272  0.56471  0.15858  1.0000
  S   S103      1.0  0.38621  0.66470  0.04973  1.0000
  Fe  Fe58      1.0  0.07807  0.72945  0.21335  1.0000
  H   H677      1.0  0.04928  0.64938  0.18576  1.0000
  C   C867      1.0  0.39468  0.77688  0.16361  1.0000
  H   H678      1.0  0.37359  0.53163  0.28546  1.0000
  C   C868      1.0  0.32287  0.93893  0.09191  1.0000
  C   C869      1.0  0.96754  0.77555  0.06865  1.0000
  Fe  Fe59      1.0  0.14076  0.51949  0.25899  1.0000
  H   H679      1.0  0.37239  0.96968  0.16862  1.0000
  H   H680      1.0  0.01440  0.67459  0.08364  1.0000
  S   S104      1.0  0.16688  0.63194  0.16739  1.0000
  S   S105      1.0  0.08921  0.72633  0.14827  1.0000
  C   C870      1.0  0.14008  0.94714  0.23435  1.0000
  S   S106      1.0  0.29541  0.78718  0.23717  1.0000
  H   H681      1.0  0.02773  0.56572  0.18872  1.0000
  H   H682      1.0  0.34991  0.53517  0.23508  1.0000
  C   C871      1.0  0.22579  0.81287  0.09202  1.0000
  C   C872      1.0  0.12657  0.92795  0.27582  1.0000
  C   C873      1.0  0.99677  0.60960  0.23529  1.0000
  H   H683      1.0  0.98325  0.76231  0.11326  1.0000
  C   C874      1.0  0.00444  0.82378  0.28592  1.0000
  C   C875      1.0  0.97443  0.67986  0.21274  1.0000
  Fe  Fe60      1.0  0.14127  0.57575  0.20365  1.0000
  C   C876      1.0  0.32888  0.61533  0.17110  1.0000
  C   C877      1.0  0.35240  0.72632  0.26042  1.0000
  C   C878      1.0  0.01897  0.65740  0.06576  1.0000
  C   C879      1.0  0.13146  0.94922  0.13112  1.0000
  C   C880      1.0  0.14908  0.57873  0.05609  1.0000
  H   H684      1.0  0.32772  0.65454  0.26300  1.0000
  H   H685      1.0  0.22937  0.65021  0.17279  1.0000
  C   C881      1.0  0.10263  0.89315  0.11819  1.0000
  H   H686      1.0  0.42369  0.65955  0.28280  1.0000
  C   C882      1.0  0.04123  0.53909  0.08674  1.0000
  H   H687      1.0  0.05265  0.91894  0.12994  1.0000
  C   C883      1.0  0.19631  0.62928  0.06115  1.0000
  C   C884      1.0  0.14062  0.75346  0.28892  1.0000
  H   H688      1.0  0.98619  0.96032  0.14267  1.0000
  H   H689      1.0  0.26552  0.77541  0.08740  1.0000
  C   C885      1.0  0.01863  0.51258  0.12595  1.0000
  H   H690      1.0  0.04613  0.53214  0.05796  1.0000
  H   H691      1.0  0.12978  0.71795  0.18684  1.0000
  H   H692      1.0  0.23252  0.70648  0.15102  1.0000
  S   S107      1.0  0.01216  0.72908  0.13493  1.0000
  S   S108      1.0  0.12826  0.56144  0.27114  1.0000
  C   C886      1.0  0.23390  0.90811  0.09135  1.0000
  H   H693      1.0  0.17097  0.69826  0.14937  1.0000
  C   C887      1.0  0.37093  0.93204  0.09436  1.0000
  C   C888      1.0  0.21688  0.79860  0.13368  1.0000
  H   H694      1.0  0.43846  0.83111  0.14086  1.0000
  Fe  Fe61      1.0  0.07212  0.52294  0.28237  1.0000
  H   H695      1.0  0.12937  0.68249  0.09709  1.0000
  Fe  Fe62      1.0  0.31623  0.87572  0.26078  1.0000
  C   C889      1.0  0.21545  0.57676  0.27651  1.0000
  H   H696      1.0  0.18941  0.77839  0.15559  1.0000
  H   H697      1.0  0.00587  0.61140  0.25907  1.0000
  H   H698      1.0  0.21685  0.58222  0.24587  1.0000
  C   C890      1.0  0.18427  0.85891  0.23451  1.0000
  C   C891      1.0  0.34524  0.73603  0.29716  1.0000
  H   H699      1.0  0.30715  0.63346  0.07611  1.0000
  C   C892      1.0  0.03665  0.83453  0.25017  1.0000
  C   C893      1.0  0.41060  0.64270  0.23461  1.0000
  C   C894      1.0  0.40277  0.56345  0.18098  1.0000
  H   H700      1.0  0.25370  0.63109  0.26726  1.0000
  H   H701      1.0  0.33944  0.66430  0.13727  1.0000
  H   H702      1.0  0.16473  0.63161  0.28798  1.0000
  C   C895      1.0  0.23631  0.60435  0.28851  1.0000
  S   S109      1.0  0.26810  0.84395  0.25097  1.0000
  C   C896      1.0  0.12296  0.69144  0.19938  1.0000
  C   C897      1.0  0.29579  0.75497  0.05026  1.0000
  H   H703      1.0  0.32915  0.60440  0.14537  1.0000
  S   S110      1.0  0.15952  0.53748  0.18976  1.0000
  S   S111      1.0  0.06062  0.68136  0.26132  1.0000
  C   C898      1.0  0.24402  0.80905  0.14642  1.0000
  C   C899      1.0  0.02404  0.90346  0.15219  1.0000
  S   S112      1.0  0.31503  0.84473  0.13086  1.0000
  S   S113      1.0  0.10686  0.85276  0.20992  1.0000
  H   H704      1.0  0.39882  0.61498  0.25002  1.0000
  C   C900      1.0  0.16203  0.59829  0.08038  1.0000
  H   H705      1.0  0.23733  0.79765  0.17835  1.0000
  H   H706      1.0  0.26768  0.87725  0.16591  1.0000
  C   C901      1.0  0.28110  0.93429  0.27029  1.0000
  H   H707      1.0  0.22051  0.94194  0.17417  1.0000
  H   H708      1.0  0.99960  0.68131  0.20655  1.0000
  H   H709      1.0  0.21072  0.82921  0.22577  1.0000
  C   C902      1.0  0.98255  0.97781  0.16033  1.0000
  H   H710      1.0  0.43896  0.55901  0.26090  1.0000
  C   C903      1.0  0.13902  0.68680  0.06354  1.0000
  H   H711      1.0  0.31725  0.86488  0.05241  1.0000
  C   C904      1.0  0.97273  0.69959  0.18209  1.0000
  H   H712      1.0  0.96367  0.89271  0.11076  1.0000
  C   C905      1.0  0.98195  0.94245  0.06913  1.0000
  H   H713      1.0  0.25069  0.49505  0.23578  1.0000
  C   C906      1.0  0.28915  0.84690  0.07532  1.0000
  C   C907      1.0  0.13826  0.64630  0.19461  1.0000
  C   C908      1.0  0.41332  0.85457  0.26137  1.0000
  C   C909      1.0  0.41971  0.64937  0.08910  1.0000
  C   C910      1.0  0.07885  0.92738  0.24621  1.0000
  H   H714      1.0  0.28270  0.92139  0.24619  1.0000
  H   H715      1.0  0.45889  0.76370  0.07092  1.0000
  H   H716      1.0  0.42312  0.93260  0.27556  1.0000
  C   C911      1.0  0.98547  0.91449  0.08265  1.0000
  H   H717      1.0  0.38299  0.92648  0.11238  1.0000
  C   C912      1.0  0.41117  0.88496  0.25820  1.0000
  C   C913      1.0  0.41234  0.65315  0.19590  1.0000
  C   C914      1.0  0.43210  0.84996  0.28166  1.0000
  C   C915      1.0  0.11638  0.94752  0.21933  1.0000
  H   H718      1.0  0.03920  0.82074  0.08760  1.0000
  H   H719      1.0  0.27520  0.66200  0.06497  1.0000
  S   S114      1.0  0.19248  0.80025  0.07521  1.0000
  H   H720      1.0  0.12246  0.55488  0.07105  1.0000
  H   H721      1.0  0.43601  0.78010  0.22985  1.0000
  H   H722      1.0  0.21250  0.74218  0.07515  1.0000
  H   H723      1.0  0.02020  0.89349  0.07087  1.0000
  C   C916      1.0  0.98999  0.78271  0.08767  1.0000
  C   C917      1.0  0.26555  0.75808  0.06837  1.0000
  C   C918      1.0  0.96042  0.91986  0.27576  1.0000
  H   H724      1.0  0.27332  0.97438  0.18892  1.0000
  C   C919      1.0  0.15308  0.96593  0.08763  1.0000
  S   S115      1.0  0.17033  0.50650  0.28807  1.0000
  C   C920      1.0  0.00114  0.59891  0.05838  1.0000
  C   C921      1.0  0.96725  0.84718  0.18799  1.0000
  C   C922      1.0  0.44295  0.90426  0.29927  1.0000
  C   C923      1.0  0.96059  0.58603  0.24608  1.0000
  H   H725      1.0  0.45818  0.59014  0.13328  1.0000
  C   C924      1.0  0.41710  0.83113  0.05048  1.0000
  C   C925      1.0  0.27649  0.96986  0.05020  1.0000
  H   H726      1.0  0.15445  0.74124  0.05024  1.0000
  H   H727      1.0  0.01628  0.97259  0.31250  1.0000
  C   C926      1.0  0.28222  0.84864  0.50110  1.0000
  C   C927      1.0  0.01629  0.72250  0.32942  1.0000
  C   C928      1.0  0.98532  0.91560  0.33473  1.0000
  H   H728      1.0  0.41959  0.78000  0.37492  1.0000
  C   C929      1.0  0.25021  0.83970  0.44167  1.0000
  C   C930      1.0  0.02524  0.60213  0.42811  1.0000
  S   S116      1.0  0.43780  0.62156  0.44552  1.0000
  H   H729      1.0  0.07841  0.97083  0.30801  1.0000
  H   H730      1.0  0.36186  0.89634  0.50465  1.0000
  H   H731      1.0  0.19160  0.76740  0.47994  1.0000
  H   H732      1.0  0.09290  0.50095  0.46920  1.0000
  C   C931      1.0  0.12262  0.79822  0.35465  1.0000
  S   S117      1.0  0.44589  0.54398  0.40657  1.0000
  S   S118      1.0  0.43899  0.91157  0.44457  1.0000
  C   C932      1.0  0.11277  0.85895  0.46894  1.0000
  C   C933      1.0  0.08936  0.90867  0.30245  1.0000
  C   C934      1.0  0.99356  0.73269  0.39596  1.0000
  S   S119      1.0  0.02767  0.85387  0.41911  1.0000
  C   C935      1.0  0.04217  0.96010  0.41312  1.0000
  C   C936      1.0  0.26006  0.85437  0.53491  1.0000
  H   H733      1.0  0.11938  0.65829  0.32712  1.0000
  C   C937      1.0  0.35946  0.73727  0.49014  1.0000
  S   S120      1.0  0.22183  0.97417  0.33272  1.0000
  Fe  Fe63      1.0  0.97411  0.81593  0.42302  1.0000
  H   H734      1.0  0.34863  0.59289  0.43549  1.0000
  H   H735      1.0  0.26795  0.69728  0.53146  1.0000
  H   H736      1.0  0.13516  0.69946  0.40161  1.0000
  C   C938      1.0  0.04990  0.56997  0.44959  1.0000
  C   C939      1.0  0.12819  0.85501  0.35656  1.0000
  C   C940      1.0  0.05367  0.69723  0.44434  1.0000
  H   H737      1.0  0.98417  0.64312  0.31447  1.0000
  C   C941      1.0  0.27316  0.50838  0.51474  1.0000
  C   C942      1.0  0.11535  0.88248  0.52660  1.0000
  S   S121      1.0  0.39052  0.52289  0.50734  1.0000
  H   H738      1.0  0.11553  0.87028  0.36551  1.0000
  H   H739      1.0  0.18215  0.89957  0.33294  1.0000
  C   C943      1.0  0.09930  0.50996  0.52368  1.0000
  H   H740      1.0  0.12564  0.86073  0.43629  1.0000
  C   C944      1.0  0.33358  0.88525  0.51260  1.0000
  H   H741      1.0  0.12528  0.74112  0.48321  1.0000
  H   H742      1.0  0.35723  0.72797  0.41140  1.0000
  C   C945      1.0  0.36602  0.70185  0.36463  1.0000
  S   S122      1.0  0.45529  0.93199  0.32898  1.0000
  S   S123      1.0  0.15873  0.65008  0.50462  1.0000
  C   C946      1.0  0.21182  0.56298  0.35590  1.0000
  H   H743      1.0  0.39510  0.78833  0.49037  1.0000
  C   C947      1.0  0.10502  0.72901  0.47269  1.0000
  P   P31       1.0  0.09459  0.75072  0.36749  1.0000
  C   C948      1.0  0.16054  0.81500  0.33644  1.0000
  C   C949      1.0  0.37640  0.72938  0.38189  1.0000
  H   H744      1.0  0.32553  0.86070  0.39192  1.0000
  H   H745      1.0  0.36599  0.60940  0.34653  1.0000
  C   C950      1.0  0.09353  0.51743  0.48950  1.0000
  S   S124      1.0  0.23131  0.96659  0.43900  1.0000
  H   H746      1.0  0.41512  0.98408  0.30566  1.0000
  C   C951      1.0  0.42654  0.73338  0.30536  1.0000
  C   C952      1.0  0.19344  0.75826  0.50721  1.0000
  C   C953      1.0  0.07417  0.69552  0.49655  1.0000
  C   C954      1.0  0.09772  0.56042  0.54161  1.0000
  C   C955      1.0  0.02510  0.74003  0.39851  1.0000
  C   C956      1.0  0.06052  0.82932  0.53782  1.0000
  C   C957      1.0  0.40025  0.67705  0.43404  1.0000
  P   P32       1.0  0.26240  0.81966  0.47421  1.0000
  C   C958      1.0  0.15249  0.61743  0.40176  1.0000
  S   S125      1.0  0.16772  0.98051  0.44088  1.0000
  C   C959      1.0  0.29727  0.97292  0.53635  1.0000
  H   H747      1.0  0.39429  0.65337  0.38582  1.0000
  H   H748      1.0  0.24614  0.75327  0.37758  1.0000
  C   C960      1.0  0.21374  0.49670  0.52637  1.0000
  H   H749      1.0  0.07764  0.80660  0.37985  1.0000
  H   H750      1.0  0.24476  0.91218  0.41813  1.0000
  C   C961      1.0  0.30367  0.74902  0.53270  1.0000
  Fe  Fe64      1.0  0.99693  0.87139  0.46623  1.0000
  C   C962      1.0  0.34351  0.58364  0.35215  1.0000
  C   C963      1.0  0.19398  0.54202  0.30364  1.0000
  H   H751      1.0  0.07052  0.68164  0.52555  1.0000
  H   H752      1.0  0.08585  0.95795  0.46533  1.0000
  H   H753      1.0  0.31978  0.96135  0.33353  1.0000
  H   H754      1.0  0.04518  0.92450  0.37730  1.0000
  H   H755      1.0  0.21027  0.55752  0.38660  1.0000
  C   C964      1.0  0.16134  0.62744  0.31977  1.0000
  S   S126      1.0  0.45537  0.85194  0.47506  1.0000
  C   C965      1.0  0.23231  0.83974  0.38636  1.0000
  H   H756      1.0  0.15903  0.90601  0.46332  1.0000
  H   H757      1.0  0.33674  0.85935  0.46529  1.0000
  H   H758      1.0  0.36619  0.74785  0.30666  1.0000
  C   C966      1.0  0.12562  0.68498  0.31662  1.0000
  C   C967      1.0  0.99298  0.51929  0.32364  1.0000
  H   H759      1.0  0.21125  0.86436  0.31343  1.0000
  C   C968      1.0  0.22347  0.77880  0.51352  1.0000
  C   C969      1.0  0.31912  0.86416  0.49020  1.0000
  H   H760      1.0  0.37532  0.98280  0.37506  1.0000
  H   H761      1.0  0.97282  0.73456  0.42018  1.0000
  C   C970      1.0  0.18827  0.65160  0.32807  1.0000
  Fe  Fe65      1.0  0.18204  0.96288  0.48778  1.0000
  H   H762      1.0  0.42017  0.70361  0.41242  1.0000
  H   H763      1.0  0.45172  0.69946  0.33517  1.0000
  C   C971      1.0  0.13171  0.88460  0.48433  1.0000
  H   H764      1.0  0.06953  0.73098  0.30506  1.0000
  C   C972      1.0  0.11061  0.74645  0.43425  1.0000
  C   C973      1.0  0.38563  0.64888  0.41904  1.0000
  Fe  Fe66      1.0  0.42019  0.50088  0.46624  1.0000
  S   S127      1.0  0.25426  0.66709  0.43538  1.0000
  S   S128      1.0  0.01662  0.92823  0.46291  1.0000
  C   C974      1.0  0.31185  0.73276  0.32023  1.0000
  C   C975      1.0  0.32234  0.83508  0.40107  1.0000
  C   C976      1.0  0.33975  0.77517  0.52022  1.0000
  H   H765      1.0  0.26924  0.75639  0.47985  1.0000
  C   C977      1.0  0.16583  0.72462  0.53554  1.0000
  H   H766      1.0  0.26172  0.54878  0.50192  1.0000
  H   H767      1.0  0.10309  0.48806  0.52955  1.0000
  C   C978      1.0  0.41161  0.75881  0.36121  1.0000
  S   S129      1.0  0.39624  0.50234  0.33957  1.0000
  H   H768      1.0  0.17354  0.79988  0.32912  1.0000
  C   C979      1.0  0.09743  0.77714  0.54293  1.0000
  H   H769      1.0  0.14353  0.70836  0.52950  1.0000
  C   C980      1.0  0.15828  0.81372  0.53389  1.0000
  S   S130      1.0  0.02727  0.52300  0.33581  1.0000
  C   C981      1.0  0.01265  0.98707  0.53154  1.0000
  C   C982      1.0  0.09195  0.56799  0.50750  1.0000
  Fe  Fe67      1.0  0.26867  0.64295  0.47682  1.0000
  C   C983      1.0  0.15547  0.70238  0.41088  1.0000
  S   S131      1.0  0.96255  0.80464  0.36966  1.0000
  C   C984      1.0  0.12499  0.59319  0.39391  1.0000
  C   C985      1.0  0.06386  0.92487  0.52769  1.0000
  C   C986      1.0  0.00207  0.81608  0.32569  1.0000
  C   C987      1.0  0.96094  0.88477  0.33078  1.0000
  C   C988      1.0  0.28560  0.71987  0.30650  1.0000
  Fe  Fe68      1.0  0.40785  0.85261  0.47424  1.0000
  S   S132      1.0  0.41673  0.84134  0.41292  1.0000
  S   S133      1.0  0.18357  0.51089  0.52885  1.0000
  H   H770      1.0  0.09049  0.59134  0.50087  1.0000
  C   C989      1.0  0.21804  0.73261  0.39720  1.0000
  H   H771      1.0  0.10869  0.58030  0.34589  1.0000
  H   H772      1.0  0.97966  0.52191  0.43692  1.0000
  C   C990      1.0  0.34348  0.79495  0.38453  1.0000
  C   C991      1.0  0.02398  0.55980  0.49151  1.0000
  H   H773      1.0  0.30654  0.74084  0.34827  1.0000
  C   C992      1.0  0.96640  0.60702  0.37321  1.0000
  H   H774      1.0  0.14967  0.61468  0.43314  1.0000
  C   C993      1.0  0.13349  0.80458  0.51795  1.0000
  C   C994      1.0  0.04834  0.73095  0.33109  1.0000
  C   C995      1.0  0.34648  0.55384  0.35671  1.0000
  H   H775      1.0  0.31265  0.74403  0.43159  1.0000
  H   H776      1.0  0.32019  0.49767  0.36795  1.0000
  H   H777      1.0  0.02432  0.65396  0.50150  1.0000
  S   S134      1.0  0.05317  0.80043  0.47543  1.0000
  C   C996      1.0  0.08967  0.54648  0.48120  1.0000
  H   H778      1.0  0.24120  0.80032  0.40916  1.0000
  C   C997      1.0  0.38825  0.67120  0.47724  1.0000
  H   H779      1.0  0.18577  0.83578  0.51503  1.0000
  H   H780      1.0  0.36276  0.78956  0.36308  1.0000
  C   C998      1.0  0.23325  0.87127  0.38888  1.0000
  H   H781      1.0  0.25999  0.88512  0.46440  1.0000
  H   H782      1.0  0.38464  0.59598  0.53165  1.0000
  H   H783      1.0  0.02272  0.54305  0.51643  1.0000
  C   C999      1.0  0.27754  0.96830  0.33203  1.0000
  H   H784      1.0  0.28371  0.60433  0.53823  1.0000
  S   S135      1.0  0.18795  0.58624  0.45746  1.0000
  C   C1000     1.0  0.08263  0.95734  0.49677  1.0000
  H   H785      1.0  0.22543  0.82759  0.36377  1.0000
  H   H786      1.0  0.30141  0.52684  0.50488  1.0000
  C   C1001     1.0  0.07710  0.83147  0.49553  1.0000
  C   C1002     1.0  0.43669  0.76075  0.32322  1.0000
  S   S136      1.0  0.21227  0.60917  0.52935  1.0000
  Fe  Fe69      1.0  0.20901  0.56848  0.49587  1.0000
  H   H787      1.0  0.12163  0.53144  0.37554  1.0000
  Fe  Fe70      1.0  0.01141  0.81187  0.47461  1.0000
  C   C1003     1.0  0.99954  0.57145  0.50164  1.0000
  H   H788      1.0  0.30929  0.60332  0.35036  1.0000
  Fe  Fe71      1.0  0.24601  0.62168  0.40956  1.0000
  Fe  Fe72      1.0  0.19717  0.63051  0.48585  1.0000
  H   H789      1.0  0.38136  0.73327  0.47323  1.0000
  H   H790      1.0  0.99472  0.91379  0.35767  1.0000
  H   H791      1.0  0.96506  0.71884  0.35913  1.0000
  S   S137      1.0  0.26426  0.63120  0.34055  1.0000
  C   C1004     1.0  0.31139  0.89095  0.54603  1.0000
  C   C1005     1.0  0.00030  0.59271  0.46994  1.0000
  H   H792      1.0  0.20520  0.66478  0.37532  1.0000
  C   C1006     1.0  0.16580  0.87147  0.33834  1.0000
  H   H793      1.0  0.98149  0.60179  0.47768  1.0000
  C   C1007     1.0  0.04826  0.67981  0.48272  1.0000
  C   C1008     1.0  0.20781  0.70930  0.43494  1.0000
  H   H794      1.0  0.25852  0.54491  0.36217  1.0000
  C   C1009     1.0  0.28247  0.54686  0.36197  1.0000
  H   H795      1.0  0.29024  0.94836  0.52879  1.0000
  C   C1010     1.0  0.31536  0.76942  0.42291  1.0000
  Fe  Fe73      1.0  0.39586  0.51013  0.40050  1.0000
  C   C1011     1.0  0.25420  0.96212  0.31439  1.0000
  H   H796      1.0  0.02773  0.71518  0.54378  1.0000
  H   H797      1.0  0.98576  0.72038  0.52167  1.0000
  S   S138      1.0  0.13895  0.91576  0.54489  1.0000
  C   C1012     1.0  0.19198  0.53530  0.34336  1.0000
  C   C1013     1.0  0.30233  0.95730  0.31918  1.0000
  H   H798      1.0  0.07871  0.77146  0.53008  1.0000
  H   H799      1.0  0.22710  0.88383  0.36837  1.0000
  H   H800      1.0  0.02944  0.81210  0.36083  1.0000
  C   C1014     1.0  0.39090  0.70388  0.32626  1.0000
  C   C1015     1.0  0.11723  0.73350  0.33144  1.0000
  C   C1016     1.0  0.32380  0.71161  0.50119  1.0000
  C   C1017     1.0  0.25181  0.87178  0.44334  1.0000
  C   C1018     1.0  0.03157  0.81869  0.33001  1.0000
  C   C1019     1.0  0.17152  0.68205  0.46004  1.0000
  C   C1020     1.0  0.25065  0.52071  0.51270  1.0000
  C   C1021     1.0  0.14527  0.67921  0.44843  1.0000
  H   H801      1.0  0.03657  0.89238  0.30828  1.0000
  C   C1022     1.0  0.05234  0.95141  0.37589  1.0000
  S   S139      1.0  0.26665  0.60112  0.44573  1.0000
  H   H802      1.0  0.11723  0.65834  0.46761  1.0000
  H   H803      1.0  0.32847  0.58230  0.51137  1.0000
  H   H804      1.0  0.37164  0.55659  0.35362  1.0000
  H   H805      1.0  0.17487  0.50869  0.36445  1.0000
  C   C1023     1.0  0.36136  0.63718  0.50575  1.0000
  C   C1024     1.0  0.24110  0.82422  0.41234  1.0000
  C   C1025     1.0  0.23495  0.59737  0.32793  1.0000
  C   C1026     1.0  0.28459  0.51653  0.36857  1.0000
  H   H806      1.0  0.26000  0.71797  0.32395  1.0000
  C   C1027     1.0  0.31156  0.58017  0.35454  1.0000
  H   H807      1.0  0.22796  0.71267  0.44477  1.0000
  H   H808      1.0  0.97014  0.53717  0.37393  1.0000
  H   H809      1.0  0.27702  0.98213  0.35508  1.0000
  S   S140      1.0  0.98398  0.83166  0.52212  1.0000
  C   C1028     1.0  0.36736  0.76885  0.49953  1.0000
  H   H810      1.0  0.05274  0.90045  0.52007  1.0000
  H   H811      1.0  0.02826  0.74718  0.42532  1.0000
  H   H812      1.0  0.01095  0.49526  0.46244  1.0000
  C   C1029     1.0  0.06765  0.51806  0.41943  1.0000
  H   H813      1.0  0.14216  0.97176  0.34306  1.0000
  H   H814      1.0  0.03394  0.68433  0.43333  1.0000
  C   C1030     1.0  0.24317  0.88731  0.41715  1.0000
  C   C1031     1.0  0.10668  0.81859  0.36474  1.0000
  P   P33       1.0  0.08306  0.55678  0.43646  1.0000
  C   C1032     1.0  0.29565  0.71726  0.52265  1.0000
  Fe  Fe74      1.0  0.34514  0.49100  0.49271  1.0000
  C   C1033     1.0  0.18411  0.64629  0.36890  1.0000
  S   S141      1.0  0.20289  0.75647  0.33777  1.0000
  C   C1034     1.0  0.29070  0.77667  0.45042  1.0000
  H   H815      1.0  0.07900  0.89352  0.33434  1.0000
  H   H816      1.0  0.08994  0.68203  0.37676  1.0000
  C   C1035     1.0  0.04977  0.59067  0.41792  1.0000
  S   S142      1.0  0.31604  0.67283  0.48790  1.0000
  C   C1036     1.0  0.08515  0.73051  0.41955  1.0000
  H   H817      1.0  0.13540  0.77176  0.41555  1.0000
  S   S143      1.0  0.36614  0.53446  0.43592  1.0000
  C   C1037     1.0  0.05295  0.73956  0.36573  1.0000
  H   H818      1.0  0.02586  0.61851  0.40336  1.0000
  H   H819      1.0  0.36843  0.84746  0.34416  1.0000
  H   H820      1.0  0.39904  0.69353  0.48813  1.0000
  H   H821      1.0  0.01271  0.71516  0.30299  1.0000
  H   H822      1.0  0.33850  0.67916  0.38092  1.0000
  C   C1038     1.0  0.31715  0.52038  0.36497  1.0000
  C   C1039     1.0  0.12978  0.59836  0.35258  1.0000
  Fe  Fe75      1.0  0.45236  0.90012  0.38321  1.0000
  H   H823      1.0  0.14200  0.81939  0.48650  1.0000
  C   C1040     1.0  0.29398  0.80959  0.43961  1.0000
  C   C1041     1.0  0.09278  0.51227  0.38974  1.0000
  C   C1042     1.0  0.10898  0.69867  0.34473  1.0000
  C   C1043     1.0  0.07119  0.97761  0.33673  1.0000
  Fe  Fe76      1.0  0.41409  0.56451  0.44727  1.0000
  H   H824      1.0  0.06848  0.59813  0.38522  1.0000
  S   S144      1.0  0.35159  0.81686  0.52733  1.0000
  C   C1044     1.0  0.98917  0.72396  0.36145  1.0000
  C   C1045     1.0  0.34684  0.82768  0.37376  1.0000
  C   C1046     1.0  0.99724  0.94863  0.30946  1.0000
  C   C1047     1.0  0.34818  0.60886  0.49013  1.0000
  C   C1048     1.0  0.35975  0.61477  0.44705  1.0000
  C   C1049     1.0  0.18202  0.85155  0.32795  1.0000
  H   H825      1.0  0.98970  0.60408  0.36089  1.0000
  C   C1050     1.0  0.19179  0.72887  0.38497  1.0000
  H   H826      1.0  0.23387  0.49781  0.30807  1.0000
  S   S145      1.0  0.30634  0.82972  0.30530  1.0000
  H   H827      1.0  0.38188  0.68261  0.31317  1.0000
  C   C1051     1.0  0.03064  0.49189  0.43849  1.0000
  C   C1052     1.0  0.96333  0.62902  0.34682  1.0000
  H   H828      1.0  0.44759  0.68079  0.49574  1.0000
  H   H829      1.0  0.96456  0.96346  0.45755  1.0000
  H   H830      1.0  0.98000  0.56399  0.53408  1.0000
  C   C1053     1.0  0.97881  0.95772  0.54214  1.0000
  H   H831      1.0  0.03233  0.98298  0.53605  1.0000
  H   H832      1.0  0.21213  0.67462  0.30295  1.0000
  C   C1054     1.0  0.44662  0.87468  0.30100  1.0000
  C   C1055     1.0  0.96718  0.52650  0.34898  1.0000
  H   H833      1.0  0.96514  0.95192  0.39279  1.0000
  H   H834      1.0  0.23142  0.84215  0.54444  1.0000
  C   C1056     1.0  0.22499  0.76543  0.54903  1.0000
  H   H835      1.0  0.28222  0.75368  0.54897  1.0000
  H   H836      1.0  0.34864  0.98284  0.53050  1.0000
  S   S146      1.0  0.96022  0.77255  0.47471  1.0000
  H   H837      1.0  0.21633  0.50194  0.43757  1.0000
  H   H838      1.0  0.15525  0.49239  0.47233  1.0000
  H   H839      1.0  0.24751  0.96951  0.54556  1.0000
  C   C1057     1.0  0.27314  0.98481  0.54598  1.0000
  C   C1058     1.0  0.09290  0.98787  0.54703  1.0000
  H   H840      1.0  0.45986  0.87039  0.31810  1.0000
  C   C1059     1.0  0.52823  0.37363  0.71764  1.0000
  C   C1060     1.0  0.53697  0.13314  0.61158  1.0000
  C   C1061     1.0  0.69052  0.41610  0.68250  1.0000
  C   C1062     1.0  0.92002  0.16616  0.70790  1.0000
  C   C1063     1.0  0.75638  0.11814  0.60662  1.0000
  H   H841      1.0  0.64727  0.48033  0.61222  1.0000
  H   H842      1.0  0.81702  0.11155  0.69548  1.0000
  H   H843      1.0  0.62703  0.31683  0.64890  1.0000
  H   H844      1.0  0.79664  0.05369  0.55299  1.0000
  H   H845      1.0  0.68960  0.22320  0.78297  1.0000
  H   H846      1.0  0.53859  0.14606  0.63543  1.0000
  C   C1064     1.0  0.95798  0.22960  0.77434  1.0000
  C   C1065     1.0  0.79810  0.20303  0.56826  1.0000
  H   H847      1.0  0.46267  0.30460  0.75760  1.0000
  H   H848      1.0  0.48388  0.29718  0.60376  1.0000
  H   H849      1.0  0.55983  0.02087  0.59219  1.0000
  C   C1066     1.0  0.69296  0.27297  0.77822  1.0000
  C   C1067     1.0  0.79725  0.01769  0.76211  1.0000
  H   H850      1.0  0.48136  0.40682  0.61087  1.0000
  C   C1068     1.0  0.76552  0.06543  0.71258  1.0000
  H   H851      1.0  0.68270  0.23802  0.63033  1.0000
  S   S147      1.0  0.95845  0.99888  0.79661  1.0000
  S   S148      1.0  0.76514  0.48207  0.69470  1.0000
  H   H852      1.0  0.92948  0.25089  0.75810  1.0000
  H   H853      1.0  0.86696  0.34365  0.59243  1.0000
  C   C1069     1.0  0.85762  0.14096  0.57771  1.0000
  C   C1070     1.0  0.91843  0.04516  0.62678  1.0000
  H   H854      1.0  0.73936  0.41673  0.67164  1.0000
  P   P34       1.0  0.74943  0.17600  0.58782  1.0000
  P   P35       1.0  0.87157  0.10420  0.62900  1.0000
  H   H855      1.0  0.87976  0.11813  0.75979  1.0000
  C   C1071     1.0  0.86112  0.33943  0.56633  1.0000
  H   H856      1.0  0.49192  0.25774  0.66187  1.0000
  H   H857      1.0  0.54125  0.35569  0.57140  1.0000
  H   H858      1.0  0.88458  0.07626  0.55725  1.0000
  H   H859      1.0  0.81832  0.03603  0.62845  1.0000
  H   H860      1.0  0.58803  0.13029  0.70699  1.0000
  C   C1072     1.0  0.59089  0.44691  0.77625  1.0000
  C   C1073     1.0  0.59833  0.12168  0.68075  1.0000
  H   H861      1.0  0.73551  0.17595  0.67410  1.0000
  C   C1074     1.0  0.52699  0.12737  0.55065  1.0000
  H   H862      1.0  0.71192  0.21386  0.58140  1.0000
  C   C1075     1.0  0.93423  0.18283  0.66523  1.0000
  H   H863      1.0  0.55042  0.20902  0.66844  1.0000
  H   H864      1.0  0.89595  0.30080  0.79210  1.0000
  C   C1076     1.0  0.89077  0.07715  0.61400  1.0000
  H   H865      1.0  0.63805  0.40785  0.69770  1.0000
  C   C1077     1.0  0.62598  0.13083  0.60594  1.0000
  C   C1078     1.0  0.57653  0.01984  0.78659  1.0000
  H   H866      1.0  0.79480  0.19918  0.63014  1.0000
  H   H867      1.0  0.94659  0.13946  0.76961  1.0000
  H   H868      1.0  0.64171  0.39172  0.56892  1.0000
  H   H869      1.0  0.59062  0.40724  0.61445  1.0000
  C   C1079     1.0  0.69401  0.36351  0.69117  1.0000
  H   H870      1.0  0.56158  0.01238  0.76880  1.0000
  C   C1080     1.0  0.54629  0.39278  0.67506  1.0000
  H   H871      1.0  0.56702  0.18154  0.72117  1.0000
  C   C1081     1.0  0.92699  0.22827  0.77613  1.0000
  C   C1082     1.0  0.48317  0.32104  0.60550  1.0000
  H   H872      1.0  0.77005  0.04500  0.78700  1.0000
  C   C1083     1.0  0.63891  0.15110  0.79670  1.0000
  H   H873      1.0  0.50490  0.37404  0.73913  1.0000
  C   C1084     1.0  0.68630  0.13861  0.78828  1.0000
  H   H874      1.0  0.52591  0.33964  0.76595  1.0000
  S   S149      1.0  0.61421  0.18284  0.63218  1.0000
  C   C1085     1.0  0.55946  0.16755  0.75256  1.0000
  C   C1086     1.0  0.61250  0.45507  0.79662  1.0000
  S   S150      1.0  0.53190  0.43624  0.76739  1.0000
  S   S151      1.0  0.66019  0.01621  0.79195  1.0000
  C   C1087     1.0  0.80328  0.08692  0.68949  1.0000
  C   C1088     1.0  0.92374  0.03810  0.58865  1.0000
  C   C1089     1.0  0.61338  0.14275  0.63964  1.0000
  H   H875      1.0  0.83051  0.12873  0.60342  1.0000
  C   C1090     1.0  0.53751  0.99371  0.60825  1.0000
  C   C1091     1.0  0.89444  0.06826  0.57668  1.0000
  H   H876      1.0  0.70962  0.35132  0.69040  1.0000
  H   H877      1.0  0.75028  0.07316  0.73633  1.0000
  C   C1092     1.0  0.48131  0.38261  0.60979  1.0000
  Fe  Fe77      1.0  0.69036  0.99768  0.58559  1.0000
  H   H878      1.0  0.53960  0.41030  0.57504  1.0000
  C   C1093     1.0  0.55872  0.44707  0.79316  1.0000
  C   C1094     1.0  0.68593  0.07674  0.67288  1.0000
  C   C1095     1.0  0.53209  0.23182  0.71570  1.0000
  C   C1096     1.0  0.89060  0.12898  0.65960  1.0000
  H   H879      1.0  0.95661  0.21010  0.65089  1.0000
  C   C1097     1.0  0.70970  0.20550  0.69039  1.0000
  H   H880      1.0  0.52123  0.26154  0.75705  1.0000
  H   H881      1.0  0.85472  0.08526  0.71720  1.0000
  S   S152      1.0  0.46115  0.04482  0.69117  1.0000
  C   C1098     1.0  0.59132  0.26308  0.65497  1.0000
  H   H882      1.0  0.69759  0.11634  0.57265  1.0000
  H   H883      1.0  0.87468  0.44939  0.77981  1.0000
  C   C1099     1.0  0.51453  0.38474  0.58933  1.0000
  C   C1100     1.0  0.90182  0.06439  0.63961  1.0000
  H   H884      1.0  0.52507  0.16645  0.58115  1.0000
  H   H885      1.0  0.71788  0.01693  0.72333  1.0000
  C   C1101     1.0  0.88326  0.13431  0.58151  1.0000
  H   H886      1.0  0.58106  0.37195  0.78221  1.0000
  C   C1102     1.0  0.78947  0.03809  0.78695  1.0000
  C   C1103     1.0  0.91958  0.16439  0.64112  1.0000
  H   H887      1.0  0.53682  0.40791  0.66368  1.0000
  C   C1104     1.0  0.74714  0.03359  0.70539  1.0000
  C   C1105     1.0  0.51548  0.35399  0.58722  1.0000
  H   H888      1.0  0.54848  0.09610  0.63521  1.0000
  H   H889      1.0  0.63156  0.08781  0.58806  1.0000
  H   H890      1.0  0.61055  0.26370  0.62590  1.0000
  H   H891      1.0  0.86031  0.23839  0.60437  1.0000
  H   H892      1.0  0.49959  0.31121  0.68343  1.0000
  H   H893      1.0  0.60870  0.12681  0.76326  1.0000
  C   C1106     1.0  0.93419  0.11242  0.78809  1.0000
  H   H894      1.0  0.70814  0.20243  0.72123  1.0000
  H   H895      1.0  0.85985  0.01408  0.78536  1.0000
  Fe  Fe78      1.0  0.72924  0.45725  0.76465  1.0000
  S   S153      1.0  0.62669  0.01690  0.55729  1.0000
  H   H896      1.0  0.63704  0.14663  0.57410  1.0000
  Fe  Fe79      1.0  0.64306  0.22002  0.56679  1.0000
  Fe  Fe80      1.0  0.63570  0.02175  0.61357  1.0000
  H   H897      1.0  0.64406  0.31389  0.71303  1.0000
  H   H898      1.0  0.80568  0.00579  0.57549  1.0000
  C   C1107     1.0  0.65694  0.34243  0.70368  1.0000
  C   C1108     1.0  0.47542  0.25496  0.69398  1.0000
  C   C1109     1.0  0.54060  0.35456  0.73291  1.0000
  H   H899      1.0  0.61318  0.19793  0.74552  1.0000
  H   H900      1.0  0.77033  0.44873  0.56897  1.0000
  H   H901      1.0  0.95032  0.09579  0.73352  1.0000
  C   C1110     1.0  0.69454  0.22283  0.67840  1.0000
  H   H902      1.0  0.92662  0.03516  0.64684  1.0000
  S   S154      1.0  0.49170  0.99707  0.75251  1.0000
  H   H903      1.0  0.65821  0.06016  0.69762  1.0000
  C   C1111     1.0  0.93668  0.08786  0.76750  1.0000
  C   C1112     1.0  0.81235  0.21054  0.59669  1.0000
  H   H904      1.0  0.82097  0.28379  0.59780  1.0000
  H   H905      1.0  0.50390  0.13152  0.76729  1.0000
  C   C1113     1.0  0.62305  0.09769  0.61373  1.0000
  H   H906      1.0  0.93099  0.17791  0.60825  1.0000
  S   S155      1.0  0.60547  0.03612  0.66609  1.0000
  C   C1114     1.0  0.48154  0.01294  0.57205  1.0000
  H   H907      1.0  0.75171  0.99936  0.66827  1.0000
  C   C1115     1.0  0.82288  0.07637  0.65934  1.0000
  C   C1116     1.0  0.72783  0.19446  0.62300  1.0000
  C   C1117     1.0  0.60842  0.07700  0.65497  1.0000
  H   H908      1.0  0.54725  0.06758  0.58005  1.0000
  H   H909      1.0  0.69776  0.03579  0.67844  1.0000
  C   C1118     1.0  0.69841  0.11102  0.65045  1.0000
  C   C1119     1.0  0.53277  0.09899  0.55035  1.0000
  C   C1120     1.0  0.55722  0.23234  0.67879  1.0000
  C   C1121     1.0  0.54308  0.10523  0.61115  1.0000
  C   C1122     1.0  0.67815  0.11925  0.76142  1.0000
  C   C1123     1.0  0.65348  0.39514  0.69492  1.0000
  C   C1124     1.0  0.71227  0.21176  0.61130  1.0000
  C   C1125     1.0  0.92149  0.05298  0.79079  1.0000
  C   C1126     1.0  0.82285  0.00934  0.76145  1.0000
  H   H910      1.0  0.90624  0.35918  0.79864  1.0000
  C   C1127     1.0  0.63107  0.13165  0.76956  1.0000
  C   C1128     1.0  0.76630  0.02349  0.67461  1.0000
  C   C1129     1.0  0.47988  0.28507  0.70613  1.0000
  H   H911      1.0  0.63773  0.45593  0.78271  1.0000
  C   C1130     1.0  0.59591  0.08903  0.68837  1.0000
  H   H912      1.0  0.59913  0.44041  0.74742  1.0000
  C   C1131     1.0  0.54165  0.08864  0.58029  1.0000
  C   C1132     1.0  0.52405  0.13927  0.77834  1.0000
  C   C1133     1.0  0.52912  0.14436  0.58122  1.0000
  C   C1134     1.0  0.84050  0.02106  0.78565  1.0000
  H   H913      1.0  0.50556  0.20805  0.73406  1.0000
  S   S156      1.0  0.69605  0.05088  0.57646  1.0000
  P   P36       1.0  0.58829  0.33075  0.72429  1.0000
  H   H914      1.0  0.89743  0.06882  0.66971  1.0000
  C   C1135     1.0  0.60067  0.29310  0.66837  1.0000
  C   C1136     1.0  0.60404  0.01247  0.77991  1.0000
  C   C1137     1.0  0.71080  0.40033  0.68052  1.0000
  H   H915      1.0  0.68820  0.31906  0.77878  1.0000
  H   H916      1.0  0.78304  0.13322  0.57990  1.0000
  C   C1138     1.0  0.57661  0.39257  0.64752  1.0000
  H   H917      1.0  0.70345  0.44462  0.67546  1.0000
  H   H918      1.0  0.92339  0.03390  0.77495  1.0000
  C   C1139     1.0  0.54120  0.26197  0.72893  1.0000
  C   C1140     1.0  0.74369  0.08369  0.62904  1.0000
  H   H919      1.0  0.64251  0.09914  0.73349  1.0000
  C   C1141     1.0  0.65060  0.11590  0.75208  1.0000
  H   H920      1.0  0.68123  0.23333  0.69986  1.0000
  H   H921      1.0  0.48469  0.02633  0.59500  1.0000
  H   H922      1.0  0.67986  0.12047  0.65785  1.0000
  C   C1142     1.0  0.87669  0.11255  0.70246  1.0000
  H   H923      1.0  0.93660  0.02314  0.57909  1.0000
  C   C1143     1.0  0.73394  0.13219  0.61759  1.0000
  C   C1144     1.0  0.72576  0.19091  0.66316  1.0000
  H   H924      1.0  0.58401  0.07295  0.72038  1.0000
  S   S157      1.0  0.66881  0.42008  0.79606  1.0000
  C   C1145     1.0  0.83536  0.30570  0.56935  1.0000
  H   H925      1.0  0.93134  0.18040  0.72656  1.0000
  C   C1146     1.0  0.84965  0.23270  0.58217  1.0000
  H   H926      1.0  0.59783  0.46812  0.68143  1.0000
  C   C1147     1.0  0.63656  0.35816  0.70491  1.0000
  H   H927      1.0  0.61267  0.37361  0.64139  1.0000
  C   C1148     1.0  0.80405  0.04460  0.65182  1.0000
  H   H928      1.0  0.69179  0.10529  0.74951  1.0000
  H   H929      1.0  0.72229  0.28819  0.76351  1.0000
  C   C1149     1.0  0.57605  0.29238  0.70620  1.0000
  C   C1150     1.0  0.91120  0.04909  0.56388  1.0000
  C   C1151     1.0  0.67389  0.29043  0.78642  1.0000
  H   H930      1.0  0.53340  0.99676  0.66896  1.0000
  H   H931      1.0  0.56190  0.26664  0.78989  1.0000
  C   C1152     1.0  0.70841  0.06301  0.66214  1.0000
  H   H932      1.0  0.60990  0.99891  0.75738  1.0000
  H   H933      1.0  0.78368  0.00863  0.74323  1.0000
  C   C1153     1.0  0.57169  0.35515  0.70568  1.0000
  S   S158      1.0  0.46302  0.04520  0.79799  1.0000
  C   C1154     1.0  0.67420  0.23596  0.78952  1.0000
  H   H934      1.0  0.76046  0.07233  0.61979  1.0000
  C   C1155     1.0  0.89113  0.13107  0.72656  1.0000
  C   C1156     1.0  0.57075  0.31955  0.78052  1.0000
  C   C1157     1.0  0.58915  0.37366  0.66279  1.0000
  C   C1158     1.0  0.58566  0.17662  0.76639  1.0000
  C   C1159     1.0  0.69566  0.22575  0.63901  1.0000
  H   H935      1.0  0.82554  0.39153  0.78690  1.0000
  C   C1160     1.0  0.95489  0.20092  0.79855  1.0000
  S   S159      1.0  0.68582  0.27516  0.55647  1.0000
  H   H936      1.0  0.70658  0.13991  0.79698  1.0000
  S   S160      1.0  0.64124  0.33073  0.55068  1.0000
  C   C1161     1.0  0.91718  0.32800  0.93608  1.0000
  C   C1162     1.0  0.87302  0.06584  0.98427  1.0000
  H   H937      1.0  0.90329  0.32203  0.00124  1.0000
  C   C1163     1.0  0.61735  0.41415  0.00589  1.0000
  C   C1164     1.0  0.75536  0.24173  0.04289  1.0000
  H   H938      1.0  0.86388  0.48068  0.98697  1.0000
  C   C1165     1.0  0.54654  0.27802  0.84799  1.0000
  C   C1166     1.0  0.53652  0.28060  0.97908  1.0000
  P   P37       1.0  0.88980  0.48373  0.84121  1.0000
  H   H939      1.0  0.50912  0.41431  0.92618  1.0000
  C   C1167     1.0  0.67014  0.18610  0.91850  1.0000
  C   C1168     1.0  0.48388  0.01530  0.02416  1.0000
  Fe  Fe81      1.0  0.67672  0.06530  0.90681  1.0000
  C   C1169     1.0  0.60636  0.42242  0.97744  1.0000
  C   C1170     1.0  0.60708  0.47152  0.00239  1.0000
  S   S161      1.0  0.64577  0.32995  0.86176  1.0000
  C   C1171     1.0  0.73025  0.40220  0.91847  1.0000
  C   C1172     1.0  0.81859  0.30712  0.87464  1.0000
  C   C1173     1.0  0.51339  0.47420  0.98496  1.0000
  H   H940      1.0  0.85717  0.36334  0.85169  1.0000
  H   H941      1.0  0.54055  0.35872  0.03561  1.0000
  H   H942      1.0  0.70017  0.34680  0.95192  1.0000
  H   H943      1.0  0.86876  0.19647  0.80253  1.0000
  H   H944      1.0  0.73842  0.02094  0.02751  1.0000
  H   H945      1.0  0.89083  0.01523  0.85266  1.0000
  C   C1174     1.0  0.78949  0.26312  0.00807  1.0000
  H   H946      1.0  0.48778  0.44949  0.99708  1.0000
  C   C1175     1.0  0.59153  0.33263  0.92453  1.0000
  C   C1176     1.0  0.54918  0.14318  0.94976  1.0000
  H   H947      1.0  0.86018  0.23761  0.95979  1.0000
  H   H948      1.0  0.56604  0.99781  0.98295  1.0000
  H   H949      1.0  0.76847  0.41546  0.99823  1.0000
  H   H950      1.0  0.89927  0.07451  0.95862  1.0000
  C   C1177     1.0  0.56678  0.15878  0.90620  1.0000
  C   C1178     1.0  0.70468  0.24502  0.86956  1.0000
  C   C1179     1.0  0.80766  0.05046  0.81059  1.0000
  H   H951      1.0  0.71448  0.30822  0.90039  1.0000
  H   H952      1.0  0.53383  0.11231  0.86139  1.0000
  C   C1180     1.0  0.86983  0.08595  0.01142  1.0000
  C   C1181     1.0  0.88930  0.18957  0.01948  1.0000
  C   C1182     1.0  0.87393  0.30253  0.81431  1.0000
  H   H953      1.0  0.64471  0.13259  0.03965  1.0000
  C   C1183     1.0  0.79420  0.26121  0.96804  1.0000
  S   S162      1.0  0.62640  0.46908  0.86267  1.0000
  C   C1184     1.0  0.67311  0.25601  0.00104  1.0000
  H   H954      1.0  0.78203  0.36287  0.92115  1.0000
  S   S163      1.0  0.53996  0.05317  0.81950  1.0000
  C   C1185     1.0  0.65064  0.08895  0.98597  1.0000
  H   H955      1.0  0.80798  0.20915  0.94356  1.0000
  H   H956      1.0  0.83715  0.24642  0.83846  1.0000
  Fe  Fe82      1.0  0.82799  0.36833  0.04821  1.0000
  S   S164      1.0  0.70294  0.04340  0.93203  1.0000
  P   P38       1.0  0.91566  0.13430  0.85893  1.0000
  C   C1186     1.0  0.50398  0.37556  0.03720  1.0000
  C   C1187     1.0  0.60381  0.31131  0.90691  1.0000
  H   H957      1.0  0.53199  0.23076  0.97496  1.0000
  C   C1188     1.0  0.85545  0.44000  0.84682  1.0000
  S   S165      1.0  0.47187  0.47684  0.80431  1.0000
  C   C1189     1.0  0.54452  0.30309  0.86775  1.0000
  Fe  Fe83      1.0  0.76035  0.35571  0.04352  1.0000
  H   H958      1.0  0.62981  0.17551  0.01835  1.0000
  C   C1190     1.0  0.80046  0.37361  0.85446  1.0000
  H   H959      1.0  0.68013  0.24847  0.02419  1.0000
  H   H960      1.0  0.77871  0.08384  0.99892  1.0000
  C   C1191     1.0  0.93485  0.45630  0.83037  1.0000
  C   C1192     1.0  0.57658  0.15734  0.80616  1.0000
  C   C1193     1.0  0.75542  0.43623  0.91534  1.0000
  C   C1194     1.0  0.94378  0.36721  0.04697  1.0000
  C   C1195     1.0  0.90456  0.23465  0.96078  1.0000
  H   H961      1.0  0.47959  0.05245  0.98730  1.0000
  C   C1196     1.0  0.76448  0.23859  0.96216  1.0000
  H   H962      1.0  0.91508  0.43370  0.82643  1.0000
  C   C1197     1.0  0.86813  0.22412  0.97661  1.0000
  C   C1198     1.0  0.87460  0.48201  0.92352  1.0000
  C   C1199     1.0  0.73487  0.25178  0.87521  1.0000
  C   C1200     1.0  0.82947  0.41496  0.88661  1.0000
  C   C1201     1.0  0.93024  0.48489  0.83630  1.0000
  H   H963      1.0  0.47747  0.07795  0.92508  1.0000
  C   C1202     1.0  0.87976  0.33553  0.81795  1.0000
  S   S166      1.0  0.79653  0.18198  0.03014  1.0000
  H   H964      1.0  0.60155  0.24637  0.98664  1.0000
  H   H965      1.0  0.84602  0.01837  0.97035  1.0000
  H   H966      1.0  0.84703  0.05125  0.82838  1.0000
  S   S167      1.0  0.47631  0.20910  0.94681  1.0000
  C   C1203     1.0  0.61520  0.06963  0.01888  1.0000
  H   H967      1.0  0.81265  0.28069  0.01199  1.0000
  H   H968      1.0  0.78300  0.05450  0.94318  1.0000
  H   H969      1.0  0.70610  0.26549  0.84904  1.0000
  H   H970      1.0  0.56236  0.47108  0.87913  1.0000
  C   C1204     1.0  0.67978  0.09616  0.99406  1.0000
  H   H971      1.0  0.70696  0.19926  0.99422  1.0000
  H   H972      1.0  0.82104  0.16231  0.93584  1.0000
  H   H973      1.0  0.46372  0.31253  0.82639  1.0000
  C   C1205     1.0  0.93533  0.98911  0.85118  1.0000
  H   H974      1.0  0.69207  0.48574  0.96677  1.0000
  C   C1206     1.0  0.80225  0.38183  0.89029  1.0000
  H   H975      1.0  0.64863  0.20742  0.88787  1.0000
  C   C1207     1.0  0.79307  0.14321  0.89924  1.0000
  H   H976      1.0  0.62143  0.28465  0.81180  1.0000
  Fe  Fe84      1.0  0.73233  0.45545  0.84684  1.0000
  H   H977      1.0  0.91156  0.44720  0.96356  1.0000
  H   H978      1.0  0.89375  0.15500  0.93529  1.0000
  C   C1208     1.0  0.61789  0.46292  0.03118  1.0000
  H   H979      1.0  0.95499  0.19829  0.87943  1.0000
  C   C1209     1.0  0.49245  0.36582  0.91052  1.0000
  C   C1210     1.0  0.94946  0.01337  0.87098  1.0000
  C   C1211     1.0  0.84252  0.03413  0.99075  1.0000
  H   H980      1.0  0.75955  0.27739  0.85818  1.0000
  H   H981      1.0  0.53489  0.45368  0.01645  1.0000
  C   C1212     1.0  0.83592  0.07477  0.04438  1.0000
  C   C1213     1.0  0.83328  0.04207  0.80982  1.0000
  H   H982      1.0  0.75127  0.17873  0.86943  1.0000
  H   H983      1.0  0.60826  0.00662  0.01247  1.0000
  C   C1214     1.0  0.55759  0.33706  0.84382  1.0000
  S   S168      1.0  0.94337  0.34258  0.85072  1.0000
  C   C1215     1.0  0.60167  0.46263  0.83445  1.0000
  Fe  Fe85      1.0  0.90521  0.99865  0.01626  1.0000
  H   H984      1.0  0.64880  0.33215  0.02082  1.0000
  S   S169      1.0  0.95425  0.99468  0.99632  1.0000
  H   H985      1.0  0.63297  0.05050  0.84656  1.0000
  S   S170      1.0  0.70260  0.00009  0.86280  1.0000
  C   C1216     1.0  0.70031  0.19263  0.92396  1.0000
  C   C1217     1.0  0.72568  0.21916  0.03750  1.0000
  H   H986      1.0  0.51680  0.37727  0.88076  1.0000
  P   P39       1.0  0.61100  0.16826  0.82293  1.0000
  C   C1218     1.0  0.92920  0.00704  0.91394  1.0000
  H   H987      1.0  0.92434  0.25612  0.93200  1.0000
  C   C1219     1.0  0.82685  0.39790  0.81471  1.0000
  C   C1220     1.0  0.88971  0.16904  0.82537  1.0000
  C   C1221     1.0  0.93912  0.46416  0.95815  1.0000
  H   H988      1.0  0.59441  0.45803  0.95203  1.0000
  C   C1222     1.0  0.57586  0.10704  0.94083  1.0000
  P   P40       1.0  0.77157  0.23406  0.91061  1.0000
  H   H989      1.0  0.64528  0.16041  0.93493  1.0000
  S   S171      1.0  0.77049  0.47256  0.87459  1.0000
  H   H990      1.0  0.70721  0.11095  0.96862  1.0000
  H   H991      1.0  0.76422  0.13096  0.86300  1.0000
  H   H992      1.0  0.69605  0.08894  0.04099  1.0000
  C   C1223     1.0  0.62899  0.25492  0.98030  1.0000
  S   S172      1.0  0.63583  0.01240  0.90916  1.0000
  H   H993      1.0  0.92617  0.30959  0.93480  1.0000
  H   H994      1.0  0.95116  0.42319  0.95347  1.0000
  S   S173      1.0  0.72537  0.34011  0.01151  1.0000
  H   H995      1.0  0.82140  0.27669  0.94212  1.0000
  H   H996      1.0  0.62267  0.39289  0.00596  1.0000
  H   H997      1.0  0.71980  0.39827  0.89607  1.0000
  C   C1224     1.0  0.57015  0.46405  0.85060  1.0000
  H   H998      1.0  0.79847  0.12209  0.89628  1.0000
  H   H999      1.0  0.48785  0.09746  0.83748  1.0000
  C   C1225     1.0  0.48955  0.01736  0.95444  1.0000
  C   C1226     1.0  0.71940  0.37292  0.94987  1.0000
  Fe  Fe86      1.0  0.67630  0.02533  0.84308  1.0000
  Fe  Fe87      1.0  0.47798  0.42999  0.80543  1.0000
  S   S174      1.0  0.71545  0.07991  0.83920  1.0000
  C   C1227     1.0  0.91623  0.10208  0.83217  1.0000
  C   C1228     1.0  0.79794  0.19224  0.92607  1.0000
  C   C1229     1.0  0.88996  0.37282  0.94153  1.0000
  C   C1230     1.0  0.84206  0.19606  0.01365  1.0000
  H   H1000     1.0  0.77876  0.34839  0.85748  1.0000
  C   C1231     1.0  0.54111  0.12879  0.83164  1.0000
  C   C1232     1.0  0.48804  0.38679  0.93597  1.0000
  H   H1001     1.0  0.84200  0.07518  0.88383  1.0000
  C   C1233     1.0  0.65702  0.27752  0.94034  1.0000
  C   C1234     1.0  0.83617  0.12043  0.97066  1.0000
  C   C1235     1.0  0.89289  0.19780  0.80125  1.0000
  C   C1236     1.0  0.80551  0.16549  0.92165  1.0000
  H   H1002     1.0  0.86304  0.14565  0.84440  1.0000
  C   C1237     1.0  0.84052  0.27172  0.84095  1.0000
  H   H1003     1.0  0.59525  0.30605  0.00791  1.0000
  C   C1238     1.0  0.90094  0.06692  0.85532  1.0000
  C   C1239     1.0  0.70100  0.27869  0.96109  1.0000
  C   C1240     1.0  0.54862  0.25920  0.96131  1.0000
  C   C1241     1.0  0.85207  0.33783  0.84795  1.0000
  C   C1242     1.0  0.61729  0.23406  0.81626  1.0000
  Fe  Fe88      1.0  0.67661  0.38940  0.83994  1.0000
  H   H1004     1.0  0.82935  0.42107  0.91497  1.0000
  H   H1005     1.0  0.53340  0.29637  0.90155  1.0000
  H   H1006     1.0  0.79792  0.30923  0.89894  1.0000
  Fe  Fe89      1.0  0.73862  0.05390  0.86447  1.0000
  C   C1243     1.0  0.55392  0.11748  0.96706  1.0000
  C   C1244     1.0  0.87005  0.13252  0.93688  1.0000
  H   H1007     1.0  0.56185  0.17786  0.89363  1.0000
  Fe  Fe90      1.0  0.66502  0.99132  0.92879  1.0000
  C   C1245     1.0  0.75804  0.41158  0.97586  1.0000
  C   C1246     1.0  0.80834  0.02242  0.02416  1.0000
  H   H1008     1.0  0.59123  0.25780  0.91161  1.0000
  S   S175      1.0  0.81569  0.40437  0.01907  1.0000
  C   C1247     1.0  0.58928  0.14876  0.87946  1.0000
  C   C1248     1.0  0.56980  0.03843  0.81473  1.0000
  C   C1249     1.0  0.63682  0.24416  0.01119  1.0000
  H   H1009     1.0  0.83396  0.13316  0.99479  1.0000
  C   C1250     1.0  0.67346  0.08350  0.03499  1.0000
  C   C1251     1.0  0.62494  0.33273  0.04002  1.0000
  H   H1010     1.0  0.88002  0.39066  0.94333  1.0000
  H   H1011     1.0  0.60700  0.36076  0.90944  1.0000
  C   C1252     1.0  0.81269  0.27377  0.87168  1.0000
  S   S176      1.0  0.67233  0.41998  0.88568  1.0000
  C   C1253     1.0  0.76869  0.44099  0.94461  1.0000
  C   C1254     1.0  0.49441  0.98861  0.95616  1.0000
  H   H1012     1.0  0.46507  0.39173  0.04856  1.0000
  Fe  Fe91      1.0  0.49557  0.02197  0.80330  1.0000
  C   C1255     1.0  0.73279  0.22575  0.90293  1.0000
  H   H1013     1.0  0.67232  0.16794  0.82818  1.0000
  H   H1014     1.0  0.60927  0.11294  0.87813  1.0000
  H   H1015     1.0  0.65103  0.28626  0.91680  1.0000
  C   C1256     1.0  0.58938  0.04822  0.83733  1.0000
  H   H1016     1.0  0.52420  0.45719  0.84270  1.0000
  C   C1257     1.0  0.62258  0.43403  0.03323  1.0000
  Fe  Fe92      1.0  0.66744  0.45266  0.84009  1.0000
  H   H1017     1.0  0.53117  0.15050  0.96994  1.0000
  C   C1258     1.0  0.46968  0.17824  0.84623  1.0000
  C   C1259     1.0  0.77359  0.14819  0.88051  1.0000
  H   H1018     1.0  0.57921  0.08669  0.95402  1.0000
  S   S177      1.0  0.79787  0.07590  0.84146  1.0000
  C   C1260     1.0  0.90324  0.04244  0.83462  1.0000
  H   H1019     1.0  0.46921  0.31383  0.90396  1.0000
  H   H1020     1.0  0.95832  0.10377  0.86861  1.0000
  C   C1261     1.0  0.92055  0.17083  0.82537  1.0000
  C   C1262     1.0  0.62443  0.02341  0.80163  1.0000
  C   C1263     1.0  0.67220  0.21236  0.89159  1.0000
  H   H1021     1.0  0.89752  0.17605  0.03583  1.0000
  H   H1022     1.0  0.89352  0.11037  0.00671  1.0000
  C   C1264     1.0  0.73015  0.21758  0.99732  1.0000
  C   C1265     1.0  0.91947  0.34538  0.90002  1.0000
  H   H1023     1.0  0.51612  0.38528  0.00325  1.0000
  H   H1024     1.0  0.49040  0.02945  0.92628  1.0000
  C   C1266     1.0  0.90459  0.36683  0.90313  1.0000
  H   H1025     1.0  0.59262  0.06354  0.01254  1.0000
  S   S178      1.0  0.93547  0.05722  0.00355  1.0000
  C   C1267     1.0  0.90353  0.33460  0.97401  1.0000
  C   C1268     1.0  0.87285  0.11587  0.90556  1.0000
  C   C1269     1.0  0.77786  0.19709  0.90797  1.0000
  H   H1026     1.0  0.46831  0.13524  0.88081  1.0000
  C   C1270     1.0  0.46530  0.33026  0.92328  1.0000
  C   C1271     1.0  0.48379  0.03042  0.98861  1.0000
  H   H1027     1.0  0.58401  0.06237  0.85916  1.0000
  C   C1272     1.0  0.85261  0.17913  0.03571  1.0000
  C   C1273     1.0  0.73420  0.37743  0.97766  1.0000
  C   C1274     1.0  0.54857  0.45616  0.83005  1.0000
  C   C1275     1.0  0.59326  0.12239  0.89731  1.0000
  H   H1028     1.0  0.78723  0.46735  0.94305  1.0000
  H   H1029     1.0  0.53797  0.25230  0.86641  1.0000
  H   H1030     1.0  0.69835  0.17156  0.94425  1.0000
  H   H1031     1.0  0.60287  0.40742  0.95572  1.0000
  H   H1032     1.0  0.54005  0.10507  0.00068  1.0000
  C   C1276     1.0  0.60126  0.45099  0.97565  1.0000
  C   C1277     1.0  0.94986  0.34011  0.03835  1.0000
  H   H1033     1.0  0.88754  0.05845  0.88937  1.0000
  H   H1034     1.0  0.55790  0.35706  0.85895  1.0000
  C   C1278     1.0  0.55820  0.31738  0.96087  1.0000
  C   C1279     1.0  0.85458  0.43075  0.81085  1.0000
  C   C1280     1.0  0.89073  0.35766  0.97660  1.0000
  H   H1035     1.0  0.49230  0.19860  0.84887  1.0000
  C   C1281     1.0  0.76617  0.17520  0.88451  1.0000
  S   S179      1.0  0.49346  0.26146  0.02233  1.0000
  C   C1282     1.0  0.91522  0.21726  0.98177  1.0000
  H   H1036     1.0  0.58801  0.21967  0.83019  1.0000
  C   C1283     1.0  0.80485  0.09225  0.97319  1.0000
  C   C1284     1.0  0.84111  0.08745  0.90840  1.0000
  C   C1285     1.0  0.54011  0.47664  0.99566  1.0000
  C   C1286     1.0  0.69294  0.28963  0.93087  1.0000
  S   S180      1.0  0.88073  0.37083  0.02190  1.0000
  C   C1287     1.0  0.51496  0.12000  0.81785  1.0000
  S   S181      1.0  0.65823  0.10031  0.93420  1.0000
  H   H1037     1.0  0.94000  0.02620  0.92892  1.0000
  C   C1288     1.0  0.61676  0.04096  0.83063  1.0000
  H   H1038     1.0  0.72892  0.28876  0.95426  1.0000
  H   H1039     1.0  0.54862  0.33401  0.97375  1.0000
  H   H1040     1.0  0.90574  0.37994  0.87556  1.0000
  C   C1289     1.0  0.59466  0.31781  0.03304  1.0000
  C   C1290     1.0  0.66682  0.15450  0.80585  1.0000
  C   C1291     1.0  0.80733  0.07566  0.94210  1.0000
  C   C1292     1.0  0.58220  0.27451  0.92538  1.0000
  H   H1041     1.0  0.88352  0.46342  0.92375  1.0000
  H   H1042     1.0  0.87392  0.48066  0.04673  1.0000
  H   H1043     1.0  0.94994  0.12906  0.03196  1.0000
  C   C1293     1.0  0.95287  0.14967  0.87176  1.0000
  H   H1044     1.0  0.46350  0.21543  0.81328  1.0000
  C   C1294     1.0  0.63612  0.21611  0.80896  1.0000
  C   C1295     1.0  0.55986  0.28624  0.80450  1.0000
  S   S182      1.0  0.73727  0.42288  0.80384  1.0000
  C   C1296     1.0  0.63611  0.27097  0.80520  1.0000
  C   C1297     1.0  0.57079  0.34537  0.80031  1.0000
  S   S183      1.0  0.63704  0.47804  0.16401  1.0000
  H   H1045     1.0  0.93120  0.31336  0.05992  1.0000
  H   H1046     1.0  0.92008  0.36143  0.07484  1.0000
  H   H1047     1.0  0.81731  0.21106  0.17298  1.0000
  C   C1298     1.0  0.54255  0.15415  0.06598  1.0000
  H   H1048     1.0  0.53902  0.25163  0.17782  1.0000
  S   S184      1.0  0.59815  0.32310  0.24072  1.0000
  S   S185      1.0  0.49786  0.28919  0.29156  1.0000
  H   H1049     1.0  0.82531  0.39543  0.21596  1.0000
  H   H1050     1.0  0.55206  0.42668  0.22076  1.0000
  H   H1051     1.0  0.92827  0.24361  0.18350  1.0000
  C   C1299     1.0  0.87837  0.48342  0.15778  1.0000
  H   H1052     1.0  0.85849  0.43061  0.28002  1.0000
  C   C1300     1.0  0.93850  0.47164  0.06793  1.0000
  C   C1301     1.0  0.87575  0.18883  0.14271  1.0000
  C   C1302     1.0  0.58344  0.20776  0.27726  1.0000
  H   H1053     1.0  0.65501  0.30755  0.12404  1.0000
  H   H1054     1.0  0.49600  0.12358  0.28722  1.0000
  H   H1055     1.0  0.91610  0.47440  0.16911  1.0000
  C   C1303     1.0  0.51278  0.13238  0.18263  1.0000
  C   C1304     1.0  0.61770  0.15125  0.13124  1.0000
  C   C1305     1.0  0.94806  0.32590  0.14012  1.0000
  H   H1056     1.0  0.88281  0.22459  0.09114  1.0000
  C   C1306     1.0  0.59684  0.28177  0.15383  1.0000
  C   C1307     1.0  0.93388  0.23317  0.08426  1.0000
  H   H1057     1.0  0.83337  0.09073  0.06486  1.0000
  H   H1058     1.0  0.87002  0.38809  0.23119  1.0000
  C   C1308     1.0  0.83227  0.31256  0.20615  1.0000
  C   C1309     1.0  0.54699  0.40881  0.20231  1.0000
  C   C1310     1.0  0.94493  0.43526  0.21389  1.0000
  H   H1059     1.0  0.66366  0.17433  0.28596  1.0000
  H   H1060     1.0  0.64975  0.21085  0.19176  1.0000
  H   H1061     1.0  0.88222  0.38469  0.12542  1.0000
  C   C1311     1.0  0.61007  0.17642  0.11919  1.0000
  C   C1312     1.0  0.53359  0.36244  0.15487  1.0000
  C   C1313     1.0  0.67610  0.41275  0.26160  1.0000
  H   H1062     1.0  0.52072  0.32330  0.20779  1.0000
  S   S186      1.0  0.70219  0.13152  0.12231  1.0000
  H   H1063     1.0  0.47699  0.08615  0.17303  1.0000
  C   C1314     1.0  0.91277  0.31918  0.15523  1.0000
  H   H1064     1.0  0.86630  0.23136  0.20913  1.0000
  H   H1065     1.0  0.84645  0.17528  0.15824  1.0000
  Fe  Fe93      1.0  0.54428  0.29163  0.29824  1.0000
  C   C1315     1.0  0.83466  0.29010  0.12165  1.0000
  H   H1066     1.0  0.72096  0.47708  0.16987  1.0000
  H   H1067     1.0  0.81120  0.48447  0.24609  1.0000
  S   S187      1.0  0.79865  0.45914  0.09985  1.0000
  C   C1316     1.0  0.90902  0.43697  0.08343  1.0000
  H   H1068     1.0  0.75199  0.24226  0.07413  1.0000
  C   C1317     1.0  0.61069  0.36710  0.22047  1.0000
  C   C1318     1.0  0.59350  0.34861  0.09743  1.0000
  H   H1069     1.0  0.53642  0.13119  0.16445  1.0000
  Fe  Fe94      1.0  0.91467  0.28253  0.29273  1.0000
  C   C1319     1.0  0.71915  0.37103  0.20582  1.0000
  H   H1070     1.0  0.86351  0.04066  0.26117  1.0000
  H   H1071     1.0  0.94883  0.25328  0.05408  1.0000
  H   H1072     1.0  0.78218  0.99115  0.15630  1.0000
  C   C1320     1.0  0.71185  0.35093  0.27542  1.0000
  H   H1073     1.0  0.60093  0.18869  0.14172  1.0000
  C   C1321     1.0  0.52146  0.05101  0.21559  1.0000
  C   C1322     1.0  0.55805  0.19032  0.06264  1.0000
  C   C1323     1.0  0.83839  0.01546  0.27226  1.0000
  C   C1324     1.0  0.73158  0.29505  0.29760  1.0000
  C   C1325     1.0  0.64624  0.38166  0.29320  1.0000
  H   H1074     1.0  0.95569  0.48701  0.26066  1.0000
  H   H1075     1.0  0.87481  0.11578  0.12778  1.0000
  S   S188      1.0  0.81059  0.37782  0.11049  1.0000
  C   C1326     1.0  0.51574  0.15844  0.20250  1.0000
  H   H1076     1.0  0.49858  0.10804  0.06570  1.0000
  C   C1327     1.0  0.48489  0.15923  0.22682  1.0000
  C   C1328     1.0  0.55131  0.04718  0.19717  1.0000
  C   C1329     1.0  0.62475  0.19965  0.22072  1.0000
  H   H1077     1.0  0.87746  0.15575  0.18830  1.0000
  H   H1078     1.0  0.84258  0.31672  0.12290  1.0000
  H   H1079     1.0  0.78164  0.34743  0.20122  1.0000
  H   H1080     1.0  0.85995  0.45580  0.16289  1.0000
  H   H1081     1.0  0.73127  0.45939  0.10532  1.0000
  H   H1082     1.0  0.73529  0.39037  0.17487  1.0000
  C   C1330     1.0  0.62922  0.43655  0.18644  1.0000
  C   C1331     1.0  0.82677  0.37199  0.21447  1.0000
  C   C1332     1.0  0.93102  0.42083  0.12816  1.0000
  H   H1083     1.0  0.78578  0.29484  0.19462  1.0000
  S   S189      1.0  0.88727  0.31245  0.28880  1.0000
  H   H1084     1.0  0.55168  0.40861  0.10635  1.0000
  H   H1085     1.0  0.48700  0.17918  0.24270  1.0000
  H   H1086     1.0  0.81983  0.24221  0.05550  1.0000
  H   H1087     1.0  0.76194  0.21920  0.22783  1.0000
  C   C1333     1.0  0.48617  0.25813  0.14775  1.0000
  C   C1334     1.0  0.54692  0.39843  0.13775  1.0000
  H   H1088     1.0  0.65593  0.43125  0.12648  1.0000
  C   C1335     1.0  0.46837  0.39855  0.26776  1.0000
  H   H1089     1.0  0.83246  0.15731  0.06435  1.0000
  H   H1090     1.0  0.54051  0.21524  0.13049  1.0000
  H   H1091     1.0  0.94945  0.16404  0.08033  1.0000
  S   S190      1.0  0.77459  0.31895  0.06755  1.0000
  C   C1336     1.0  0.73310  0.37472  0.23435  1.0000
  C   C1337     1.0  0.60352  0.16311  0.24071  1.0000
  C   C1338     1.0  0.55394  0.42155  0.16133  1.0000
  H   H1092     1.0  0.67804  0.23605  0.26902  1.0000
  C   C1339     1.0  0.74484  0.18827  0.28931  1.0000
  C   C1340     1.0  0.83479  0.99363  0.24666  1.0000
  C   C1341     1.0  0.92406  0.26480  0.17544  1.0000
  H   H1093     1.0  0.46808  0.13918  0.05544  1.0000
  H   H1094     1.0  0.69058  0.41184  0.23075  1.0000
  H   H1095     1.0  0.90616  0.00713  0.29232  1.0000
  C   C1342     1.0  0.53489  0.37337  0.21900  1.0000
  P   P41       1.0  0.60111  0.21496  0.06322  1.0000
  Fe  Fe95      1.0  0.70502  0.11719  0.18119  1.0000
  C   C1343     1.0  0.81450  0.23568  0.27719  1.0000
  C   C1344     1.0  0.73501  0.48536  0.10439  1.0000
  C   C1345     1.0  0.86473  0.06341  0.12875  1.0000
  C   C1346     1.0  0.85502  0.33842  0.21816  1.0000
  H   H1096     1.0  0.55698  0.47218  0.08214  1.0000
  H   H1097     1.0  0.55362  0.03410  0.17316  1.0000
  H   H1098     1.0  0.76060  0.39600  0.22357  1.0000
  C   C1347     1.0  0.81830  0.07871  0.14671  1.0000
  H   H1099     1.0  0.73060  0.24766  0.28821  1.0000
  H   H1100     1.0  0.63739  0.29541  0.26561  1.0000
  C   C1348     1.0  0.61387  0.18509  0.07858  1.0000
  H   H1101     1.0  0.62407  0.47921  0.05095  1.0000
  C   C1349     1.0  0.85228  0.36810  0.22222  1.0000
  H   H1102     1.0  0.49476  0.06953  0.26125  1.0000
  H   H1103     1.0  0.87500  0.33583  0.22409  1.0000
  C   C1350     1.0  0.69021  0.22686  0.24450  1.0000
  H   H1104     1.0  0.50033  0.04052  0.20611  1.0000
  C   C1351     1.0  0.89616  0.21664  0.10515  1.0000
  H   H1105     1.0  0.53041  0.36396  0.25051  1.0000
  S   S191      1.0  0.92423  0.18323  0.23778  1.0000
  C   C1352     1.0  0.95885  0.98890  0.22621  1.0000
  C   C1353     1.0  0.82931  0.26455  0.15350  1.0000
  C   C1354     1.0  0.67729  0.32209  0.28631  1.0000
  C   C1355     1.0  0.80521  0.23957  0.24508  1.0000
  C   C1356     1.0  0.69057  0.04117  0.27289  1.0000
  H   H1106     1.0  0.86415  0.48589  0.24780  1.0000
  C   C1357     1.0  0.81769  0.22311  0.11383  1.0000
  Fe  Fe96      1.0  0.67923  0.07437  0.12654  1.0000
  Fe  Fe97      1.0  0.92584  0.04485  0.07028  1.0000
  C   C1358     1.0  0.94667  0.39824  0.26532  1.0000
  H   H1107     1.0  0.84116  0.25415  0.27324  1.0000
  C   C1359     1.0  0.72034  0.20237  0.18112  1.0000
  Fe  Fe98      1.0  0.73370  0.06992  0.15055  1.0000
  H   H1108     1.0  0.74719  0.25541  0.13989  1.0000
  C   C1360     1.0  0.47899  0.10689  0.18739  1.0000
  C   C1361     1.0  0.72883  0.23763  0.17158  1.0000
  C   C1362     1.0  0.94974  0.16315  0.23494  1.0000
  H   H1109     1.0  0.71459  0.99645  0.27641  1.0000
  C   C1363     1.0  0.70585  0.07607  0.27378  1.0000
  H   H1110     1.0  0.94363  0.18359  0.15072  1.0000
  C   C1364     1.0  0.57802  0.05962  0.21029  1.0000
  C   C1365     1.0  0.77244  0.39643  0.29295  1.0000
  S   S192      1.0  0.67769  0.05934  0.18821  1.0000
  C   C1366     1.0  0.62449  0.34846  0.07187  1.0000
  C   C1367     1.0  0.61484  0.22202  0.23904  1.0000
  C   C1368     1.0  0.56474  0.25590  0.15531  1.0000
  C   C1369     1.0  0.51841  0.06746  0.24700  1.0000
  H   H1111     1.0  0.72805  0.30046  0.27033  1.0000
  C   C1370     1.0  0.57104  0.14833  0.27814  1.0000
  C   C1371     1.0  0.82085  0.23095  0.14928  1.0000
  H   H1112     1.0  0.61302  0.14668  0.22717  1.0000
  C   C1372     1.0  0.80252  0.34521  0.20535  1.0000
  C   C1373     1.0  0.56378  0.31834  0.05817  1.0000
  C   C1374     1.0  0.52907  0.35041  0.19498  1.0000
  C   C1375     1.0  0.80232  0.01835  0.15021  1.0000
  C   C1376     1.0  0.63794  0.06268  0.06755  1.0000
  S   S193      1.0  0.73324  0.08074  0.08898  1.0000
  S   S194      1.0  0.72149  0.29267  0.19307  1.0000
  H   H1113     1.0  0.58255  0.37188  0.28030  1.0000
  H   H1114     1.0  0.59978  0.43344  0.24988  1.0000
  H   H1115     1.0  0.57636  0.22532  0.29178  1.0000
  C   C1377     1.0  0.51762  0.36005  0.05571  1.0000
  H   H1116     1.0  0.64811  0.36011  0.07711  1.0000
  H   H1117     1.0  0.59602  0.08498  0.25156  1.0000
  C   C1378     1.0  0.57507  0.07595  0.24163  1.0000
  C   C1379     1.0  0.66400  0.31770  0.25708  1.0000
  H   H1118     1.0  0.72954  0.09722  0.24620  1.0000
  S   S195      1.0  0.68572  0.13559  0.23600  1.0000
  H   H1119     1.0  0.63208  0.25048  0.22406  1.0000
  H   H1120     1.0  0.88939  0.42972  0.07157  1.0000
  C   C1380     1.0  0.60925  0.41996  0.22985  1.0000
  H   H1121     1.0  0.93235  0.44868  0.20704  1.0000
  C   C1381     1.0  0.68688  0.99694  0.08203  1.0000
  C   C1382     1.0  0.47313  0.35098  0.12456  1.0000
  C   C1383     1.0  0.68646  0.44520  0.26943  1.0000
  C   C1384     1.0  0.83861  0.46092  0.26062  1.0000
  H   H1122     1.0  0.85699  0.00198  0.21565  1.0000
  C   C1385     1.0  0.85453  0.08856  0.13425  1.0000
  C   C1386     1.0  0.88291  0.28542  0.18144  1.0000
  C   C1387     1.0  0.69668  0.17950  0.22242  1.0000
  Fe  Fe99      1.0  0.75615  0.33097  0.12782  1.0000
  H   H1123     1.0  0.58133  0.03993  0.08480  1.0000
  H   H1124     1.0  0.50642  0.26124  0.11805  1.0000
  C   C1388     1.0  0.77006  0.21596  0.25161  1.0000
  H   H1125     1.0  0.77960  0.03427  0.07781  1.0000
  H   H1126     1.0  0.73235  0.19306  0.15668  1.0000
  C   C1389     1.0  0.83845  0.02827  0.13715  1.0000
  C   C1390     1.0  0.63134  0.26734  0.09755  1.0000
  C   C1391     1.0  0.80532  0.04302  0.05105  1.0000
  C   C1392     1.0  0.51009  0.13574  0.06374  1.0000
  C   C1393     1.0  0.59923  0.38498  0.24684  1.0000
  C   C1394     1.0  0.80492  0.31539  0.20168  1.0000
  C   C1395     1.0  0.80220  0.39759  0.29551  1.0000
  C   C1396     1.0  0.77572  0.42819  0.27608  1.0000
  H   H1127     1.0  0.84586  0.00860  0.13394  1.0000
  H   H1128     1.0  0.59599  0.29777  0.17461  1.0000
  H   H1129     1.0  0.90630  0.41237  0.27988  1.0000
  C   C1397     1.0  0.82215  0.24830  0.08296  1.0000
  C   C1398     1.0  0.80881  0.46016  0.25947  1.0000
  H   H1130     1.0  0.90871  0.34017  0.14625  1.0000
  H   H1131     1.0  0.65751  0.27242  0.07559  1.0000
  H   H1132     1.0  0.64123  0.37079  0.15662  1.0000
  H   H1133     1.0  0.70967  0.46943  0.24517  1.0000
  C   C1399     1.0  0.88882  0.25805  0.19058  1.0000
  H   H1134     1.0  0.67997  0.01513  0.07143  1.0000
  S   S196      1.0  0.73803  0.36418  0.10514  1.0000
  C   C1400     1.0  0.54532  0.08017  0.26018  1.0000
  H   H1135     1.0  0.92798  0.40068  0.15101  1.0000
  C   C1401     1.0  0.63008  0.28733  0.12522  1.0000
  H   H1136     1.0  0.92353  0.12605  0.20690  1.0000
  Fe  Fe100     1.0  0.79419  0.41037  0.08307  1.0000
  H   H1137     1.0  0.70255  0.03582  0.24424  1.0000
  C   C1402     1.0  0.50226  0.34760  0.09962  1.0000
  H   H1138     1.0  0.93494  0.38209  0.29731  1.0000
  C   C1403     1.0  0.64062  0.41863  0.16012  1.0000
  S   S197      1.0  0.91028  0.07598  0.11119  1.0000
  C   C1404     1.0  0.68458  0.34257  0.21715  1.0000
  H   H1139     1.0  0.81067  0.09829  0.14995  1.0000
  H   H1140     1.0  0.67384  0.33953  0.19490  1.0000
  C   C1405     1.0  0.49271  0.15310  0.05841  1.0000
  Fe  Fe101     1.0  0.75628  0.13690  0.08940  1.0000
  H   H1141     1.0  0.56511  0.44941  0.14797  1.0000
  C   C1406     1.0  0.79226  0.04357  0.15419  1.0000
  C   C1407     1.0  0.83013  0.28153  0.08715  1.0000
  C   C1408     1.0  0.59925  0.24141  0.09842  1.0000
  H   H1142     1.0  0.59371  0.36026  0.12251  1.0000
  H   H1143     1.0  0.83325  0.30076  0.06325  1.0000
  H   H1144     1.0  0.61431  0.14404  0.16263  1.0000
  C   C1409     1.0  0.93087  0.19401  0.13852  1.0000
  H   H1145     1.0  0.75262  0.42829  0.27569  1.0000
  C   C1410     1.0  0.56586  0.23560  0.12795  1.0000
  Fe  Fe102     1.0  0.92850  0.22274  0.27330  1.0000
  H   H1146     1.0  0.60085  0.05611  0.19663  1.0000
  P   P42       1.0  0.52204  0.33233  0.12526  1.0000
  C   C1411     1.0  0.89316  0.17771  0.15953  1.0000
  C   C1412     1.0  0.48714  0.28761  0.15987  1.0000
  H   H1147     1.0  0.63155  0.42788  0.05497  1.0000
  S   S198      1.0  0.74707  0.03002  0.16771  1.0000
  C   C1413     1.0  0.71338  0.24967  0.20330  1.0000
  C   C1414     1.0  0.63211  0.38433  0.17717  1.0000
  C   C1415     1.0  0.62972  0.13515  0.10275  1.0000
  H   H1148     1.0  0.55541  0.14000  0.06993  1.0000
  C   C1416     1.0  0.68191  0.19190  0.25405  1.0000
  C   C1417     1.0  0.47522  0.37905  0.06246  1.0000
  H   H1149     1.0  0.81239  0.19778  0.10958  1.0000
  S   S199      1.0  0.76108  0.12675  0.14829  1.0000
  S   S200      1.0  0.62966  0.04471  0.11816  1.0000
  P   P43       1.0  0.83744  0.27575  0.19684  1.0000
  H   H1150     1.0  0.54179  0.17777  0.19965  1.0000
  C   C1418     1.0  0.90515  0.41161  0.11368  1.0000
  H   H1151     1.0  0.47767  0.42581  0.25374  1.0000
  C   C1419     1.0  0.60881  0.05604  0.05961  1.0000
  C   C1420     1.0  0.94417  0.13559  0.21719  1.0000
  C   C1421     1.0  0.83532  0.42972  0.27876  1.0000
  C   C1422     1.0  0.56280  0.33364  0.09072  1.0000
  C   C1423     1.0  0.93027  0.41500  0.25532  1.0000
  H   H1152     1.0  0.63551  0.11557  0.11218  1.0000
  H   H1153     1.0  0.56071  0.44882  0.29610  1.0000
  C   C1424     1.0  0.95160  0.22215  0.10097  1.0000
  C   C1425     1.0  0.95369  0.29870  0.15033  1.0000
  H   H1154     1.0  0.95590  0.06679  0.28056  1.0000
  C   C1426     1.0  0.56142  0.17104  0.29669  1.0000
  H   H1155     1.0  0.46160  0.34296  0.15847  1.0000
  C   C1427     1.0  0.50721  0.18861  0.05654  1.0000
  H   H1156     1.0  0.71763  0.17054  0.29409  1.0000
  H   H1157     1.0  0.63733  0.35669  0.28678  1.0000
  H   H1158     1.0  0.49337  0.20182  0.05299  1.0000
  H   H1159     1.0  0.55123  0.23521  0.05529  1.0000
  C   C1428     1.0  0.53992  0.20733  0.05811  1.0000
  C   C1429     1.0  0.71979  0.99990  0.05701  1.0000
  C   C1430     1.0  0.63458  0.14447  0.06198  1.0000
  H   H1160     1.0  0.69940  0.20238  0.06467  1.0000
  H   H1161     1.0  0.54050  0.30643  0.05252  1.0000
  C   C1431     1.0  0.62647  0.16912  0.04994  1.0000
  H   H1162     1.0  0.47985  0.02565  0.05047  1.0000
  C   C1432     1.0  0.85130  0.09603  0.38803  1.0000
  H   H1163     1.0  0.74053  0.27120  0.39704  1.0000
  C   C1433     1.0  0.80208  0.39259  0.41751  1.0000
  H   H1164     1.0  0.52169  0.28309  0.51083  1.0000
  H   H1165     1.0  0.51293  0.02590  0.46676  1.0000
  C   C1434     1.0  0.84619  0.32845  0.49901  1.0000
  C   C1435     1.0  0.90148  0.02200  0.31360  1.0000
  C   C1436     1.0  0.77486  0.11256  0.47907  1.0000
  H   H1166     1.0  0.76540  0.36322  0.48291  1.0000
  C   C1437     1.0  0.87892  0.36786  0.52991  1.0000
  C   C1438     1.0  0.57900  0.37688  0.42888  1.0000
  S   S201      1.0  0.68554  0.99121  0.52698  1.0000
  H   H1167     1.0  0.89770  0.15785  0.40153  1.0000
  Fe  Fe103     1.0  0.64991  0.24033  0.47944  1.0000
  C   C1439     1.0  0.85109  0.28616  0.37500  1.0000
  C   C1440     1.0  0.72958  0.44779  0.49564  1.0000
  H   H1168     1.0  0.66009  0.29679  0.38010  1.0000
  H   H1169     1.0  0.59538  0.99380  0.45442  1.0000
  H   H1170     1.0  0.84076  0.32386  0.47279  1.0000
  H   H1171     1.0  0.46812  0.47425  0.35075  1.0000
  H   H1172     1.0  0.84853  0.99409  0.52262  1.0000
  C   C1441     1.0  0.50236  0.03122  0.52882  1.0000
  C   C1442     1.0  0.82019  0.02134  0.54267  1.0000
  C   C1443     1.0  0.73875  0.27827  0.36882  1.0000
  H   H1173     1.0  0.81245  0.36658  0.50027  1.0000
  S   S202      1.0  0.47131  0.34325  0.36029  1.0000
  C   C1444     1.0  0.58983  0.09225  0.37345  1.0000
  C   C1445     1.0  0.92675  0.39765  0.40782  1.0000
  H   H1174     1.0  0.91424  0.04252  0.53493  1.0000
  C   C1446     1.0  0.85560  0.30653  0.33917  1.0000
  S   S203      1.0  0.61365  0.23794  0.54290  1.0000
  C   C1447     1.0  0.76005  0.11899  0.45419  1.0000
  C   C1448     1.0  0.91848  0.99433  0.41146  1.0000
  Fe  Fe104     1.0  0.46651  0.23201  0.32805  1.0000
  H   H1175     1.0  0.57524  0.33077  0.51318  1.0000
  C   C1449     1.0  0.95090  0.42576  0.37012  1.0000
  C   C1450     1.0  0.86711  0.12392  0.35167  1.0000
  C   C1451     1.0  0.82849  0.17148  0.44198  1.0000
  C   C1452     1.0  0.70032  0.13755  0.51520  1.0000
  C   C1453     1.0  0.63682  0.45311  0.40144  1.0000
  H   H1176     1.0  0.78668  0.42207  0.51320  1.0000
  S   S204      1.0  0.67576  0.21765  0.50448  1.0000
  C   C1454     1.0  0.69831  0.35306  0.36251  1.0000
  H   H1177     1.0  0.66076  0.30249  0.31694  1.0000
  S   S205      1.0  0.63304  0.22280  0.43047  1.0000
  H   H1178     1.0  0.51130  0.48705  0.49392  1.0000
  C   C1455     1.0  0.55646  0.08399  0.33347  1.0000
  C   C1456     1.0  0.66712  0.45341  0.40107  1.0000
  H   H1179     1.0  0.60282  0.35854  0.35581  1.0000
  C   C1457     1.0  0.73435  0.31746  0.32284  1.0000
  C   C1458     1.0  0.80756  0.10740  0.35965  1.0000
  C   C1459     1.0  0.73482  0.04872  0.34190  1.0000
  H   H1180     1.0  0.74901  0.07134  0.31429  1.0000
  H   H1181     1.0  0.80036  0.37379  0.30927  1.0000
  C   C1460     1.0  0.52138  0.42930  0.40214  1.0000
  C   C1461     1.0  0.65802  0.05694  0.34429  1.0000
  H   H1182     1.0  0.82648  0.20447  0.39694  1.0000
  H   H1183     1.0  0.82386  0.26661  0.44247  1.0000
  H   H1184     1.0  0.55152  0.16237  0.38982  1.0000
  C   C1462     1.0  0.94203  0.46865  0.44272  1.0000
  P   P44       1.0  0.87931  0.08544  0.40280  1.0000
  C   C1463     1.0  0.84517  0.12977  0.33795  1.0000
  H   H1185     1.0  0.71420  0.48004  0.41049  1.0000
  S   S206      1.0  0.87335  0.20218  0.43045  1.0000
  S   S207      1.0  0.49228  0.22239  0.45095  1.0000
  H   H1186     1.0  0.79484  0.33083  0.38766  1.0000
  C   C1464     1.0  0.81499  0.04824  0.52997  1.0000
  P   P45       1.0  0.60725  0.41877  0.38732  1.0000
  H   H1187     1.0  0.81267  0.02236  0.33128  1.0000
  C   C1465     1.0  0.49539  0.08852  0.33340  1.0000
  H   H1188     1.0  0.95997  0.34366  0.38313  1.0000
  S   S208      1.0  0.94963  0.03388  0.41544  1.0000
  H   H1189     1.0  0.70091  0.11105  0.30959  1.0000
  H   H1190     1.0  0.76087  0.08684  0.50157  1.0000
  H   H1191     1.0  0.49824  0.42711  0.42742  1.0000
  C   C1466     1.0  0.66830  0.40037  0.54436  1.0000
  C   C1467     1.0  0.55320  0.03364  0.37113  1.0000
  C   C1468     1.0  0.75459  0.18391  0.32074  1.0000
  C   C1469     1.0  0.65919  0.01376  0.30795  1.0000
  H   H1192     1.0  0.60928  0.48184  0.40868  1.0000
  S   S209      1.0  0.69317  0.29703  0.46367  1.0000
  H   H1193     1.0  0.51394  0.20746  0.51126  1.0000
  H   H1194     1.0  0.68985  0.45526  0.54115  1.0000
  C   C1470     1.0  0.92946  0.05571  0.30690  1.0000
  C   C1471     1.0  0.59388  0.22255  0.43614  1.0000
  H   H1195     1.0  0.83495  0.01468  0.40227  1.0000
  C   C1472     1.0  0.92005  0.15538  0.40009  1.0000
  C   C1473     1.0  0.90615  0.43973  0.46433  1.0000
  C   C1474     1.0  0.74216  0.20030  0.48063  1.0000
  C   C1475     1.0  0.77897  0.15216  0.42433  1.0000
  H   H1196     1.0  0.53706  0.16057  0.32613  1.0000
  H   H1197     1.0  0.74033  0.99448  0.44456  1.0000
  Fe  Fe105     1.0  0.71699  0.27423  0.49227  1.0000
  H   H1198     1.0  0.84698  0.16804  0.53665  1.0000
  C   C1476     1.0  0.67556  0.37561  0.52871  1.0000
  C   C1477     1.0  0.53164  0.22282  0.44469  1.0000
  C   C1478     1.0  0.54412  0.12567  0.44058  1.0000
  P   P46       1.0  0.72971  0.35511  0.31266  1.0000
  H   H1199     1.0  0.48574  0.13450  0.41223  1.0000
  C   C1479     1.0  0.58244  0.43822  0.33538  1.0000
  C   C1480     1.0  0.62475  0.07283  0.45867  1.0000
  P   P47       1.0  0.53343  0.07873  0.50911  1.0000
  H   H1200     1.0  0.89631  0.14083  0.33356  1.0000
  C   C1481     1.0  0.57987  0.09003  0.48104  1.0000
  Fe  Fe106     1.0  0.90658  0.23089  0.36114  1.0000
  H   H1201     1.0  0.61954  0.29259  0.45006  1.0000
  C   C1482     1.0  0.75158  0.20309  0.51319  1.0000
  H   H1202     1.0  0.73105  0.40833  0.35756  1.0000
  C   C1483     1.0  0.84378  0.01431  0.51292  1.0000
  C   C1484     1.0  0.80882  0.13901  0.47338  1.0000
  H   H1203     1.0  0.94307  0.99998  0.50987  1.0000
  H   H1204     1.0  0.50397  0.29545  0.45739  1.0000
  H   H1205     1.0  0.84248  0.45945  0.44524  1.0000
  C   C1485     1.0  0.83790  0.40970  0.38606  1.0000
  H   H1206     1.0  0.56745  0.03584  0.49013  1.0000
  C   C1486     1.0  0.54773  0.35007  0.42911  1.0000
  H   H1207     1.0  0.64531  0.06326  0.37162  1.0000
  H   H1208     1.0  0.74111  0.32627  0.37755  1.0000
  H   H1209     1.0  0.89863  0.39381  0.52823  1.0000
  C   C1487     1.0  0.65260  0.10839  0.44265  1.0000
  S   S210      1.0  0.79817  0.47513  0.36726  1.0000
  H   H1210     1.0  0.73506  0.16245  0.34996  1.0000
  C   C1488     1.0  0.68958  0.08392  0.30946  1.0000
  C   C1489     1.0  0.93034  0.36794  0.41212  1.0000
  H   H1211     1.0  0.46192  0.05833  0.51782  1.0000
  C   C1490     1.0  0.80448  0.44980  0.50836  1.0000
  C   C1491     1.0  0.69003  0.01694  0.41461  1.0000
  C   C1492     1.0  0.65294  0.34739  0.44362  1.0000
  C   C1493     1.0  0.70678  0.38285  0.37682  1.0000
  C   C1494     1.0  0.48186  0.08069  0.48950  1.0000
  C   C1495     1.0  0.86759  0.00706  0.34839  1.0000
  C   C1496     1.0  0.46284  0.35437  0.31919  1.0000
  C   C1497     1.0  0.64366  0.31791  0.42939  1.0000
  H   H1212     1.0  0.94812  0.00830  0.34460  1.0000
  C   C1498     1.0  0.54354  0.04760  0.34505  1.0000
  C   C1499     1.0  0.56746  0.33633  0.48982  1.0000
  C   C1500     1.0  0.71657  0.16757  0.48165  1.0000
  C   C1501     1.0  0.73286  0.26480  0.30773  1.0000
  H   H1213     1.0  0.79061  0.11236  0.34942  1.0000
  C   C1502     1.0  0.57607  0.05582  0.38562  1.0000
  C   C1503     1.0  0.64424  0.13479  0.44630  1.0000
  H   H1214     1.0  0.81286  0.20978  0.50203  1.0000
  C   C1504     1.0  0.55690  0.44222  0.32783  1.0000
  C   C1505     1.0  0.79180  0.07870  0.39468  1.0000
  C   C1506     1.0  0.56645  0.21436  0.47600  1.0000
  C   C1507     1.0  0.91892  0.12352  0.39897  1.0000
  C   C1508     1.0  0.89099  0.47271  0.51055  1.0000
  C   C1509     1.0  0.85631  0.39518  0.43649  1.0000
  C   C1510     1.0  0.64264  0.02197  0.34353  1.0000
  Fe  Fe107     1.0  0.65843  0.29303  0.52889  1.0000
  H   H1215     1.0  0.91203  0.34534  0.44014  1.0000
  C   C1511     1.0  0.92335  0.07510  0.33416  1.0000
  H   H1216     1.0  0.67017  0.01556  0.44357  1.0000
  C   C1512     1.0  0.54679  0.42516  0.40993  1.0000
  S   S211      1.0  0.77572  0.29205  0.47117  1.0000
  H   H1217     1.0  0.58288  0.04448  0.40635  1.0000
  C   C1513     1.0  0.95006  0.18424  0.39947  1.0000
  C   C1514     1.0  0.82223  0.21672  0.52500  1.0000
  H   H1218     1.0  0.79698  0.20511  0.33925  1.0000
  H   H1219     1.0  0.76318  0.43193  0.45411  1.0000
  C   C1515     1.0  0.79327  0.37709  0.45852  1.0000
  H   H1220     1.0  0.95357  0.18428  0.48321  1.0000
  H   H1221     1.0  0.61734  0.00158  0.37023  1.0000
  C   C1516     1.0  0.81351  0.07302  0.40882  1.0000
  H   H1222     1.0  0.87952  0.02776  0.44767  1.0000
  C   C1517     1.0  0.70907  0.04657  0.37944  1.0000
  C   C1518     1.0  0.48008  0.10402  0.31792  1.0000
  H   H1223     1.0  0.73627  0.23242  0.35193  1.0000
  Fe  Fe108     1.0  0.49618  0.24647  0.39041  1.0000
  H   H1224     1.0  0.87755  0.25076  0.47708  1.0000
  C   C1519     1.0  0.51911  0.09614  0.47687  1.0000
  H   H1225     1.0  0.80067  0.05055  0.43588  1.0000
  C   C1520     1.0  0.73854  0.30909  0.35809  1.0000
  C   C1521     1.0  0.81013  0.31799  0.38415  1.0000
  H   H1226     1.0  0.76727  0.15752  0.40575  1.0000
  H   H1227     1.0  0.52542  0.02981  0.33450  1.0000
  H   H1228     1.0  0.70398  0.06796  0.38154  1.0000
  C   C1522     1.0  0.63593  0.41553  0.33999  1.0000
  H   H1229     1.0  0.52147  0.13687  0.52705  1.0000
  C   C1523     1.0  0.53523  0.21415  0.48032  1.0000
  C   C1524     1.0  0.83580  0.47089  0.47007  1.0000
  H   H1230     1.0  0.90196  0.26515  0.52772  1.0000
  H   H1231     1.0  0.76192  0.99086  0.49621  1.0000
  H   H1232     1.0  0.83848  0.33843  0.31629  1.0000
  C   C1525     1.0  0.52712  0.31646  0.45867  1.0000
  C   C1526     1.0  0.95772  0.36679  0.37971  1.0000
  H   H1233     1.0  0.94605  0.09535  0.40074  1.0000
  H   H1234     1.0  0.68061  0.11532  0.42849  1.0000
  C   C1527     1.0  0.73669  0.42317  0.47911  1.0000
  C   C1528     1.0  0.91810  0.15048  0.54729  1.0000
  H   H1235     1.0  0.76265  0.06118  0.41138  1.0000
  H   H1236     1.0  0.85293  0.42020  0.51567  1.0000
  H   H1237     1.0  0.53981  0.35489  0.40560  1.0000
  C   C1529     1.0  0.81283  0.17853  0.41875  1.0000
  H   H1238     1.0  0.82873  0.08837  0.47797  1.0000
  C   C1530     1.0  0.80550  0.29733  0.41990  1.0000
  C   C1531     1.0  0.83281  0.06756  0.48748  1.0000
  H   H1239     1.0  0.57290  0.13875  0.43012  1.0000
  H   H1240     1.0  0.61257  0.38983  0.46033  1.0000
  H   H1241     1.0  0.75408  0.22358  0.45494  1.0000
  H   H1242     1.0  0.78116  0.39128  0.41008  1.0000
  C   C1532     1.0  0.82667  0.28210  0.41512  1.0000
  C   C1533     1.0  0.69087  0.48012  0.41096  1.0000
  C   C1534     1.0  0.58858  0.36985  0.45974  1.0000
  C   C1535     1.0  0.85536  0.05965  0.45732  1.0000
  H   H1243     1.0  0.56904  0.20759  0.50353  1.0000
  H   H1244     1.0  0.82038  0.13389  0.49227  1.0000
  C   C1536     1.0  0.52628  0.43751  0.36126  1.0000
  H   H1245     1.0  0.95086  0.20892  0.39974  1.0000
  H   H1246     1.0  0.63135  0.05241  0.45722  1.0000
  H   H1247     1.0  0.66557  0.16248  0.43462  1.0000
  H   H1248     1.0  0.50669  0.44097  0.35548  1.0000
  C   C1537     1.0  0.49501  0.12361  0.43002  1.0000
  H   H1249     1.0  0.67286  0.43343  0.39202  1.0000
  C   C1538     1.0  0.62632  0.38291  0.33238  1.0000
  C   C1539     1.0  0.68437  0.37982  0.41738  1.0000
  C   C1540     1.0  0.58001  0.10638  0.34745  1.0000
  H   H1250     1.0  0.84477  0.42205  0.35440  1.0000
  H   H1251     1.0  0.54264  0.41874  0.44178  1.0000
  C   C1541     1.0  0.92702  0.17262  0.50978  1.0000
  S   S212      1.0  0.88077  0.22352  0.31879  1.0000
  H   H1252     1.0  0.90811  0.19590  0.47703  1.0000
  C   C1542     1.0  0.49734  0.01244  0.50024  1.0000
  C   C1543     1.0  0.79530  0.46480  0.53986  1.0000
  C   C1544     1.0  0.86125  0.03334  0.47038  1.0000
  C   C1545     1.0  0.70975  0.38697  0.49599  1.0000
  S   S213      1.0  0.71826  0.08586  0.45949  1.0000
  H   H1253     1.0  0.71519  0.36791  0.48341  1.0000
  H   H1254     1.0  0.60228  0.14636  0.47099  1.0000
  H   H1255     1.0  0.89235  0.42496  0.37029  1.0000
  C   C1546     1.0  0.86495  0.41113  0.39538  1.0000
  C   C1547     1.0  0.46994  0.09421  0.46598  1.0000
  C   C1548     1.0  0.60811  0.12560  0.46635  1.0000
  H   H1256     1.0  0.77040  0.22892  0.51270  1.0000
  H   H1257     1.0  0.68008  0.11219  0.51623  1.0000
  H   H1258     1.0  0.87101  0.47429  0.53659  1.0000
  H   H1259     1.0  0.70943  0.16554  0.45642  1.0000
  Fe  Fe109     1.0  0.68691  0.04246  0.52070  1.0000
  H   H1260     1.0  0.63626  0.34491  0.47537  1.0000
  H   H1261     1.0  0.59069  0.13458  0.33850  1.0000
  C   C1549     1.0  0.88079  0.44207  0.49845  1.0000
  C   C1550     1.0  0.66653  0.32056  0.38929  1.0000
  H   H1262     1.0  0.55675  0.23826  0.37708  1.0000
  C   C1551     1.0  0.69543  0.43629  0.52843  1.0000
  C   C1552     1.0  0.57734  0.42916  0.37659  1.0000
  H   H1263     1.0  0.47066  0.33706  0.47681  1.0000
  C   C1553     1.0  0.82806  0.30022  0.53556  1.0000
  C   C1554     1.0  0.59012  0.23076  0.40049  1.0000
  Fe  Fe110     1.0  0.48214  0.29936  0.35332  1.0000
  H   H1264     1.0  0.94857  0.44867  0.36550  1.0000
  H   H1265     1.0  0.60585  0.44191  0.30896  1.0000
  C   C1555     1.0  0.58849  0.06360  0.47757  1.0000
  C   C1556     1.0  0.90138  0.17903  0.50621  1.0000
  C   C1557     1.0  0.53205  0.13926  0.41735  1.0000
  S   S214      1.0  0.95174  0.22551  0.31764  1.0000
  H   H1266     1.0  0.48690  0.38113  0.51457  1.0000
  C   C1558     1.0  0.55924  0.23137  0.40472  1.0000
  C   C1559     1.0  0.88937  0.06015  0.36931  1.0000
  H   H1267     1.0  0.61130  0.23711  0.36958  1.0000
  C   C1560     1.0  0.53712  0.30951  0.48883  1.0000
  C   C1561     1.0  0.87086  0.36266  0.49633  1.0000
  C   C1562     1.0  0.85940  0.23962  0.51057  1.0000
  P   P48       1.0  0.89137  0.39933  0.45012  1.0000
  C   C1563     1.0  0.47390  0.06301  0.37338  1.0000
  H   H1268     1.0  0.60800  0.10952  0.38423  1.0000
  S   S215      1.0  0.53065  0.30505  0.35810  1.0000
  H   H1269     1.0  0.69181  0.40251  0.42879  1.0000
  S   S216      1.0  0.51414  0.23313  0.33053  1.0000
  C   C1564     1.0  0.74299  0.02215  0.34016  1.0000
  C   C1565     1.0  0.86150  0.02613  0.37603  1.0000
  H   H1270     1.0  0.94492  0.10178  0.32730  1.0000
  C   C1566     1.0  0.86677  0.16325  0.54006  1.0000
  H   H1271     1.0  0.54268  0.00547  0.38031  1.0000
  H   H1272     1.0  0.48456  0.05046  0.38656  1.0000
  H   H1273     1.0  0.86635  0.27338  0.37198  1.0000
  C   C1567     1.0  0.83509  0.32254  0.34382  1.0000
  C   C1568     1.0  0.82022  0.37875  0.46812  1.0000
  C   C1569     1.0  0.78939  0.20781  0.31475  1.0000
  C   C1570     1.0  0.73614  0.25625  0.34351  1.0000
  H   H1274     1.0  0.67366  0.47212  0.31322  1.0000
  C   C1571     1.0  0.66629  0.44661  0.30835  1.0000
  S   S217      1.0  0.93941  0.29003  0.33634  1.0000
  C   C1572     1.0  0.63148  0.48076  0.41010  1.0000
  C   C1573     1.0  0.94723  0.12027  0.39968  1.0000
  H   H1275     1.0  0.76319  0.02467  0.31069  1.0000
  H   H1276     1.0  0.85728  0.15142  0.31017  1.0000
  C   C1574     1.0  0.80951  0.00501  0.31191  1.0000
  C   C1575     1.0  0.73680  0.17273  0.54600  1.0000
  C   C1576     1.0  0.87312  0.24767  0.53908  1.0000
  H   H1277     1.0  0.49016  0.41020  0.31125  1.0000
  H   H1278     1.0  0.80798  0.27425  0.53769  1.0000
  C   C1577     1.0  0.72552  0.99328  0.37622  1.0000
  C   C1578     1.0  0.71061  0.14001  0.54705  1.0000
  C   C1579     1.0  0.69768  0.99001  0.41288  1.0000
  C   C1580     1.0  0.46643  0.37673  0.50473  1.0000
  P   P49       1.0  0.54182  0.10071  0.30144  1.0000
  C   C1581     1.0  0.92466  0.98853  0.37257  1.0000
  H   H1279     1.0  0.93820  0.14551  0.54942  1.0000
  C   C1582     1.0  0.47516  0.38967  0.30059  1.0000
  H   H1280     1.0  0.46067  0.14543  0.51179  1.0000
  H   H1281     1.0  0.75300  0.75136  0.70318  1.0000
  H   H1282     1.0  0.74576  0.64507  0.65917  1.0000
  H   H1283     1.0  0.51136  0.78074  0.63676  1.0000
  H   H1284     1.0  0.59905  0.89254  0.67927  1.0000
  H   H1285     1.0  0.73454  0.88797  0.65414  1.0000
  H   H1286     1.0  0.62511  0.82236  0.73019  1.0000
  C   C1583     1.0  0.58512  0.63021  0.70219  1.0000
  P   P50       1.0  0.67101  0.58241  0.69973  1.0000
  S   S218      1.0  0.84913  0.90837  0.73892  1.0000
  H   H1287     1.0  0.85226  0.53124  0.75265  1.0000
  C   C1584     1.0  0.51928  0.85421  0.68260  1.0000
  C   C1585     1.0  0.46636  0.85853  0.69637  1.0000
  C   C1586     1.0  0.78435  0.77620  0.63665  1.0000
  H   H1288     1.0  0.81743  0.80341  0.77835  1.0000
  C   C1587     1.0  0.83605  0.56908  0.70951  1.0000
  C   C1588     1.0  0.91022  0.56260  0.72873  1.0000
  C   C1589     1.0  0.76555  0.82718  0.64989  1.0000
  C   C1590     1.0  0.61034  0.85828  0.71021  1.0000
  C   C1591     1.0  0.84788  0.92653  0.56091  1.0000
  C   C1592     1.0  0.84229  0.74806  0.55710  1.0000
  P   P51       1.0  0.72569  0.79603  0.73677  1.0000
  C   C1593     1.0  0.67860  0.76791  0.74965  1.0000
  C   C1594     1.0  0.79715  0.80458  0.60282  1.0000
  C   C1595     1.0  0.71300  0.56279  0.72082  1.0000
  S   S219      1.0  0.75292  0.66473  0.75228  1.0000
  S   S220      1.0  0.85813  0.70250  0.68036  1.0000
  H   H1289     1.0  0.51500  0.88377  0.63687  1.0000
  H   H1290     1.0  0.85245  0.88064  0.63472  1.0000
  C   C1596     1.0  0.52438  0.97205  0.58562  1.0000
  H   H1291     1.0  0.67559  0.89871  0.71152  1.0000
  H   H1292     1.0  0.66864  0.60770  0.62274  1.0000
  C   C1597     1.0  0.87345  0.81717  0.63214  1.0000
  H   H1293     1.0  0.63565  0.83481  0.60614  1.0000
  C   C1598     1.0  0.53623  0.71027  0.69447  1.0000
  C   C1599     1.0  0.63130  0.74620  0.72791  1.0000
  P   P52       1.0  0.59659  0.86687  0.75997  1.0000
  H   H1294     1.0  0.46166  0.62679  0.66987  1.0000
  C   C1600     1.0  0.77597  0.80076  0.76327  1.0000
  H   H1295     1.0  0.88779  0.86366  0.71349  1.0000
  C   C1601     1.0  0.74080  0.77927  0.76813  1.0000
  C   C1602     1.0  0.63475  0.90011  0.76407  1.0000
  C   C1603     1.0  0.52494  0.63783  0.73750  1.0000
  Fe  Fe111     1.0  0.86745  0.66165  0.70527  1.0000
  C   C1604     1.0  0.73368  0.83853  0.74265  1.0000
  H   H1296     1.0  0.86446  0.79139  0.65123  1.0000
  C   C1605     1.0  0.67487  0.62846  0.63723  1.0000
  C   C1606     1.0  0.67029  0.91005  0.73669  1.0000
  H   H1297     1.0  0.91823  0.81980  0.58232  1.0000
  H   H1298     1.0  0.50447  0.92142  0.77616  1.0000
  H   H1299     1.0  0.69360  0.72605  0.79609  1.0000
  H   H1300     1.0  0.64026  0.80734  0.66447  1.0000
  C   C1607     1.0  0.71271  0.92909  0.57700  1.0000
  C   C1608     1.0  0.82186  0.94959  0.61336  1.0000
  C   C1609     1.0  0.87655  0.95077  0.60363  1.0000
  H   H1301     1.0  0.52104  0.87377  0.55776  1.0000
  H   H1302     1.0  0.75777  0.84662  0.65422  1.0000
  C   C1610     1.0  0.48465  0.67863  0.62917  1.0000
  C   C1611     1.0  0.53347  0.69529  0.56009  1.0000
  H   H1303     1.0  0.91423  0.58181  0.70365  1.0000
  C   C1612     1.0  0.89857  0.51458  0.79654  1.0000
  H   H1304     1.0  0.70493  0.88397  0.55453  1.0000
  H   H1305     1.0  0.53186  0.79678  0.78608  1.0000
  C   C1613     1.0  0.84987  0.95841  0.62398  1.0000
  Fe  Fe112     1.0  0.62596  0.96609  0.56851  1.0000
  C   C1614     1.0  0.50246  0.83313  0.72411  1.0000
  C   C1615     1.0  0.61667  0.86521  0.63946  1.0000
  H   H1306     1.0  0.80207  0.65414  0.65750  1.0000
  H   H1307     1.0  0.80723  0.62026  0.56849  1.0000
  H   H1308     1.0  0.60795  0.62669  0.68924  1.0000
  H   H1309     1.0  0.79287  0.82811  0.74398  1.0000
  H   H1310     1.0  0.80661  0.69471  0.59919  1.0000
  C   C1616     1.0  0.71999  0.74384  0.79319  1.0000
  C   C1617     1.0  0.62784  0.84086  0.63531  1.0000
  C   C1618     1.0  0.53314  0.76303  0.69644  1.0000
  C   C1619     1.0  0.74542  0.56823  0.71919  1.0000
  H   H1311     1.0  0.80890  0.51242  0.55714  1.0000
  C   C1620     1.0  0.88989  0.55557  0.55093  1.0000
  C   C1621     1.0  0.50135  0.86688  0.66889  1.0000
  C   C1622     1.0  0.78765  0.82995  0.60942  1.0000
  H   H1312     1.0  0.48291  0.93454  0.70651  1.0000
  C   C1623     1.0  0.60014  0.55937  0.75658  1.0000
  H   H1313     1.0  0.71587  0.58200  0.61847  1.0000
  S   S221      1.0  0.91013  0.91590  0.76770  1.0000
  C   C1624     1.0  0.72317  0.94691  0.60405  1.0000
  C   C1625     1.0  0.47611  0.74523  0.61463  1.0000
  C   C1626     1.0  0.90646  0.56572  0.57668  1.0000
  C   C1627     1.0  0.77727  0.62851  0.67465  1.0000
  C   C1628     1.0  0.90777  0.82889  0.69753  1.0000
  S   S222      1.0  0.94045  0.93061  0.64725  1.0000
  H   H1314     1.0  0.85077  0.97089  0.64833  1.0000
  H   H1315     1.0  0.56748  0.61470  0.65611  1.0000
  C   C1629     1.0  0.55879  0.93168  0.74468  1.0000
  Fe  Fe113     1.0  0.86036  0.96074  0.74872  1.0000
  C   C1630     1.0  0.76857  0.86879  0.72025  1.0000
  H   H1316     1.0  0.46216  0.78092  0.69479  1.0000
  H   H1317     1.0  0.67865  0.81854  0.79055  1.0000
  C   C1631     1.0  0.47984  0.92331  0.65042  1.0000
  C   C1632     1.0  0.66805  0.76536  0.71773  1.0000
  C   C1633     1.0  0.65179  0.75174  0.79172  1.0000
  H   H1318     1.0  0.86411  0.60306  0.60614  1.0000
  S   S223      1.0  0.83379  0.98552  0.72895  1.0000
  C   C1634     1.0  0.52243  0.98011  0.65172  1.0000
  C   C1635     1.0  0.89735  0.88388  0.58205  1.0000
  H   H1319     1.0  0.54450  0.65494  0.78196  1.0000
  H   H1320     1.0  0.68806  0.77862  0.68497  1.0000
  H   H1321     1.0  0.94373  0.86318  0.74723  1.0000
  C   C1636     1.0  0.69274  0.94848  0.77546  1.0000
  H   H1322     1.0  0.70522  0.93984  0.55674  1.0000
  H   H1323     1.0  0.57643  0.71562  0.77808  1.0000
  C   C1637     1.0  0.69153  0.68330  0.67315  1.0000
  C   C1638     1.0  0.62220  0.83427  0.70536  1.0000
  H   H1324     1.0  0.69854  0.70467  0.68676  1.0000
  C   C1639     1.0  0.90386  0.83322  0.59284  1.0000
  H   H1325     1.0  0.79195  0.75664  0.63148  1.0000
  H   H1326     1.0  0.74040  0.94615  0.65131  1.0000
  C   C1640     1.0  0.85624  0.59354  0.66946  1.0000
  C   C1641     1.0  0.72903  0.89960  0.63202  1.0000
  C   C1642     1.0  0.86937  0.51078  0.79028  1.0000
  C   C1643     1.0  0.86725  0.86797  0.62231  1.0000
  H   H1327     1.0  0.75379  0.92817  0.76418  1.0000
  C   C1644     1.0  0.48394  0.76531  0.64126  1.0000
  C   C1645     1.0  0.87599  0.93519  0.57157  1.0000
  C   C1646     1.0  0.87524  0.53445  0.75641  1.0000
  S   S224      1.0  0.58454  0.91484  0.56802  1.0000
  H   H1328     1.0  0.60729  0.51167  0.71944  1.0000
  C   C1647     1.0  0.49385  0.94496  0.67280  1.0000
  C   C1648     1.0  0.93750  0.88981  0.65513  1.0000
  C   C1649     1.0  0.74783  0.90338  0.75748  1.0000
  P   P53       1.0  0.51161  0.74374  0.57281  1.0000
  H   H1329     1.0  0.89814  0.54621  0.60472  1.0000
  H   H1330     1.0  0.51658  0.82390  0.73511  1.0000
  C   C1650     1.0  0.78202  0.70808  0.56572  1.0000
  P   P54       1.0  0.48791  0.64538  0.75910  1.0000
  H   H1331     1.0  0.83227  0.82246  0.67795  1.0000
  C   C1651     1.0  0.68943  0.68836  0.63570  1.0000
  C   C1652     1.0  0.82077  0.93346  0.58198  1.0000
  H   H1332     1.0  0.70622  0.53731  0.58099  1.0000
  C   C1653     1.0  0.71243  0.89741  0.57587  1.0000
  Fe  Fe114     1.0  0.90906  0.93363  0.70871  1.0000
  H   H1333     1.0  0.66582  0.57203  0.78502  1.0000
  H   H1334     1.0  0.67980  0.66517  0.58857  1.0000
  S   S225      1.0  0.71709  0.84148  0.60654  1.0000
  H   H1335     1.0  0.72666  0.94233  0.72098  1.0000
  H   H1336     1.0  0.59561  0.56145  0.72941  1.0000
  C   C1654     1.0  0.74498  0.62325  0.67615  1.0000
  C   C1655     1.0  0.62876  0.51839  0.68865  1.0000
  H   H1337     1.0  0.79082  0.86748  0.69792  1.0000
  C   C1656     1.0  0.68971  0.55758  0.63193  1.0000
  S   S226      1.0  0.81544  0.63562  0.76571  1.0000
  C   C1657     1.0  0.48771  0.70826  0.75344  1.0000
  H   H1338     1.0  0.81442  0.80689  0.57154  1.0000
  C   C1658     1.0  0.56215  0.62328  0.68377  1.0000
  C   C1659     1.0  0.77543  0.90097  0.72759  1.0000
  H   H1339     1.0  0.75725  0.68239  0.58043  1.0000
  C   C1660     1.0  0.95945  0.73129  0.57697  1.0000
  H   H1340     1.0  0.90666  0.60499  0.78083  1.0000
  H   H1341     1.0  0.68840  0.53703  0.73844  1.0000
  H   H1342     1.0  0.80254  0.92378  0.71098  1.0000
  C   C1661     1.0  0.71276  0.87370  0.77899  1.0000
  C   C1662     1.0  0.90898  0.86112  0.69100  1.0000
  H   H1343     1.0  0.46374  0.69410  0.78363  1.0000
  H   H1344     1.0  0.48624  0.92065  0.58827  1.0000
  C   C1663     1.0  0.58137  0.91840  0.74155  1.0000
  H   H1345     1.0  0.84141  0.57686  0.73492  1.0000
  H   H1346     1.0  0.48802  0.75688  0.75057  1.0000
  Fe  Fe115     1.0  0.91669  0.96709  0.77671  1.0000
  H   H1347     1.0  0.74586  0.54700  0.73556  1.0000
  C   C1664     1.0  0.69922  0.93453  0.74216  1.0000
  H   H1348     1.0  0.58151  0.75339  0.56494  1.0000
  C   C1665     1.0  0.53155  0.66330  0.57106  1.0000
  C   C1666     1.0  0.57870  0.64186  0.73741  1.0000
  C   C1667     1.0  0.85540  0.83473  0.64710  1.0000
  C   C1668     1.0  0.66191  0.55086  0.67107  1.0000
  C   C1669     1.0  0.54902  0.64605  0.75460  1.0000
  C   C1670     1.0  0.60487  0.73001  0.76997  1.0000
  C   C1671     1.0  0.82104  0.54933  0.64433  1.0000
  C   C1672     1.0  0.67752  0.62343  0.67450  1.0000
  H   H1349     1.0  0.51533  0.62272  0.68597  1.0000
  H   H1350     1.0  0.68808  0.64767  0.72113  1.0000
  S   S227      1.0  0.93888  0.78892  0.67868  1.0000
  H   H1351     1.0  0.59640  0.64730  0.75192  1.0000
  C   C1673     1.0  0.46763  0.82464  0.75183  1.0000
  C   C1674     1.0  0.55028  0.74611  0.67608  1.0000
  H   H1352     1.0  0.61532  0.87785  0.61354  1.0000
  H   H1353     1.0  0.54934  0.55170  0.58603  1.0000
  C   C1675     1.0  0.63057  0.82541  0.66822  1.0000
  H   H1354     1.0  0.69526  0.71383  0.61991  1.0000
  C   C1676     1.0  0.80924  0.53439  0.71664  1.0000
  H   H1355     1.0  0.71508  0.96733  0.77986  1.0000
  C   C1677     1.0  0.62338  0.49330  0.66715  1.0000
  H   H1356     1.0  0.80093  0.95503  0.62974  1.0000
  Fe  Fe116     1.0  0.88797  0.73578  0.71172  1.0000
  C   C1678     1.0  0.75330  0.79930  0.68419  1.0000
  H   H1357     1.0  0.95667  0.54684  0.77318  1.0000
  H   H1358     1.0  0.56258  0.50682  0.56213  1.0000
  H   H1359     1.0  0.93935  0.74285  0.63402  1.0000
  H   H1360     1.0  0.89733  0.95639  0.61338  1.0000
  H   H1361     1.0  0.80221  0.60583  0.69636  1.0000
  H   H1362     1.0  0.54646  0.86144  0.66096  1.0000
  C   C1679     1.0  0.49563  0.93697  0.60657  1.0000
  C   C1680     1.0  0.68435  0.53232  0.61065  1.0000
  H   H1363     1.0  0.57474  0.76091  0.64629  1.0000
  C   C1681     1.0  0.56706  0.88393  0.76614  1.0000
  C   C1682     1.0  0.68551  0.65094  0.69257  1.0000
  C   C1683     1.0  0.52199  0.91109  0.77340  1.0000
  C   C1684     1.0  0.76241  0.77347  0.67728  1.0000
  H   H1364     1.0  0.94237  0.60957  0.58987  1.0000
  C   C1685     1.0  0.60781  0.87381  0.67684  1.0000
  S   S228      1.0  0.89018  0.63660  0.66030  1.0000
  C   C1686     1.0  0.50563  0.63857  0.61067  1.0000
  C   C1687     1.0  0.63419  0.56697  0.75189  1.0000
  C   C1688     1.0  0.72000  0.88236  0.60401  1.0000
  C   C1689     1.0  0.91568  0.86625  0.56760  1.0000
  H   H1365     1.0  0.46291  0.83157  0.63019  1.0000
  H   H1366     1.0  0.79693  0.85159  0.58322  1.0000
  C   C1690     1.0  0.93953  0.56671  0.73478  1.0000
  C   C1691     1.0  0.84885  0.58371  0.63683  1.0000
  C   C1692     1.0  0.63957  0.56503  0.78762  1.0000
  C   C1693     1.0  0.48216  0.64622  0.63957  1.0000
  C   C1694     1.0  0.51025  0.70335  0.58909  1.0000
  C   C1695     1.0  0.80101  0.52466  0.68447  1.0000
  C   C1696     1.0  0.65118  0.50018  0.62828  1.0000
  C   C1697     1.0  0.70570  0.84134  0.77187  1.0000
  H   H1367     1.0  0.86593  0.62813  0.79334  1.0000
  H   H1368     1.0  0.79527  0.51511  0.74703  1.0000
  C   C1698     1.0  0.50161  0.74397  0.73482  1.0000
  H   H1369     1.0  0.79908  0.92647  0.57363  1.0000
  S   S229      1.0  0.92064  0.98682  0.71471  1.0000
  S   S230      1.0  0.89989  0.69622  0.73320  1.0000
  C   C1699     1.0  0.53237  0.62745  0.70106  1.0000
  H   H1370     1.0  0.54429  0.79092  0.68256  1.0000
  H   H1371     1.0  0.81467  0.54206  0.61937  1.0000
  C   C1700     1.0  0.68080  0.66086  0.61797  1.0000
  Fe  Fe117     1.0  0.84735  0.67422  0.79133  1.0000
  H   H1372     1.0  0.55019  0.69790  0.67819  1.0000
  H   H1373     1.0  0.62337  0.74427  0.70319  1.0000
  Fe  Fe118     1.0  0.80854  0.67926  0.74293  1.0000
  H   H1374     1.0  0.88605  0.80676  0.72533  1.0000
  H   H1375     1.0  0.50356  0.61340  0.61888  1.0000
  C   C1701     1.0  0.50500  0.69112  0.73368  1.0000
  C   C1702     1.0  0.71241  0.59054  0.70000  1.0000
  C   C1703     1.0  0.79025  0.78677  0.78244  1.0000
  H   H1376     1.0  0.46619  0.68391  0.65222  1.0000
  C   C1704     1.0  0.73207  0.93241  0.63073  1.0000
  H   H1377     1.0  0.61001  0.93500  0.71966  1.0000
  C   C1705     1.0  0.77738  0.60119  0.69656  1.0000
  H   H1378     1.0  0.53649  0.98228  0.55180  1.0000
  S   S231      1.0  0.83788  0.71664  0.77204  1.0000
  C   C1706     1.0  0.55557  0.78231  0.55850  1.0000
  H   H1379     1.0  0.56986  0.95811  0.72518  1.0000
  S   S232      1.0  0.72660  0.98777  0.60476  1.0000
  S   S233      1.0  0.87750  0.75541  0.56934  1.0000
  S   S234      1.0  0.63065  0.96901  0.62757  1.0000
  H   H1380     1.0  0.86935  0.52809  0.55927  1.0000
  C   C1707     1.0  0.93562  0.82597  0.66863  1.0000
  C   C1708     1.0  0.80986  0.71505  0.57643  1.0000
  C   C1709     1.0  0.93147  0.60139  0.56832  1.0000
  C   C1710     1.0  0.58456  0.77893  0.55680  1.0000
  H   H1381     1.0  0.94067  0.73330  0.56764  1.0000
  C   C1711     1.0  0.93381  0.54261  0.76838  1.0000
  C   C1712     1.0  0.62847  0.91458  0.79708  1.0000
  C   C1713     1.0  0.57159  0.54885  0.79643  1.0000
  H   H1382     1.0  0.46356  0.68430  0.55373  1.0000
  C   C1714     1.0  0.95887  0.73697  0.61454  1.0000
  H   H1383     1.0  0.95755  0.81562  0.74599  1.0000
  H   H1384     1.0  0.67628  0.63713  0.79753  1.0000
  Fe  Fe119     1.0  0.85059  0.89528  0.79928  1.0000
  C   C1715     1.0  0.53032  0.86391  0.79581  1.0000
  C   C1716     1.0  0.50800  0.87753  0.79938  1.0000
  C   C1717     1.0  0.56448  0.55626  0.55278  1.0000
  H   H1385     1.0  0.46061  0.57374  0.74961  1.0000
  C   C1718     1.0  0.57674  0.82558  0.79934  1.0000
  H   H1386     1.0  0.53931  0.81998  0.55015  1.0000
  H   H1387     1.0  0.69887  0.73041  0.99945  1.0000
  C   C1719     1.0  0.55082  0.75936  0.85261  1.0000
  C   C1720     1.0  0.70589  0.63198  0.02106  1.0000
  C   C1721     1.0  0.73363  0.73062  0.81418  1.0000
  C   C1722     1.0  0.59914  0.52543  0.04071  1.0000
  C   C1723     1.0  0.79638  0.83822  0.98470  1.0000
  H   H1388     1.0  0.78175  0.63381  0.95605  1.0000
  H   H1389     1.0  0.75214  0.77086  0.88260  1.0000
  Fe  Fe120     1.0  0.61780  0.72171  0.91422  1.0000
  H   H1390     1.0  0.62611  0.93646  0.90632  1.0000
  S   S235      1.0  0.55871  0.69256  0.93234  1.0000
  C   C1724     1.0  0.47633  0.65612  0.87483  1.0000
  C   C1725     1.0  0.75718  0.62573  0.98443  1.0000
  C   C1726     1.0  0.89455  0.97671  0.93693  1.0000
  C   C1727     1.0  0.57938  0.87272  0.00054  1.0000
  H   H1391     1.0  0.86134  0.53136  0.86128  1.0000
  C   C1728     1.0  0.46821  0.64664  0.01716  1.0000
  H   H1392     1.0  0.92176  0.74837  0.83278  1.0000
  Fe  Fe121     1.0  0.55155  0.65892  0.98901  1.0000
  H   H1393     1.0  0.57016  0.94956  0.93397  1.0000
  H   H1394     1.0  0.73399  0.98577  0.98585  1.0000
  C   C1729     1.0  0.68257  0.56108  0.95596  1.0000
  C   C1730     1.0  0.72336  0.65056  0.80614  1.0000
  H   H1395     1.0  0.91249  0.71599  0.03503  1.0000
  C   C1731     1.0  0.75744  0.84795  0.84940  1.0000
  S   S236      1.0  0.54536  0.81163  0.93263  1.0000
  H   H1396     1.0  0.55699  0.55925  0.92360  1.0000
  H   H1397     1.0  0.63605  0.62375  0.87274  1.0000
  C   C1732     1.0  0.67940  0.89514  0.88105  1.0000
  H   H1398     1.0  0.84181  0.48990  0.81220  1.0000
  H   H1399     1.0  0.49900  0.50186  0.95016  1.0000
  C   C1733     1.0  0.83729  0.59019  0.99088  1.0000
  H   H1400     1.0  0.71213  0.85196  0.85348  1.0000
  H   H1401     1.0  0.52353  0.71649  0.00735  1.0000
  H   H1402     1.0  0.94330  0.91837  0.86188  1.0000
  C   C1734     1.0  0.72107  0.83425  0.85888  1.0000
  H   H1403     1.0  0.80927  0.95269  0.97824  1.0000
  C   C1735     1.0  0.95607  0.51351  0.84216  1.0000
  H   H1404     1.0  0.59391  0.95003  0.86040  1.0000
  H   H1405     1.0  0.85929  0.78265  0.98839  1.0000
  C   C1736     1.0  0.79519  0.95974  0.96477  1.0000
  H   H1406     1.0  0.49904  0.97951  0.92892  1.0000
  H   H1407     1.0  0.46766  0.86098  0.99429  1.0000
  H   H1408     1.0  0.77963  0.74074  0.82357  1.0000
  C   C1737     1.0  0.85459  0.88059  0.01896  1.0000
  H   H1409     1.0  0.73217  0.87164  0.98657  1.0000
  C   C1738     1.0  0.81434  0.60354  0.00035  1.0000
  C   C1739     1.0  0.58203  0.78922  0.84785  1.0000
  C   C1740     1.0  0.51566  0.93026  0.94353  1.0000
  C   C1741     1.0  0.84301  0.84495  0.02220  1.0000
  P   P55       1.0  0.49944  0.93494  0.99526  1.0000
  H   H1410     1.0  0.60840  0.81274  0.94147  1.0000
  C   C1742     1.0  0.63346  0.83731  0.93206  1.0000
  C   C1743     1.0  0.53355  0.73540  0.02299  1.0000
  H   H1411     1.0  0.76474  0.66143  0.82512  1.0000
  C   C1744     1.0  0.77202  0.97081  0.98740  1.0000
  C   C1745     1.0  0.86475  0.66057  0.99006  1.0000
  H   H1412     1.0  0.89132  0.60122  0.97333  1.0000
  H   H1413     1.0  0.82659  0.56280  0.99208  1.0000
  H   H1414     1.0  0.68974  0.91505  0.85236  1.0000
  H   H1415     1.0  0.85399  0.92871  0.93509  1.0000
  C   C1746     1.0  0.47215  0.63654  0.81521  1.0000
  H   H1416     1.0  0.81241  0.59048  0.92680  1.0000
  H   H1417     1.0  0.65927  0.75468  0.81676  1.0000
  Fe  Fe122     1.0  0.48758  0.78193  0.94477  1.0000
  C   C1747     1.0  0.89495  0.87740  0.91675  1.0000
  H   H1418     1.0  0.54044  0.73414  0.87411  1.0000
  H   H1419     1.0  0.58855  0.88564  0.88835  1.0000
  C   C1748     1.0  0.91573  0.87097  0.84727  1.0000
  H   H1420     1.0  0.63470  0.52524  0.90331  1.0000
  Fe  Fe123     1.0  0.56891  0.65477  0.90098  1.0000
  H   H1421     1.0  0.47983  0.86208  0.82256  1.0000
  S   S237      1.0  0.81377  0.84173  0.84751  1.0000
  S   S238      1.0  0.85678  0.94571  0.81210  1.0000
  H   H1422     1.0  0.73471  0.79218  0.95256  1.0000
  C   C1749     1.0  0.67807  0.63624  0.89113  1.0000
  H   H1423     1.0  0.55470  0.53832  0.86257  1.0000
  C   C1750     1.0  0.95399  0.89803  0.96653  1.0000
  C   C1751     1.0  0.90303  0.56790  0.03592  1.0000
  H   H1424     1.0  0.93037  0.54072  0.01145  1.0000
  C   C1752     1.0  0.46597  0.53853  0.93531  1.0000
  C   C1753     1.0  0.86368  0.49186  0.95942  1.0000
  C   C1754     1.0  0.50420  0.57384  0.84908  1.0000
  C   C1755     1.0  0.73797  0.64253  0.98513  1.0000
  H   H1425     1.0  0.55321  0.92974  0.82796  1.0000
  H   H1426     1.0  0.63711  0.87732  0.02074  1.0000
  C   C1756     1.0  0.77800  0.70524  0.03080  1.0000
  H   H1427     1.0  0.57755  0.86873  0.03150  1.0000
  C   C1757     1.0  0.59498  0.82217  0.82138  1.0000
  H   H1428     1.0  0.93500  0.51013  0.96005  1.0000
  C   C1758     1.0  0.85967  0.82301  0.90487  1.0000
  C   C1759     1.0  0.75323  0.97860  0.96928  1.0000
  C   C1760     1.0  0.61512  0.73268  0.80181  1.0000
  H   H1429     1.0  0.58064  0.61373  0.02808  1.0000
  H   H1430     1.0  0.47080  0.52458  0.84296  1.0000
  H   H1431     1.0  0.68846  0.74656  0.89683  1.0000
  S   S239      1.0  0.46595  0.72854  0.93503  1.0000
  C   C1761     1.0  0.68608  0.74565  0.00040  1.0000
  S   S240      1.0  0.62876  0.68651  0.87827  1.0000
  S   S241      1.0  0.94526  0.59954  0.82459  1.0000
  C   C1762     1.0  0.87706  0.62761  0.81460  1.0000
  C   C1763     1.0  0.74332  0.84162  0.02294  1.0000
  C   C1764     1.0  0.86212  0.51997  0.88837  1.0000
  P   P56       1.0  0.60780  0.51237  0.99368  1.0000
  C   C1765     1.0  0.65147  0.84399  0.95677  1.0000
  C   C1766     1.0  0.60482  0.90589  0.96984  1.0000
  H   H1432     1.0  0.75084  0.50069  0.03880  1.0000
  H   H1433     1.0  0.50950  0.68979  0.81095  1.0000
  H   H1434     1.0  0.85499  0.89704  0.99459  1.0000
  C   C1767     1.0  0.51960  0.50383  0.95867  1.0000
  H   H1435     1.0  0.69602  0.55845  0.84363  1.0000
  H   H1436     1.0  0.48764  0.90800  0.86988  1.0000
  H   H1437     1.0  0.54425  0.55119  0.03250  1.0000
  H   H1438     1.0  0.51869  0.83795  0.81645  1.0000
  S   S242      1.0  0.65193  0.63358  0.94237  1.0000
  H   H1439     1.0  0.71670  0.70398  0.83521  1.0000
  H   H1440     1.0  0.91405  0.75819  0.96022  1.0000
  C   C1768     1.0  0.64132  0.86530  0.04412  1.0000
  C   C1769     1.0  0.88066  0.95226  0.91728  1.0000
  S   S243      1.0  0.63587  0.94026  0.98022  1.0000
  C   C1770     1.0  0.49226  0.91759  0.92544  1.0000
  C   C1771     1.0  0.65268  0.78477  0.00126  1.0000
  C   C1772     1.0  0.63272  0.74996  0.02839  1.0000
  H   H1441     1.0  0.65226  0.94933  0.82863  1.0000
  C   C1773     1.0  0.88755  0.64705  0.98024  1.0000
  C   C1774     1.0  0.61096  0.55469  0.82746  1.0000
  H   H1442     1.0  0.94120  0.49131  0.04472  1.0000
  C   C1775     1.0  0.55233  0.53607  0.94350  1.0000
  C   C1776     1.0  0.56546  0.94066  0.87866  1.0000
  H   H1443     1.0  0.67959  0.56102  0.98717  1.0000
  C   C1777     1.0  0.58412  0.98089  0.02259  1.0000
  C   C1778     1.0  0.70615  0.78029  0.97364  1.0000
  C   C1779     1.0  0.76867  0.82506  0.85798  1.0000
  C   C1780     1.0  0.48926  0.98682  0.02575  1.0000
  C   C1781     1.0  0.57342  0.50871  0.97955  1.0000
  S   S244      1.0  0.46804  0.80169  0.90636  1.0000
  S   S245      1.0  0.94232  0.61035  0.01249  1.0000
  P   P57       1.0  0.63263  0.81167  0.00655  1.0000
  C   C1782     1.0  0.53048  0.94167  0.01655  1.0000
  H   H1444     1.0  0.89057  0.93879  0.85989  1.0000
  C   C1783     1.0  0.86922  0.64071  0.84852  1.0000
  C   C1784     1.0  0.74996  0.86221  0.98585  1.0000
  C   C1785     1.0  0.90452  0.53783  0.03016  1.0000
  C   C1786     1.0  0.56129  0.84871  0.94975  1.0000
  S   S246      1.0  0.65090  0.78083  0.88694  1.0000
  H   H1445     1.0  0.88043  0.82197  0.84109  1.0000
  H   H1446     1.0  0.70499  0.82576  0.95111  1.0000
  C   C1787     1.0  0.71739  0.57981  0.92173  1.0000
  C   C1788     1.0  0.80190  0.85754  0.94713  1.0000
  H   H1447     1.0  0.60114  0.90709  0.81855  1.0000
  C   C1789     1.0  0.55750  0.84421  0.99049  1.0000
  C   C1790     1.0  0.57915  0.53854  0.95390  1.0000
  C   C1791     1.0  0.82815  0.63883  0.00048  1.0000
  C   C1792     1.0  0.94200  0.79763  0.84716  1.0000
  C   C1793     1.0  0.54240  0.92907  0.86041  1.0000
  C   C1794     1.0  0.49285  0.57470  0.91988  1.0000
  H   H1448     1.0  0.74766  0.66337  0.95756  1.0000
  H   H1449     1.0  0.63610  0.58156  0.00840  1.0000
  H   H1450     1.0  0.89855  0.89407  0.93664  1.0000
  H   H1451     1.0  0.61529  0.55312  0.85487  1.0000
  C   C1795     1.0  0.88245  0.63850  0.87688  1.0000
  C   C1796     1.0  0.56048  0.97559  0.00545  1.0000
  C   C1797     1.0  0.90416  0.62387  0.87071  1.0000
  H   H1452     1.0  0.81074  0.64948  0.00911  1.0000
  C   C1798     1.0  0.75987  0.55191  0.97832  1.0000
  C   C1799     1.0  0.68932  0.79947  0.97324  1.0000
  C   C1800     1.0  0.83036  0.76494  0.00053  1.0000
  C   C1801     1.0  0.58516  0.88233  0.91995  1.0000
  H   H1453     1.0  0.50808  0.73935  0.83475  1.0000
  H   H1454     1.0  0.84262  0.54865  0.92445  1.0000
  H   H1455     1.0  0.74089  0.59477  0.92624  1.0000
  C   C1802     1.0  0.51252  0.59217  0.87656  1.0000
  P   P58       1.0  0.82827  0.82613  0.98545  1.0000
  C   C1803     1.0  0.87382  0.49587  0.88772  1.0000
  H   H1456     1.0  0.59464  0.72015  0.83444  1.0000
  C   C1804     1.0  0.87377  0.61185  0.98066  1.0000
  H   H1457     1.0  0.75310  0.76482  0.01885  1.0000
  C   C1805     1.0  0.81527  0.72839  0.01490  1.0000
  H   H1458     1.0  0.93479  0.88192  0.81420  1.0000
  C   C1806     1.0  0.77081  0.75517  0.01776  1.0000
  S   S247      1.0  0.54776  0.63661  0.85590  1.0000
  C   C1807     1.0  0.92050  0.89131  0.87423  1.0000
  C   C1808     1.0  0.61627  0.56126  0.03835  1.0000
  Fe  Fe124     1.0  0.61677  0.65383  0.93885  1.0000
  H   H1459     1.0  0.70419  0.51116  0.02150  1.0000
  H   H1460     1.0  0.95599  0.92287  0.95627  1.0000
  H   H1461     1.0  0.53940  0.81818  0.01326  1.0000
  H   H1462     1.0  0.48632  0.64474  0.98961  1.0000
  C   C1809     1.0  0.90131  0.75751  0.04685  1.0000
  H   H1463     1.0  0.83523  0.79733  0.91545  1.0000
  C   C1810     1.0  0.75957  0.97780  0.92840  1.0000
  P   P59       1.0  0.94703  0.79325  0.01077  1.0000
  C   C1811     1.0  0.52459  0.91319  0.04489  1.0000
  H   H1464     1.0  0.87534  0.68777  0.98981  1.0000
  C   C1812     1.0  0.78649  0.56704  0.93621  1.0000
  C   C1813     1.0  0.65224  0.54170  0.94971  1.0000
  C   C1814     1.0  0.64938  0.73054  0.02799  1.0000
  C   C1815     1.0  0.72558  0.52252  0.98936  1.0000
  H   H1465     1.0  0.61932  0.84469  0.81825  1.0000
  H   H1466     1.0  0.72705  0.70060  0.04370  1.0000
  H   H1467     1.0  0.60433  0.56377  0.94198  1.0000
  H   H1468     1.0  0.78304  0.88407  0.91859  1.0000
  C   C1816     1.0  0.60673  0.91094  0.93002  1.0000
  H   H1469     1.0  0.59571  0.78699  0.86560  1.0000
  C   C1817     1.0  0.55206  0.94089  0.92021  1.0000
  H   H1470     1.0  0.77660  0.87618  0.83605  1.0000
  C   C1818     1.0  0.90124  0.95818  0.87461  1.0000
  H   H1471     1.0  0.74933  0.59281  0.85512  1.0000
  S   S248      1.0  0.55770  0.61894  0.95884  1.0000
  P   P60       1.0  0.76690  0.57392  0.01641  1.0000
  C   C1819     1.0  0.54584  0.79519  0.80358  1.0000
  C   C1820     1.0  0.58426  0.78274  0.02722  1.0000
  H   H1472     1.0  0.69082  0.64478  0.02146  1.0000
  C   C1821     1.0  0.77877  0.86951  0.94778  1.0000
  C   C1822     1.0  0.80144  0.95888  0.92395  1.0000
  H   H1473     1.0  0.83240  0.71795  0.01385  1.0000
  H   H1474     1.0  0.91311  0.62078  0.89342  1.0000
  C   C1823     1.0  0.88524  0.83697  0.86250  1.0000
  H   H1475     1.0  0.87586  0.64804  0.90349  1.0000
  S   S249      1.0  0.86844  0.96907  0.99017  1.0000
  C   C1824     1.0  0.57697  0.54650  0.83184  1.0000
  P   P61       1.0  0.77034  0.97870  0.03656  1.0000
  C   C1825     1.0  0.70755  0.77482  0.88369  1.0000
  C   C1826     1.0  0.50566  0.91710  0.88393  1.0000
  C   C1827     1.0  0.74394  0.59770  0.01942  1.0000
  C   C1828     1.0  0.68675  0.63907  0.81992  1.0000
  C   C1829     1.0  0.57082  0.75710  0.00836  1.0000
  H   H1476     1.0  0.82027  0.95138  0.90638  1.0000
  C   C1830     1.0  0.86444  0.84298  0.93248  1.0000
  C   C1831     1.0  0.71842  0.50824  0.95862  1.0000
  H   H1477     1.0  0.49810  0.58906  0.94146  1.0000
  H   H1478     1.0  0.58922  0.75442  0.98163  1.0000
  H   H1479     1.0  0.72235  0.92730  0.89466  1.0000
  H   H1480     1.0  0.51893  0.58703  0.81573  1.0000
  C   C1832     1.0  0.76902  0.75159  0.80793  1.0000
  C   C1833     1.0  0.73674  0.65315  0.83531  1.0000
  S   S250      1.0  0.60997  0.69127  0.97351  1.0000
  H   H1481     1.0  0.73902  0.51340  0.89274  1.0000
  C   C1834     1.0  0.75589  0.71862  0.03177  1.0000
  H   H1482     1.0  0.91528  0.79346  0.86473  1.0000
  C   C1835     1.0  0.65734  0.93836  0.80298  1.0000
  C   C1836     1.0  0.80813  0.77865  0.00255  1.0000
  C   C1837     1.0  0.91382  0.61278  0.83545  1.0000
  H   H1483     1.0  0.91585  0.66362  0.97249  1.0000
  H   H1484     1.0  0.54525  0.54252  0.79994  1.0000
  H   H1485     1.0  0.48881  0.67671  0.88735  1.0000
  C   C1838     1.0  0.65743  0.54094  0.90890  1.0000
  C   C1839     1.0  0.76693  0.83040  0.02256  1.0000
  C   C1840     1.0  0.78402  0.96838  0.90554  1.0000
  C   C1841     1.0  0.74505  0.52371  0.91672  1.0000
  C   C1842     1.0  0.72227  0.57855  0.88142  1.0000
  C   C1843     1.0  0.77924  0.55279  0.90555  1.0000
  H   H1486     1.0  0.74569  0.98489  0.91432  1.0000
  C   C1844     1.0  0.47732  0.53801  0.86446  1.0000
  H   H1487     1.0  0.72511  0.64980  0.89973  1.0000
  H   H1488     1.0  0.78931  0.96827  0.87363  1.0000
  S   S251      1.0  0.84354  0.66046  0.85486  1.0000
  C   C1845     1.0  0.66406  0.63176  0.86245  1.0000
  C   C1846     1.0  0.94559  0.77214  0.82933  1.0000
  C   C1847     1.0  0.69774  0.90205  0.90508  1.0000
  C   C1848     1.0  0.68395  0.87665  0.94274  1.0000
  C   C1849     1.0  0.64748  0.86263  0.89436  1.0000
  C   C1850     1.0  0.74363  0.78859  0.87550  1.0000
  C   C1851     1.0  0.69620  0.79767  0.87556  1.0000
  C   C1852     1.0  0.71419  0.64623  0.87771  1.0000
  C   C1853     1.0  0.85150  0.53001  0.92439  1.0000
  H   H1489     1.0  0.84360  0.52290  0.98830  1.0000
  C   C1854     1.0  0.69227  0.55934  0.87495  1.0000
  H   H1490     1.0  0.82420  0.86397  0.91722  1.0000
  H   H1491     1.0  0.69824  0.88287  0.96121  1.0000
  H   H1492     1.0  0.63283  0.85706  0.87618  1.0000
  C   C1855     1.0  0.85214  0.51579  0.96001  1.0000
  C   C1856     1.0  0.48787  0.66341  0.83157  1.0000
  H   H1493     1.0  0.79985  0.56473  0.87293  1.0000
  C   C1857     1.0  0.53271  0.76234  0.83050  1.0000
  H   H1494     1.0  0.46384  0.90884  0.94304  1.0000
  C   C1858     1.0  0.94841  0.83355  0.99358  1.0000
  C   C1859     1.0  0.95914  0.87893  0.93858  1.0000
  C   C1860     1.0  0.94043  0.76111  0.94911  1.0000
  C   C1861     1.0  0.49370  0.97261  0.99218  1.0000
  H   H1495     1.0  0.87349  0.92270  0.04527  1.0000
  H   H1496     1.0  0.93334  0.73233  0.90493  1.0000
  S   S252      1.0  0.72713  0.49170  0.80624  1.0000
  H   H1497     1.0  0.94289  0.90030  0.02934  1.0000
  C   C1862     1.0  0.95128  0.74660  0.91768  1.0000
  C   C1863     1.0  0.94406  0.85334  0.02123  1.0000
  C   C1864     1.0  0.95233  0.49954  0.95643  1.0000
  C   C1865     1.0  0.86474  0.89519  0.04797  1.0000
  C   C1866     1.0  0.89965  0.61393  0.80785  1.0000
  C   C1867     1.0  0.95611  0.84670  0.95205  1.0000
  C   C1868     1.0  0.94651  0.88524  0.00781  1.0000
  C   C1869     1.0  0.64148  0.83380  0.04417  1.0000
  H   H1498     1.0  0.95276  0.53564  0.84739  1.0000
  H   H1499     1.0  0.69119  0.87527  0.80237  1.0000
  H   H1500     1.0  0.76618  0.67689  0.04221  1.0000
  H   H1501     1.0  0.63363  0.70355  0.04861  1.0000
  C   C1870     1.0  0.70474  0.95050  0.11012  1.0000
  C   C1871     1.0  0.60739  0.57119  0.07479  1.0000
  H   H1502     1.0  0.54359  0.89667  0.08382  1.0000
  H   H1503     1.0  0.65783  0.67163  0.08926  1.0000
  C   C1872     1.0  0.51774  0.72524  0.23528  1.0000
  C   C1873     1.0  0.64430  0.65967  0.15480  1.0000
  C   C1874     1.0  0.78079  0.89857  0.11246  1.0000
  C   C1875     1.0  0.93157  0.62312  0.13922  1.0000
  H   H1504     1.0  0.74070  0.90243  0.05195  1.0000
  C   C1876     1.0  0.88412  0.79540  0.17881  1.0000
  Fe  Fe125     1.0  0.69649  0.83409  0.24936  1.0000
  H   H1505     1.0  0.50367  0.76624  0.10279  1.0000
  H   H1506     1.0  0.72896  0.92139  0.21776  1.0000
  P   P62       1.0  0.77736  0.71595  0.24469  1.0000
  H   H1507     1.0  0.63319  0.65614  0.21877  1.0000
  H   H1508     1.0  0.51258  0.53777  0.19810  1.0000
  C   C1877     1.0  0.64601  0.88128  0.07476  1.0000
  H   H1509     1.0  0.65400  0.92843  0.16635  1.0000
  C   C1878     1.0  0.48787  0.72274  0.26828  1.0000
  C   C1879     1.0  0.76506  0.74513  0.18495  1.0000
  H   H1510     1.0  0.56343  0.63375  0.08945  1.0000
  C   C1880     1.0  0.52245  0.80336  0.20701  1.0000
  S   S253      1.0  0.75951  0.60897  0.18281  1.0000
  H   H1511     1.0  0.46777  0.84257  0.18897  1.0000
  S   S254      1.0  0.69993  0.77927  0.12980  1.0000
  H   H1512     1.0  0.66162  0.68513  0.29109  1.0000
  C   C1881     1.0  0.75884  0.67238  0.27827  1.0000
  H   H1513     1.0  0.71601  0.57331  0.27065  1.0000
  S   S255      1.0  0.62048  0.76678  0.22743  1.0000
  H   H1514     1.0  0.94441  0.98006  0.26021  1.0000
  H   H1515     1.0  0.54236  0.49005  0.14639  1.0000
  C   C1882     1.0  0.89230  0.72213  0.05227  1.0000
  C   C1883     1.0  0.74020  0.71363  0.14273  1.0000
  C   C1884     1.0  0.74580  0.50885  0.06676  1.0000
  H   H1516     1.0  0.93794  0.71175  0.16676  1.0000
  H   H1517     1.0  0.84805  0.82207  0.11156  1.0000
  H   H1518     1.0  0.95336  0.64521  0.07216  1.0000
  H   H1519     1.0  0.62536  0.91223  0.26730  1.0000
  C   C1885     1.0  0.55511  0.97509  0.29436  1.0000
  H   H1520     1.0  0.60857  0.71545  0.13532  1.0000
  C   C1886     1.0  0.90095  0.77773  0.15993  1.0000
  C   C1887     1.0  0.91165  0.65816  0.26096  1.0000
  H   H1521     1.0  0.59746  0.97476  0.19515  1.0000
  C   C1888     1.0  0.90099  0.89684  0.25076  1.0000
  C   C1889     1.0  0.93869  0.74776  0.28696  1.0000
  H   H1522     1.0  0.86864  0.58723  0.06669  1.0000
  C   C1890     1.0  0.64550  0.67370  0.18771  1.0000
  C   C1891     1.0  0.51714  0.58184  0.13101  1.0000
  H   H1523     1.0  0.83411  0.79084  0.21929  1.0000
  H   H1524     1.0  0.52082  0.51723  0.25677  1.0000
  C   C1892     1.0  0.52804  0.69920  0.14176  1.0000
  H   H1525     1.0  0.92123  0.56370  0.22402  1.0000
  H   H1526     1.0  0.49077  0.50782  0.09987  1.0000
  H   H1527     1.0  0.57842  0.74706  0.12530  1.0000
  C   C1893     1.0  0.47165  0.64376  0.05400  1.0000
  C   C1894     1.0  0.86987  0.56416  0.06158  1.0000
  H   H1528     1.0  0.57538  0.65007  0.15731  1.0000
  C   C1895     1.0  0.90853  0.65074  0.10665  1.0000
  C   C1896     1.0  0.70346  0.97391  0.26586  1.0000
  C   C1897     1.0  0.73547  0.52930  0.13943  1.0000
  H   H1529     1.0  0.51486  0.71286  0.13727  1.0000
  C   C1898     1.0  0.51601  0.58754  0.28078  1.0000
  C   C1899     1.0  0.67216  0.94808  0.13549  1.0000
  C   C1900     1.0  0.94367  0.65844  0.25172  1.0000
  S   S256      1.0  0.68944  0.78198  0.24343  1.0000
  Fe  Fe126     1.0  0.63037  0.76046  0.28301  1.0000
  H   H1530     1.0  0.89321  0.72749  0.15238  1.0000
  C   C1901     1.0  0.66733  0.95703  0.27300  1.0000
  C   C1902     1.0  0.95008  0.86393  0.20899  1.0000
  C   C1903     1.0  0.87472  0.76443  0.07055  1.0000
  H   H1531     1.0  0.94147  0.56990  0.27839  1.0000
  S   S257      1.0  0.89135  0.98621  0.08425  1.0000
  C   C1904     1.0  0.72955  0.49546  0.14076  1.0000
  Fe  Fe127     1.0  0.62438  0.54007  0.28073  1.0000
  H   H1532     1.0  0.66493  0.89070  0.23133  1.0000
  C   C1905     1.0  0.78654  0.54529  0.22881  1.0000
  C   C1906     1.0  0.73618  0.56610  0.25913  1.0000
  C   C1907     1.0  0.76035  0.88736  0.09101  1.0000
  H   H1533     1.0  0.73169  0.53723  0.16756  1.0000
  H   H1534     1.0  0.74595  0.85957  0.09395  1.0000
  C   C1908     1.0  0.77561  0.94752  0.06479  1.0000
  C   C1909     1.0  0.50656  0.53523  0.09793  1.0000
  H   H1535     1.0  0.61787  0.63096  0.28436  1.0000
  C   C1910     1.0  0.48324  0.83140  0.19287  1.0000
  C   C1911     1.0  0.89389  0.54429  0.14083  1.0000
  C   C1912     1.0  0.51945  0.55797  0.28409  1.0000
  C   C1913     1.0  0.71181  0.93132  0.23313  1.0000
  C   C1914     1.0  0.75063  0.54254  0.06545  1.0000
  C   C1915     1.0  0.65932  0.68243  0.11465  1.0000
  C   C1916     1.0  0.78824  0.57162  0.20198  1.0000
  C   C1917     1.0  0.76255  0.58149  0.21707  1.0000
  H   H1536     1.0  0.92168  0.84806  0.23182  1.0000
  C   C1918     1.0  0.52590  0.64411  0.15988  1.0000
  H   H1537     1.0  0.65320  0.87749  0.13032  1.0000
  C   C1919     1.0  0.65351  0.92664  0.26076  1.0000
  C   C1920     1.0  0.92610  0.55525  0.14383  1.0000
  H   H1538     1.0  0.74422  0.65971  0.21057  1.0000
  H   H1539     1.0  0.57489  0.55345  0.14187  1.0000
  Fe  Fe128     1.0  0.69935  0.58159  0.20560  1.0000
  C   C1921     1.0  0.88093  0.64300  0.14614  1.0000
  H   H1540     1.0  0.82956  0.79584  0.06122  1.0000
  C   C1922     1.0  0.78080  0.66362  0.28884  1.0000
  C   C1923     1.0  0.50911  0.66224  0.15420  1.0000
  H   H1541     1.0  0.94424  0.74911  0.07940  1.0000
  P   P63       1.0  0.50187  0.59628  0.17586  1.0000
  H   H1542     1.0  0.81023  0.98593  0.08526  1.0000
  C   C1924     1.0  0.86994  0.50848  0.14850  1.0000
  C   C1925     1.0  0.88824  0.89072  0.22091  1.0000
  S   S258      1.0  0.66386  0.52464  0.24508  1.0000
  H   H1543     1.0  0.92993  0.79240  0.13942  1.0000
  C   C1926     1.0  0.57180  0.49985  0.07980  1.0000
  S   S259      1.0  0.63745  0.81229  0.29112  1.0000
  H   H1544     1.0  0.60422  0.73763  0.04974  1.0000
  H   H1545     1.0  0.88700  0.56314  0.13249  1.0000
  H   H1546     1.0  0.65454  0.82268  0.13020  1.0000
  C   C1927     1.0  0.85706  0.69427  0.08002  1.0000
  C   C1928     1.0  0.90410  0.61602  0.17872  1.0000
  H   H1547     1.0  0.53811  0.79398  0.21397  1.0000
  H   H1548     1.0  0.50811  0.62199  0.24581  1.0000
  C   C1929     1.0  0.84288  0.72246  0.19333  1.0000
  C   C1930     1.0  0.52079  0.85285  0.17630  1.0000
  H   H1549     1.0  0.90717  0.90019  0.18774  1.0000
  H   H1550     1.0  0.69908  0.56323  0.08057  1.0000
  S   S260      1.0  0.59563  0.52618  0.24085  1.0000
  C   C1931     1.0  0.51361  0.55202  0.22073  1.0000
  Fe  Fe129     1.0  0.63348  0.82093  0.23160  1.0000
  H   H1551     1.0  0.49001  0.97590  0.05318  1.0000
  C   C1932     1.0  0.94899  0.58324  0.21530  1.0000
  C   C1933     1.0  0.54038  0.83878  0.18320  1.0000
  Fe  Fe130     1.0  0.63874  0.51575  0.20213  1.0000
  C   C1934     1.0  0.72144  0.64765  0.29661  1.0000
  H   H1552     1.0  0.86075  0.64969  0.14896  1.0000
  H   H1553     1.0  0.78243  0.87959  0.13123  1.0000
  H   H1554     1.0  0.84141  0.86966  0.21019  1.0000
  C   C1935     1.0  0.74690  0.68349  0.19522  1.0000
  H   H1555     1.0  0.81242  0.52815  0.09950  1.0000
  C   C1936     1.0  0.92406  0.74580  0.25925  1.0000
  C   C1937     1.0  0.87865  0.62547  0.18212  1.0000
  H   H1556     1.0  0.87570  0.73072  0.25324  1.0000
  H   H1557     1.0  0.73156  0.71307  0.11872  1.0000
  C   C1938     1.0  0.51039  0.58188  0.21697  1.0000
  H   H1558     1.0  0.93917  0.84439  0.05310  1.0000
  C   C1939     1.0  0.51134  0.59938  0.24749  1.0000
  C   C1940     1.0  0.66163  0.71041  0.18062  1.0000
  C   C1941     1.0  0.84675  0.77657  0.20550  1.0000
  H   H1559     1.0  0.54399  0.97628  0.24173  1.0000
  H   H1560     1.0  0.90164  0.60231  0.20694  1.0000
  C   C1942     1.0  0.73638  0.68309  0.16363  1.0000
  S   S261      1.0  0.69317  0.84745  0.19013  1.0000
  H   H1561     1.0  0.71998  0.83450  0.05215  1.0000
  S   S262      1.0  0.67670  0.57192  0.16063  1.0000
  H   H1562     1.0  0.48157  0.64806  0.15901  1.0000
  C   C1943     1.0  0.75432  0.74459  0.15352  1.0000
  C   C1944     1.0  0.90973  0.67733  0.23006  1.0000
  H   H1563     1.0  0.80951  0.68234  0.27617  1.0000
  S   S263      1.0  0.50828  0.64234  0.05458  1.0000
  H   H1564     1.0  0.63809  0.97104  0.22165  1.0000
  Fe  Fe131     1.0  0.68029  0.79271  0.18876  1.0000
  H   H1565     1.0  0.71973  0.73243  0.26694  1.0000
  H   H1566     1.0  0.88480  0.67663  0.23685  1.0000
  H   H1567     1.0  0.72505  0.65896  0.15552  1.0000
  C   C1945     1.0  0.83954  0.73650  0.09825  1.0000
  C   C1946     1.0  0.58136  0.54552  0.11376  1.0000
  H   H1568     1.0  0.55822  0.71083  0.21818  1.0000
  C   C1947     1.0  0.61447  0.97115  0.24265  1.0000
  C   C1948     1.0  0.53665  0.55959  0.05999  1.0000
  H   H1569     1.0  0.70394  0.65390  0.28921  1.0000
  C   C1949     1.0  0.56618  0.83162  0.26960  1.0000
  C   C1950     1.0  0.56190  0.66357  0.15309  1.0000
  C   C1951     1.0  0.83805  0.53071  0.08013  1.0000
  C   C1952     1.0  0.73457  0.54005  0.28593  1.0000
  C   C1953     1.0  0.58082  0.70059  0.14049  1.0000
  H   H1570     1.0  0.80337  0.67982  0.12436  1.0000
  C   C1954     1.0  0.82630  0.86221  0.27590  1.0000
  H   H1571     1.0  0.66217  0.72103  0.20633  1.0000
  H   H1572     1.0  0.95214  0.81876  0.19452  1.0000
  C   C1955     1.0  0.65054  0.86577  0.10587  1.0000
  H   H1573     1.0  0.62030  0.59893  0.07285  1.0000
  C   C1956     1.0  0.56325  0.50987  0.11624  1.0000
  C   C1957     1.0  0.54998  0.85172  0.27855  1.0000
  H   H1574     1.0  0.56939  0.85567  0.17146  1.0000
  C   C1958     1.0  0.79818  0.93402  0.11073  1.0000
  H   H1575     1.0  0.64565  0.90549  0.07461  1.0000
  C   C1959     1.0  0.83067  0.70147  0.10290  1.0000
  C   C1960     1.0  0.79604  0.95851  0.08659  1.0000
  H   H1576     1.0  0.80799  0.58264  0.16913  1.0000
  C   C1961     1.0  0.95917  0.49842  0.28493  1.0000
  Fe  Fe132     1.0  0.63555  0.58320  0.20091  1.0000
  H   H1577     1.0  0.82706  0.69441  0.19754  1.0000
  C   C1962     1.0  0.54759  0.60605  0.09279  1.0000
  H   H1578     1.0  0.95844  0.53754  0.15716  1.0000
  C   C1963     1.0  0.67578  0.91407  0.24067  1.0000
  C   C1964     1.0  0.76342  0.73840  0.28005  1.0000
  C   C1965     1.0  0.85104  0.87341  0.23348  1.0000
  S   S264      1.0  0.85300  0.54711  0.28609  1.0000
  H   H1579     1.0  0.55976  0.87547  0.25484  1.0000
  H   H1580     1.0  0.64675  0.79444  0.07642  1.0000
  P   P64       1.0  0.94924  0.92160  0.23309  1.0000
  C   C1966     1.0  0.84031  0.82380  0.05621  1.0000
  H   H1581     1.0  0.68891  0.73680  0.07606  1.0000
  C   C1967     1.0  0.53476  0.70831  0.24339  1.0000
  H   H1582     1.0  0.47288  0.52726  0.16222  1.0000
  C   C1968     1.0  0.73346  0.74130  0.28569  1.0000
  H   H1583     1.0  0.80539  0.53654  0.21671  1.0000
  H   H1584     1.0  0.52730  0.73951  0.20324  1.0000
  C   C1969     1.0  0.66304  0.97095  0.12112  1.0000
  C   C1970     1.0  0.65106  0.83466  0.10597  1.0000
  H   H1585     1.0  0.81908  0.74196  0.11626  1.0000
  H   H1586     1.0  0.75129  0.57922  0.10128  1.0000
  C   C1971     1.0  0.55720  0.59490  0.05751  1.0000
  C   C1972     1.0  0.75912  0.52897  0.27056  1.0000
  S   S265      1.0  0.66156  0.59784  0.24310  1.0000
  C   C1973     1.0  0.93355  0.64065  0.10317  1.0000
  C   C1974     1.0  0.56384  0.71840  0.13494  1.0000
  H   H1587     1.0  0.71119  0.93259  0.12219  1.0000
  H   H1588     1.0  0.50228  0.88660  0.05313  1.0000
  C   C1975     1.0  0.46528  0.79586  0.21615  1.0000
  H   H1589     1.0  0.79967  0.94391  0.24138  1.0000
  C   C1976     1.0  0.72845  0.97587  0.07006  1.0000
  H   H1590     1.0  0.88088  0.79122  0.06776  1.0000
  S   S266      1.0  0.73751  0.86494  0.27078  1.0000
  S   S267      1.0  0.62242  0.61377  0.16352  1.0000
  C   C1977     1.0  0.82596  0.73985  0.21342  1.0000
  C   C1978     1.0  0.55976  0.78573  0.06165  1.0000
  H   H1591     1.0  0.76238  0.81574  0.05180  1.0000
  Fe  Fe133     1.0  0.94302  0.98673  0.06326  1.0000
  H   H1592     1.0  0.90980  0.66319  0.07847  1.0000
  C   C1979     1.0  0.88700  0.73258  0.27479  1.0000
  C   C1980     1.0  0.64655  0.81870  0.07530  1.0000
  C   C1981     1.0  0.49672  0.54631  0.13326  1.0000
  H   H1593     1.0  0.81311  0.94251  0.12837  1.0000
  C   C1982     1.0  0.74626  0.55290  0.10185  1.0000
  H   H1594     1.0  0.85691  0.61881  0.21282  1.0000
  C   C1983     1.0  0.76105  0.71440  0.20635  1.0000
  H   H1595     1.0  0.75364  0.97486  0.23957  1.0000
  H   H1596     1.0  0.75641  0.76799  0.13785  1.0000
  S   S268      1.0  0.60385  0.84591  0.22116  1.0000
  C   C1984     1.0  0.75744  0.91163  0.06749  1.0000
  H   H1597     1.0  0.85003  0.66697  0.08392  1.0000
  C   C1985     1.0  0.88034  0.74127  0.16721  1.0000
  H   H1598     1.0  0.53457  0.88062  0.15922  1.0000
  H   H1599     1.0  0.84477  0.50012  0.14712  1.0000
  C   C1986     1.0  0.67770  0.73320  0.14012  1.0000
  H   H1600     1.0  0.77622  0.76943  0.19270  1.0000
  C   C1987     1.0  0.86284  0.87425  0.08098  1.0000
  C   C1988     1.0  0.48475  0.78140  0.22319  1.0000
  H   H1601     1.0  0.59632  0.95687  0.06419  1.0000
  C   C1989     1.0  0.51822  0.54021  0.25413  1.0000
  H   H1602     1.0  0.93003  0.86246  0.29858  1.0000
  C   C1990     1.0  0.54785  0.91878  0.06263  1.0000
  C   C1991     1.0  0.67668  0.71917  0.10718  1.0000
  C   C1992     1.0  0.83926  0.50057  0.07420  1.0000
  H   H1603     1.0  0.89998  0.82380  0.17251  1.0000
  C   C1993     1.0  0.85038  0.83848  0.08529  1.0000
  H   H1604     1.0  0.94146  0.75393  0.22582  1.0000
  H   H1605     1.0  0.87062  0.88579  0.10344  1.0000
  H   H1606     1.0  0.48017  0.82232  0.08200  1.0000
  C   C1994     1.0  0.60712  0.97018  0.28435  1.0000
  C   C1995     1.0  0.59177  0.97351  0.22734  1.0000
  C   C1996     1.0  0.56188  0.97501  0.25334  1.0000
  C   C1997     1.0  0.93994  0.69738  0.19037  1.0000
  S   S269      1.0  0.94178  0.94136  0.09749  1.0000
  H   H1607     1.0  0.56928  0.80553  0.07649  1.0000
  C   C1998     1.0  0.52239  0.76347  0.07668  1.0000
  H   H1608     1.0  0.56487  0.78449  0.29289  1.0000
  C   C1999     1.0  0.93395  0.52974  0.15432  1.0000
  H   H1609     1.0  0.94524  0.64310  0.27494  1.0000
  C   C2000     1.0  0.80247  0.96109  0.26100  1.0000
  C   C2001     1.0  0.91016  0.49401  0.16108  1.0000
  C   C2002     1.0  0.72562  0.96124  0.24572  1.0000
  H   H1610     1.0  0.63772  0.96891  0.14037  1.0000
  C   C2003     1.0  0.57748  0.95268  0.05168  1.0000
  H   H1611     1.0  0.48050  0.72159  0.06797  1.0000
  C   C2004     1.0  0.71108  0.58639  0.05461  1.0000
  C   C2005     1.0  0.69285  0.60433  0.05604  1.0000
  C   C2006     1.0  0.50932  0.73842  0.05719  1.0000
  H   H1612     1.0  0.79750  0.84956  0.28548  1.0000
  C   C2007     1.0  0.87603  0.88589  0.29331  1.0000
  H   H1613     1.0  0.66816  0.59615  0.08415  1.0000
  P   P65       1.0  0.95704  0.60153  0.13455  1.0000
  C   C2008     1.0  0.52104  0.68738  0.28400  1.0000
  P   P66       1.0  0.46018  0.73632  0.25700  1.0000
  H   H1614     1.0  0.53387  0.67383  0.29029  1.0000
  C   C2009     1.0  0.87267  0.50402  0.04994  1.0000
  C   C2010     1.0  0.83614  0.79571  0.38642  1.0000
  S   S270      1.0  0.66449  0.78039  0.46278  1.0000
  C   C2011     1.0  0.81808  0.76773  0.51798  1.0000
  H   H1615     1.0  0.82222  0.64864  0.37684  1.0000
  H   H1616     1.0  0.79806  0.92462  0.44263  1.0000
  C   C2012     1.0  0.90903  0.59239  0.43055  1.0000
  H   H1617     1.0  0.52115  0.79267  0.43658  1.0000
  C   C2013     1.0  0.59350  0.68526  0.44516  1.0000
  H   H1618     1.0  0.79059  0.95564  0.49586  1.0000
  H   H1619     1.0  0.89425  0.67940  0.39269  1.0000
  H   H1620     1.0  0.69367  0.93828  0.33536  1.0000
  C   C2014     1.0  0.79394  0.58615  0.49157  1.0000
  C   C2015     1.0  0.55226  0.50333  0.43026  1.0000
  S   S271      1.0  0.73610  0.85398  0.48769  1.0000
  C   C2016     1.0  0.88478  0.87801  0.46234  1.0000
  H   H1621     1.0  0.64433  0.83395  0.45284  1.0000
  C   C2017     1.0  0.65499  0.85703  0.42753  1.0000
  S   S272      1.0  0.53225  0.95534  0.44505  1.0000
  H   H1622     1.0  0.93410  0.52550  0.49723  1.0000
  C   C2018     1.0  0.87057  0.69610  0.50074  1.0000
  H   H1623     1.0  0.74374  0.68618  0.39385  1.0000
  C   C2019     1.0  0.91652  0.73745  0.33014  1.0000
  H   H1624     1.0  0.84618  0.98061  0.35394  1.0000
  C   C2020     1.0  0.66886  0.79111  0.38511  1.0000
  C   C2021     1.0  0.56042  0.87858  0.40296  1.0000
  H   H1625     1.0  0.71926  0.64199  0.49546  1.0000
  H   H1626     1.0  0.51256  0.67990  0.47836  1.0000
  C   C2022     1.0  0.88405  0.88459  0.49964  1.0000
  C   C2023     1.0  0.57773  0.97288  0.30976  1.0000
  C   C2024     1.0  0.85685  0.70409  0.47544  1.0000
  C   C2025     1.0  0.94838  0.88679  0.30162  1.0000
  H   H1627     1.0  0.77829  0.77081  0.35739  1.0000
  C   C2026     1.0  0.86787  0.93194  0.40517  1.0000
  S   S273      1.0  0.76286  0.49298  0.47618  1.0000
  H   H1628     1.0  0.83588  0.71086  0.32969  1.0000
  P   P67       1.0  0.90999  0.92439  0.54715  1.0000
  C   C2027     1.0  0.60388  0.91565  0.42472  1.0000
  S   S274      1.0  0.87500  0.63668  0.31186  1.0000
  S   S275      1.0  0.79075  0.54494  0.36879  1.0000
  S   S276      1.0  0.60567  0.52633  0.35059  1.0000
  C   C2028     1.0  0.50964  0.81137  0.34969  1.0000
  S   S277      1.0  0.86022  0.54694  0.37344  1.0000
  H   H1629     1.0  0.91993  0.66745  0.43678  1.0000
  H   H1630     1.0  0.53340  0.59615  0.48830  1.0000
  Fe  Fe134     1.0  0.79956  0.51100  0.40716  1.0000
  C   C2029     1.0  0.75457  0.95936  0.41506  1.0000
  C   C2030     1.0  0.70639  0.61433  0.32405  1.0000
  H   H1631     1.0  0.81387  0.74380  0.37933  1.0000
  C   C2031     1.0  0.76452  0.97665  0.47342  1.0000
  Fe  Fe135     1.0  0.73101  0.82715  0.54714  1.0000
  C   C2032     1.0  0.84634  0.77436  0.52782  1.0000
  C   C2033     1.0  0.50193  0.74113  0.52858  1.0000
  C   C2034     1.0  0.87899  0.81084  0.41391  1.0000
  H   H1632     1.0  0.94222  0.57196  0.43510  1.0000
  C   C2035     1.0  0.57996  0.90459  0.36397  1.0000
  H   H1633     1.0  0.68290  0.96735  0.44067  1.0000
  C   C2036     1.0  0.78971  0.60241  0.52294  1.0000
  C   C2037     1.0  0.68565  0.80927  0.34244  1.0000
  C   C2038     1.0  0.91207  0.91586  0.49863  1.0000
  H   H1634     1.0  0.82175  0.80345  0.37427  1.0000
  S   S278      1.0  0.75309  0.49255  0.30262  1.0000
  C   C2039     1.0  0.54612  0.94297  0.47929  1.0000
  S   S279      1.0  0.83726  0.89378  0.39907  1.0000
  Fe  Fe136     1.0  0.79347  0.51164  0.32662  1.0000
  C   C2040     1.0  0.72860  0.60551  0.33351  1.0000
  C   C2041     1.0  0.79973  0.64793  0.40189  1.0000
  C   C2042     1.0  0.51850  0.77148  0.49473  1.0000
  H   H1635     1.0  0.70858  0.59334  0.46322  1.0000
  H   H1636     1.0  0.81960  0.86060  0.33852  1.0000
  H   H1637     1.0  0.60009  0.87247  0.52534  1.0000
  C   C2043     1.0  0.84202  0.58304  0.49986  1.0000
  C   C2044     1.0  0.56123  0.81640  0.54834  1.0000
  C   C2045     1.0  0.85110  0.75283  0.40503  1.0000
  H   H1638     1.0  0.91739  0.52503  0.36180  1.0000
  H   H1639     1.0  0.72599  0.77607  0.36655  1.0000
  C   C2046     1.0  0.62406  0.84269  0.53335  1.0000
  C   C2047     1.0  0.81972  0.57623  0.48038  1.0000
  H   H1640     1.0  0.55321  0.71393  0.52889  1.0000
  C   C2048     1.0  0.49268  0.49404  0.44942  1.0000
  H   H1641     1.0  0.92882  0.74131  0.35077  1.0000
  Fe  Fe137     1.0  0.48740  0.90985  0.44015  1.0000
  C   C2049     1.0  0.62326  0.94187  0.38588  1.0000
  Fe  Fe138     1.0  0.74951  0.77549  0.51020  1.0000
  H   H1642     1.0  0.88193  0.52269  0.43332  1.0000
  H   H1643     1.0  0.86337  0.84604  0.39547  1.0000
  C   C2050     1.0  0.72022  0.75508  0.31654  1.0000
  H   H1644     1.0  0.49955  0.88995  0.51040  1.0000
  H   H1645     1.0  0.51666  0.60109  0.30426  1.0000
  H   H1646     1.0  0.93896  0.87788  0.53678  1.0000
  H   H1647     1.0  0.71720  0.57921  0.35339  1.0000
  C   C2051     1.0  0.59263  0.60094  0.38772  1.0000
  C   C2052     1.0  0.74159  0.64361  0.46911  1.0000
  H   H1648     1.0  0.87065  0.80020  0.51384  1.0000
  H   H1649     1.0  0.53188  0.97623  0.31446  1.0000
  H   H1650     1.0  0.77709  0.58083  0.47607  1.0000
  C   C2053     1.0  0.76579  0.63012  0.31588  1.0000
  C   C2054     1.0  0.68514  0.88932  0.42078  1.0000
  C   C2055     1.0  0.48509  0.64683  0.41626  1.0000
  C   C2056     1.0  0.92465  0.61675  0.50739  1.0000
  H   H1651     1.0  0.69719  0.89075  0.44149  1.0000
  C   C2057     1.0  0.71869  0.84155  0.32395  1.0000
  C   C2058     1.0  0.76476  0.61838  0.41750  1.0000
  C   C2059     1.0  0.54250  0.65037  0.38216  1.0000
  H   H1652     1.0  0.49016  0.61624  0.50279  1.0000
  C   C2060     1.0  0.71981  0.68617  0.41412  1.0000
  Fe  Fe139     1.0  0.70673  0.79940  0.48405  1.0000
  Fe  Fe140     1.0  0.46545  0.84311  0.41250  1.0000
  C   C2061     1.0  0.78081  0.95696  0.47320  1.0000
  H   H1653     1.0  0.61684  0.82862  0.40511  1.0000
  C   C2062     1.0  0.85984  0.82004  0.39839  1.0000
  C   C2063     1.0  0.63943  0.85392  0.40059  1.0000
  H   H1654     1.0  0.55681  0.86421  0.46382  1.0000
  C   C2064     1.0  0.90605  0.61417  0.40344  1.0000
  H   H1655     1.0  0.83921  0.71428  0.48684  1.0000
  C   C2065     1.0  0.50298  0.68372  0.40012  1.0000
  H   H1656     1.0  0.88295  0.61723  0.41377  1.0000
  H   H1657     1.0  0.88215  0.97253  0.47772  1.0000
  H   H1658     1.0  0.47835  0.66577  0.34741  1.0000
  C   C2066     1.0  0.58110  0.64917  0.45895  1.0000
  C   C2067     1.0  0.47649  0.70831  0.52848  1.0000
  H   H1659     1.0  0.95204  0.85925  0.35013  1.0000
  H   H1660     1.0  0.69220  0.72277  0.48828  1.0000
  C   C2068     1.0  0.52474  0.79043  0.34002  1.0000
  S   S280      1.0  0.75694  0.79894  0.44763  1.0000
  H   H1661     1.0  0.55784  0.63753  0.37599  1.0000
  S   S281      1.0  0.89562  0.49385  0.30187  1.0000
  S   S282      1.0  0.69700  0.77239  0.54640  1.0000
  P   P68       1.0  0.85088  0.71254  0.40167  1.0000
  C   C2069     1.0  0.54364  0.62428  0.48001  1.0000
  C   C2070     1.0  0.71990  0.83575  0.39089  1.0000
  P   P69       1.0  0.61264  0.63440  0.44300  1.0000
  C   C2071     1.0  0.61866  0.63095  0.31385  1.0000
  H   H1662     1.0  0.55419  0.73220  0.36016  1.0000
  C   C2072     1.0  0.51797  0.49384  0.46107  1.0000
  C   C2073     1.0  0.59185  0.53701  0.49651  1.0000
  H   H1663     1.0  0.77431  0.92553  0.39238  1.0000
  H   H1664     1.0  0.91402  0.89773  0.39478  1.0000
  H   H1665     1.0  0.57835  0.72404  0.44076  1.0000
  C   C2074     1.0  0.65780  0.68555  0.46718  1.0000
  H   H1666     1.0  0.76207  0.87927  0.33409  1.0000
  C   C2075     1.0  0.47493  0.70239  0.30916  1.0000
  C   C2076     1.0  0.77650  0.67324  0.45338  1.0000
  C   C2077     1.0  0.80562  0.67594  0.41908  1.0000
  H   H1667     1.0  0.46853  0.96173  0.49242  1.0000
  C   C2078     1.0  0.83679  0.59842  0.53228  1.0000
  H   H1668     1.0  0.49172  0.60213  0.42144  1.0000
  C   C2079     1.0  0.89860  0.58112  0.51630  1.0000
  C   C2080     1.0  0.57202  0.53100  0.53933  1.0000
  C   C2081     1.0  0.81725  0.50098  0.53298  1.0000
  C   C2082     1.0  0.49051  0.68369  0.31652  1.0000
  C   C2083     1.0  0.78602  0.73459  0.53677  1.0000
  C   C2084     1.0  0.56875  0.69634  0.45305  1.0000
  C   C2085     1.0  0.53157  0.67147  0.47444  1.0000
  S   S283      1.0  0.78322  0.82831  0.51572  1.0000
  C   C2086     1.0  0.89373  0.68340  0.48655  1.0000
  H   H1669     1.0  0.89035  0.77139  0.42872  1.0000
  H   H1670     1.0  0.90491  0.95330  0.33910  1.0000
  H   H1671     1.0  0.57200  0.97287  0.34175  1.0000
  C   C2087     1.0  0.73563  0.61630  0.45096  1.0000
  H   H1672     1.0  0.67764  0.59491  0.33685  1.0000
  H   H1673     1.0  0.84652  0.91417  0.53670  1.0000
  C   C2088     1.0  0.77135  0.93996  0.41483  1.0000
  C   C2089     1.0  0.54052  0.70382  0.37356  1.0000
  C   C2090     1.0  0.61104  0.93674  0.35554  1.0000
  C   C2091     1.0  0.51898  0.63550  0.48823  1.0000
  C   C2092     1.0  0.57660  0.58745  0.52339  1.0000
  Fe  Fe141     1.0  0.78630  0.85173  0.45593  1.0000
  H   H1674     1.0  0.57284  0.57857  0.34557  1.0000
  C   C2093     1.0  0.75179  0.97819  0.44423  1.0000
  S   S284      1.0  0.47640  0.79981  0.40088  1.0000
  H   H1675     1.0  0.74703  0.72323  0.44170  1.0000
  C   C2094     1.0  0.56020  0.68698  0.36464  1.0000
  C   C2095     1.0  0.92652  0.50154  0.48837  1.0000
  C   C2096     1.0  0.84895  0.52236  0.49470  1.0000
  C   C2097     1.0  0.94180  0.93962  0.45973  1.0000
  H   H1676     1.0  0.62218  0.70471  0.42657  1.0000
  H   H1677     1.0  0.57117  0.60710  0.53433  1.0000
  C   C2098     1.0  0.50875  0.76920  0.46241  1.0000
  P   P70       1.0  0.73894  0.96103  0.37639  1.0000
  C   C2099     1.0  0.88678  0.96849  0.44750  1.0000
  C   C2100     1.0  0.72172  0.70704  0.44093  1.0000
  H   H1678     1.0  0.69661  0.75651  0.32119  1.0000
  C   C2101     1.0  0.59570  0.59325  0.48022  1.0000
  C   C2102     1.0  0.90201  0.67730  0.44770  1.0000
  H   H1679     1.0  0.90490  0.67810  0.50598  1.0000
  C   C2103     1.0  0.59550  0.84633  0.53495  1.0000
  C   C2104     1.0  0.56135  0.51241  0.38766  1.0000
  P   P71       1.0  0.87498  0.56960  0.48506  1.0000
  C   C2105     1.0  0.91400  0.90218  0.42374  1.0000
  H   H1680     1.0  0.73344  0.84599  0.40942  1.0000
  H   H1681     1.0  0.54218  0.51729  0.34308  1.0000
  C   C2106     1.0  0.73663  0.76593  0.34214  1.0000
  C   C2107     1.0  0.64332  0.66153  0.35655  1.0000
  H   H1682     1.0  0.82115  0.78820  0.49571  1.0000
  C   C2108     1.0  0.68314  0.91573  0.36099  1.0000
  H   H1683     1.0  0.65053  0.86601  0.52317  1.0000
  H   H1684     1.0  0.78087  0.69386  0.46830  1.0000
  C   C2109     1.0  0.50497  0.63027  0.40760  1.0000
  C   C2110     1.0  0.83169  0.76213  0.38965  1.0000
  H   H1685     1.0  0.59772  0.51740  0.48629  1.0000
  H   H1686     1.0  0.57185  0.50369  0.43940  1.0000
  H   H1687     1.0  0.82232  0.56324  0.45636  1.0000
  H   H1688     1.0  0.85268  0.60317  0.54884  1.0000
  C   C2111     1.0  0.53549  0.51109  0.37594  1.0000
  H   H1689     1.0  0.46409  0.78360  0.30793  1.0000
  C   C2112     1.0  0.60372  0.56804  0.46692  1.0000
  C   C2113     1.0  0.73615  0.85464  0.34819  1.0000
  C   C2114     1.0  0.57227  0.88414  0.43341  1.0000
  C   C2115     1.0  0.86677  0.69995  0.43529  1.0000
  H   H1690     1.0  0.86145  0.86559  0.52930  1.0000
  C   C2116     1.0  0.61813  0.63116  0.39175  1.0000
  C   C2117     1.0  0.85815  0.50696  0.46336  1.0000
  Fe  Fe142     1.0  0.85100  0.57801  0.33154  1.0000
  C   C2118     1.0  0.76637  0.76307  0.33680  1.0000
  H   H1691     1.0  0.48189  0.50294  0.39790  1.0000
  H   H1692     1.0  0.65217  0.52990  0.42417  1.0000
  C   C2119     1.0  0.52518  0.90900  0.50827  1.0000
  C   C2120     1.0  0.59077  0.95878  0.50434  1.0000
  H   H1693     1.0  0.53589  0.85425  0.40958  1.0000
  C   C2121     1.0  0.52171  0.84161  0.31871  1.0000
  C   C2122     1.0  0.77651  0.97287  0.32599  1.0000
  C   C2123     1.0  0.88803  0.68484  0.42244  1.0000
  C   C2124     1.0  0.65579  0.50801  0.41900  1.0000
  H   H1694     1.0  0.51508  0.76669  0.36358  1.0000
  C   C2125     1.0  0.77343  0.95070  0.30047  1.0000
  H   H1695     1.0  0.66111  0.68604  0.35969  1.0000
  H   H1696     1.0  0.57129  0.57798  0.41485  1.0000
  C   C2126     1.0  0.48263  0.73674  0.46337  1.0000
  H   H1697     1.0  0.76999  0.61043  0.53136  1.0000
  H   H1698     1.0  0.86372  0.70016  0.53123  1.0000
  H   H1699     1.0  0.86235  0.85449  0.46347  1.0000
  H   H1700     1.0  0.63408  0.68546  0.48827  1.0000
  C   C2127     1.0  0.65568  0.66455  0.44035  1.0000
  C   C2128     1.0  0.46706  0.70616  0.49588  1.0000
  H   H1701     1.0  0.68564  0.64827  0.39365  1.0000
  Fe  Fe143     1.0  0.85826  0.51350  0.33030  1.0000
  C   C2129     1.0  0.50144  0.50277  0.40684  1.0000
  C   C2130     1.0  0.65351  0.88333  0.36729  1.0000
  H   H1702     1.0  0.61627  0.97776  0.50242  1.0000
  H   H1703     1.0  0.83699  0.91747  0.47229  1.0000
  H   H1704     1.0  0.76049  0.59684  0.40408  1.0000
  C   C2131     1.0  0.69074  0.70674  0.46735  1.0000
  Fe  Fe144     1.0  0.93350  0.79559  0.51754  1.0000
  S   S285      1.0  0.75091  0.72626  0.52414  1.0000
  C   C2132     1.0  0.68687  0.66482  0.41398  1.0000
  C   C2133     1.0  0.68583  0.80422  0.40950  1.0000
  H   H1705     1.0  0.64304  0.76652  0.39881  1.0000
  H   H1706     1.0  0.61900  0.57227  0.43379  1.0000
  H   H1707     1.0  0.48749  0.69644  0.40611  1.0000
  P   P72       1.0  0.63687  0.96958  0.30465  1.0000
  C   C2134     1.0  0.87455  0.77741  0.41739  1.0000
  C   C2135     1.0  0.47194  0.97608  0.51469  1.0000
  H   H1708     1.0  0.57071  0.89962  0.34048  1.0000
  C   C2136     1.0  0.94260  0.93282  0.42251  1.0000
  S   S286      1.0  0.94459  0.83703  0.46539  1.0000
  C   C2137     1.0  0.86134  0.93736  0.44442  1.0000
  C   C2138     1.0  0.68526  0.50748  0.41989  1.0000
  C   C2139     1.0  0.83879  0.86841  0.30577  1.0000
  H   H1709     1.0  0.70426  0.52853  0.42659  1.0000
  H   H1710     1.0  0.78314  0.62297  0.32249  1.0000
  H   H1711     1.0  0.61312  0.91988  0.44827  1.0000
  S   S287      1.0  0.60709  0.71091  0.33310  1.0000
  C   C2140     1.0  0.53724  0.89990  0.53519  1.0000
  S   S288      1.0  0.50189  0.90094  0.37753  1.0000
  C   C2141     1.0  0.69963  0.91892  0.38707  1.0000
  H   H1712     1.0  0.89774  0.82958  0.42294  1.0000
  C   C2142     1.0  0.87909  0.72312  0.34623  1.0000
  H   H1713     1.0  0.64159  0.88100  0.34621  1.0000
  C   C2143     1.0  0.56983  0.92505  0.53353  1.0000
  C   C2144     1.0  0.78478  0.93925  0.44341  1.0000
  C   C2145     1.0  0.59316  0.60100  0.34874  1.0000
  H   H1714     1.0  0.67321  0.79743  0.32379  1.0000
  C   C2146     1.0  0.55308  0.80062  0.30003  1.0000
  C   C2147     1.0  0.86450  0.72104  0.31813  1.0000
  H   H1715     1.0  0.88514  0.89147  0.31682  1.0000
  C   C2148     1.0  0.57896  0.96778  0.47726  1.0000
  C   C2149     1.0  0.77965  0.74912  0.30610  1.0000
  H   H1716     1.0  0.64783  0.96599  0.37941  1.0000
  C   C2150     1.0  0.93949  0.58893  0.41503  1.0000
  H   H1717     1.0  0.93169  0.63692  0.48101  1.0000
  H   H1718     1.0  0.52287  0.54877  0.31000  1.0000
  C   C2151     1.0  0.93331  0.63276  0.36205  1.0000
  H   H1719     1.0  0.50933  0.85722  0.32560  1.0000
  H   H1720     1.0  0.93090  0.64989  0.34167  1.0000
  H   H1721     1.0  0.53871  0.79703  0.49290  1.0000
  C   C2152     1.0  0.89972  0.95741  0.36944  1.0000
  C   C2153     1.0  0.64371  0.66125  0.31766  1.0000
  C   C2154     1.0  0.93734  0.51962  0.34222  1.0000
  H   H1722     1.0  0.71342  0.52756  0.31817  1.0000
  C   C2155     1.0  0.95304  0.96211  0.53579  1.0000
  C   C2156     1.0  0.93316  0.50503  0.31049  1.0000
  H   H1723     1.0  0.74876  0.92543  0.31051  1.0000
  H   H1724     1.0  0.47450  0.73539  0.43879  1.0000
  H   H1725     1.0  0.95952  0.65457  0.52768  1.0000
  C   C2157     1.0  0.95206  0.49947  0.45458  1.0000
  H   H1726     1.0  0.80206  0.74606  0.30321  1.0000
  H   H1727     1.0  0.64099  0.80611  0.54202  1.0000
  C   C2158     1.0  0.94078  0.62685  0.53350  1.0000
  C   C2159     1.0  0.81078  0.60807  0.54371  1.0000
  C   C2160     1.0  0.61859  0.80898  0.54420  1.0000
  H   H1728     1.0  0.54987  0.65758  0.54847  1.0000
