data_image0
_chemical_formula_structural       HC2PC4HCH2CH6SH2C2PSCH2Fe2C2HFeHSH6C2SHSH2CH2CS2HSCH3C3H3CSFeHFeH2C3HC2H4FeC4H2C2HCH2SC2HCHFeCFeCS2C2HS2CHC5HC5H2C3H4C2HC2H2C4HC4HC2HCH3C3H2C2H3C2HCPH6C4H2C3HC3HC3HFeCSPH2CHCHC9HC6HSC2HC3H2CH3C2HC3HC6HC4HC2H2CH2C2SHC2HSH5CHC3H2CPC3PC3HC2H3C3HCHCH2C2H3C4HFeH2CH2C6HPHC12HC5SC2FeH2CHCFeHCSCHCFeHC2H3Fe2HC4H2C2HSC3HSCHC2H2SCFeCH3SHCH2C3HC2SHSH2C6H2CH2SCH2PFeH2SH2SCSHSC3HPHSCHCHC2HCH3SCH3SCHCH2S2C2H4C2HCFeC2HCHCFeC2HCHSH3CHC3HC2HCHCFeCH2CHC2HC3HSH3C3HPSCSCHCHSHC2HC2H2C7HC4HCHC4SCHCHC2HCHC3HC2H2C3HFeH2CHSPC3H2C2H2CHC4FeSHCSCH2C4H2CH3CHC2PHC2PHC2HC2HCFeCHC4SCHS2CHC2HC2H2CHC4H2CHFe2C2HC2SC4SHCH3C2FeHCHSCH3CH2C3HC3SH2C2SCHSH3C3HFeC3HS2C2SHC6HCHC4H5CH2CHFeCH2C2H4CH2C3HFeC5H3CH4C2H2C5HC2HCHC5H2C2H2C2HC2HC4SHC2HCH2CH9CHPC3HC4H3CH2C2HC3SC2HCHCSH2PCH2CH2CHPH3CH3C7HCFeC3HC4HC2H3CH2S2H2CHC3HSC2HCHFeSC2PC2HCFeCHC2HC3SCHC3FeHCFeC3SHCHSHFeHCH2C2HSCHC3Fe2HCHC2HCH6CH2CHFeCHPC4HC4SC2SCHSCSFeC2S2H2CHC2HC5H2SC2H2CH3C6H3FeSCH3C2H2CSHSCH3FeHC2SC3H7CH2CHCPHCH4CH3C3HCHCH2CH3C2H2C2HCHCHCH2C2HC3HC4PCHSHCH2C4HC2H2CH3CHCSHC5H4C2H2C2HCHC3H3C2H4C2HC3SHCHC2SH2C2HCHCH2C2HC4HCHC3H2CHCH2CH3CHCHC2SPC2HFeC4HCFeSHCHC2H2C2HCHC2HCH2C2HC7PSH4SHPHSH2C3HCH2CH3C3HC2HFeHC5HCHC2HC2HC2HCSCSHC2HCFeC2HFeH2CSCH2S2C3SCH2CHSHC4HC2HC3HSHCHFeH4C4FeSC4H8FeC3SCHCSHCHCPC4PCH2CH2CH2CHSC2HCHFeHC5H2CHCH3C2H2SH3SCHCH2CHCFeH2PHC6H4C7HCH5C4H2PH2CPCHC4H2CH2CH2C2SC5H2CSH3C3H2SHC3FeC2H3C3H2CHCHCHC4H6CHCHSCH2C6HCHCHC4H2SCH3CH2C3HC3HC2H2CPSHCH3C2HC2HCHCSCH6CH3PC2H3CHCFeH2C2HC5HCSC4HSHC3HCHCFeCS2HSHC3H2C3HSC2HSFeHC6HCHCH5C6H4SCHC3HCH3SFeHCHFeC4PC2SC3Fe2HC4FeC3HCHCSCPCHC4HC2FeCH3SCHSC7H2C2HC3H2C3SCH3CHFeHCHCH2C5HS2H2C4HCPSHCH4S2C5HCHCHPHCFeH4C3HCH2FeC5H2C5HCHC2H4C2HC2H2C2HSC2HC2H2C2H2CHCHCH4C4H3C2H2CH4FeCH2C5HCSHC2HCHFeH3SH3CH4CHS2CHCHCHSH2CH3CSHCHC2HCS2HCH2SC4H2CHC4HCSHCH2CSC5SCHC2Fe2HCFeCHFeHC2H2CHFeSH3FeC4H2SC5HCH3CHSHCHC2H2CH2CH2C3H8C4HPH2SHCH2C6HCHCHC4HCH3CPC2SHCHC4SCHCHC2HCHCSC2PHCFeHCHC2H2C3HCH4C2HPC3HC2H2C2HC4H2C4HC5HC2FeHC3HC2HC2H2CHCH2C2H3CHC4H2FeCHCHCH2C2FeSHSCH2CSC4FeH2CH6C4H2CHCSHCH2C3HFeCH2C5H2C2HSHC2HPCSHC3HCH6CHC2PH2CHSC3FeH3C2HCFeHSC2SCHC3SCHC6SHCH3C2SHC2H
_chemical_formula_sum              "H960 C1200 P40 S160 Fe80"
_cell_length_a       22.7912
_cell_length_b       46.2093
_cell_length_c       30.6792
_cell_angle_alpha    87.0468
_cell_angle_beta     87.1682
_cell_angle_gamma    88.0665

_space_group_name_H-M_alt    "P 1"
_space_group_IT_number       1

loop_
  _space_group_symop_operation_xyz
  'x, y, z'

loop_
  _atom_site_type_symbol
  _atom_site_label
  _atom_site_symmetry_multiplicity
  _atom_site_fract_x
  _atom_site_fract_y
  _atom_site_fract_z
  _atom_site_occupancy
  H   H1        1.0  0.62015  0.28331  0.51109  1.0000
  C   C1        1.0  0.37028  0.18608  0.55491  1.0000
  C   C2        1.0  0.16190  0.13692  0.60138  1.0000
  P   P1        1.0  0.13475  0.11626  0.45257  1.0000
  C   C3        1.0  0.02440  0.12079  0.41874  1.0000
  C   C4        1.0  0.19537  0.34623  0.44140  1.0000
  C   C5        1.0  0.65357  0.24982  0.46963  1.0000
  C   C6        1.0  0.97399  0.32250  0.39885  1.0000
  H   H2        1.0  0.42500  0.19662  0.41412  1.0000
  C   C7        1.0  0.67123  0.32136  0.39287  1.0000
  H   H3        1.0  0.04002  0.31401  0.44615  1.0000
  H   H4        1.0  0.11826  0.23822  0.54990  1.0000
  C   C8        1.0  0.46738  0.19955  0.39735  1.0000
  H   H5        1.0  0.69990  0.21795  0.43090  1.0000
  H   H6        1.0  0.16870  0.20796  0.38767  1.0000
  H   H7        1.0  0.28630  0.33928  0.42133  1.0000
  H   H8        1.0  0.73921  0.13967  0.51320  1.0000
  H   H9        1.0  0.17302  0.13392  0.56727  1.0000
  H   H10       1.0  0.91774  0.31271  0.60663  1.0000
  S   S1        1.0  0.39350  0.33139  0.49297  1.0000
  H   H11       1.0  0.67426  0.26176  0.59991  1.0000
  H   H12       1.0  0.84007  0.14500  0.40964  1.0000
  C   C9        1.0  0.47362  0.22198  0.36540  1.0000
  C   C10       1.0  0.36751  0.15801  0.54053  1.0000
  P   P2        1.0  0.50803  0.15368  0.45135  1.0000
  S   S2        1.0  0.48746  0.28499  0.53761  1.0000
  C   C11       1.0  0.25849  0.26281  0.48342  1.0000
  H   H13       1.0  0.38098  0.34187  0.58588  1.0000
  H   H14       1.0  0.61325  0.28564  0.39061  1.0000
  Fe  Fe1       1.0  0.91508  0.20374  0.54977  1.0000
  Fe  Fe2       1.0  0.48843  0.33043  0.50896  1.0000
  C   C12       1.0  0.51573  0.18145  0.40797  1.0000
  C   C13       1.0  0.76355  0.27375  0.47720  1.0000
  H   H15       1.0  0.20919  0.25763  0.42639  1.0000
  Fe  Fe3       1.0  0.89521  0.26403  0.51119  1.0000
  H   H16       1.0  0.60842  0.17250  0.39266  1.0000
  S   S3        1.0  0.87515  0.24408  0.57798  1.0000
  H   H17       1.0  0.20719  0.24917  0.58822  1.0000
  H   H18       1.0  0.01210  0.10352  0.44231  1.0000
  H   H19       1.0  0.85841  0.17572  0.47123  1.0000
  H   H20       1.0  0.32477  0.15499  0.39738  1.0000
  H   H21       1.0  0.41624  0.22602  0.54881  1.0000
  H   H22       1.0  0.66775  0.17369  0.54809  1.0000
  C   C14       1.0  0.72674  0.33179  0.38086  1.0000
  C   C15       1.0  0.25838  0.26000  0.52907  1.0000
  S   S4        1.0  0.98331  0.27952  0.52669  1.0000
  H   H23       1.0  0.93993  0.32845  0.42315  1.0000
  S   S5        1.0  0.39674  0.34015  0.36764  1.0000
  H   H24       1.0  0.40467  0.12643  0.49804  1.0000
  H   H25       1.0  0.32457  0.19361  0.45118  1.0000
  C   C16       1.0  0.75906  0.24872  0.45390  1.0000
  H   H26       1.0  0.99034  0.14963  0.56505  1.0000
  H   H27       1.0  0.14094  0.16033  0.37962  1.0000
  C   C17       1.0  0.48135  0.12109  0.43028  1.0000
  S   S6        1.0  0.58393  0.23812  0.45866  1.0000
  S   S7        1.0  0.42219  0.26857  0.44835  1.0000
  H   H28       1.0  0.33799  0.19393  0.57896  1.0000
  S   S8        1.0  0.52182  0.31847  0.44245  1.0000
  C   C18       1.0  0.03032  0.31431  0.41187  1.0000
  H   H29       1.0  0.29727  0.26986  0.46484  1.0000
  H   H30       1.0  0.71848  0.30353  0.51948  1.0000
  H   H31       1.0  0.73918  0.35242  0.39218  1.0000
  C   C19       1.0  0.09322  0.11239  0.50406  1.0000
  C   C20       1.0  0.84493  0.13517  0.44209  1.0000
  C   C21       1.0  0.28919  0.15688  0.42181  1.0000
  H   H32       1.0  0.49059  0.24430  0.60874  1.0000
  H   H33       1.0  0.05833  0.15672  0.50116  1.0000
  H   H34       1.0  0.85690  0.27917  0.38507  1.0000
  C   C22       1.0  0.65880  0.27357  0.49532  1.0000
  S   S9        1.0  0.82969  0.29203  0.47618  1.0000
  Fe  Fe4       1.0  0.42700  0.31596  0.42829  1.0000
  H   H35       1.0  0.15808  0.16638  0.50554  1.0000
  Fe  Fe5       1.0  0.96738  0.25518  0.59093  1.0000
  H   H36       1.0  0.67338  0.13680  0.61217  1.0000
  H   H37       1.0  0.61446  0.33464  0.49151  1.0000
  C   C23       1.0  0.20844  0.25594  0.46165  1.0000
  C   C24       1.0  0.41435  0.20421  0.53786  1.0000
  C   C25       1.0  0.20755  0.25124  0.55290  1.0000
  H   H38       1.0  0.95238  0.26208  0.41168  1.0000
  C   C26       1.0  0.93679  0.25357  0.38228  1.0000
  C   C27       1.0  0.98218  0.13263  0.39128  1.0000
  H   H39       1.0  0.18844  0.32345  0.44993  1.0000
  H   H40       1.0  0.48886  0.20892  0.49331  1.0000
  H   H41       1.0  0.64089  0.33404  0.41290  1.0000
  H   H42       1.0  0.64526  0.31346  0.57555  1.0000
  Fe  Fe6       1.0  0.51411  0.27274  0.46972  1.0000
  C   C28       1.0  0.19480  0.16283  0.48269  1.0000
  C   C29       1.0  0.57964  0.14735  0.47367  1.0000
  C   C30       1.0  0.65408  0.16041  0.52261  1.0000
  C   C31       1.0  0.43861  0.12302  0.39877  1.0000
  H   H43       1.0  0.60984  0.11714  0.42506  1.0000
  H   H44       1.0  0.24180  0.19830  0.50563  1.0000
  C   C32       1.0  0.85576  0.15259  0.47699  1.0000
  C   C33       1.0  0.45576  0.19436  0.50655  1.0000
  H   H45       1.0  0.33295  0.14403  0.55367  1.0000
  C   C34       1.0  0.71399  0.28523  0.49958  1.0000
  H   H46       1.0  0.71950  0.34397  0.47153  1.0000
  H   H47       1.0  0.79759  0.23937  0.43730  1.0000
  S   S10       1.0  0.00669  0.21291  0.56832  1.0000
  C   C35       1.0  0.15716  0.24497  0.53118  1.0000
  C   C36       1.0  0.28879  0.17871  0.45167  1.0000
  H   H48       1.0  0.56689  0.17880  0.52370  1.0000
  C   C37       1.0  0.59673  0.16328  0.50846  1.0000
  H   H49       1.0  0.74004  0.22036  0.57964  1.0000
  Fe  Fe7       1.0  0.01589  0.23664  0.50310  1.0000
  C   C38       1.0  0.83965  0.10519  0.44945  1.0000
  Fe  Fe8       1.0  0.39568  0.28451  0.51439  1.0000
  C   C39       1.0  0.24192  0.18145  0.48235  1.0000
  S   S11       1.0  0.92871  0.22306  0.48203  1.0000
  S   S12       1.0  0.87021  0.16125  0.56448  1.0000
  C   C40       1.0  0.45408  0.16607  0.49225  1.0000
  C   C41       1.0  0.40881  0.14808  0.50905  1.0000
  H   H50       1.0  0.14963  0.18323  0.59322  1.0000
  S   S13       1.0  0.32146  0.26665  0.55699  1.0000
  S   S14       1.0  0.09638  0.23678  0.45814  1.0000
  C   C42       1.0  0.19543  0.14041  0.45344  1.0000
  H   H51       1.0  0.49904  0.13782  0.59494  1.0000
  C   C43       1.0  0.86026  0.14013  0.51940  1.0000
  C   C44       1.0  0.70391  0.23660  0.45035  1.0000
  C   C45       1.0  0.15783  0.24678  0.48552  1.0000
  C   C46       1.0  0.24309  0.13760  0.42301  1.0000
  C   C47       1.0  0.57020  0.18597  0.38547  1.0000
  H   H52       1.0  0.71123  0.35245  0.59212  1.0000
  C   C48       1.0  0.69463  0.14143  0.50258  1.0000
  C   C49       1.0  0.05771  0.13572  0.51867  1.0000
  C   C50       1.0  0.65562  0.29420  0.38018  1.0000
  C   C51       1.0  0.62105  0.12854  0.45333  1.0000
  C   C52       1.0  0.67825  0.12557  0.46784  1.0000
  H   H53       1.0  0.11752  0.30007  0.39164  1.0000
  H   H54       1.0  0.71059  0.11178  0.45119  1.0000
  C   C53       1.0  0.51936  0.11636  0.59780  1.0000
  C   C54       1.0  0.01828  0.13171  0.55456  1.0000
  C   C55       1.0  0.08186  0.13097  0.41535  1.0000
  H   H55       1.0  0.24405  0.12085  0.39954  1.0000
  H   H56       1.0  0.59505  0.22923  0.59527  1.0000
  H   H57       1.0  0.36266  0.28059  0.37021  1.0000
  H   H58       1.0  0.93877  0.12394  0.39285  1.0000
  C   C56       1.0  0.85305  0.11031  0.52678  1.0000
  C   C57       1.0  0.07389  0.30593  0.38091  1.0000
  H   H59       1.0  0.42790  0.14358  0.38220  1.0000
  C   C58       1.0  0.09649  0.15293  0.38396  1.0000
  C   C59       1.0  0.63667  0.32532  0.60478  1.0000
  H   H60       1.0  0.01265  0.22536  0.37254  1.0000
  H   H61       1.0  0.10750  0.25081  0.36812  1.0000
  C   C60       1.0  0.01306  0.10440  0.57573  1.0000
  C   C61       1.0  0.88266  0.26340  0.36682  1.0000
  C   C62       1.0  0.73568  0.22648  0.61338  1.0000
  C   C63       1.0  0.64876  0.12689  0.68029  1.0000
  H   H62       1.0  0.83673  0.14630  0.69797  1.0000
  C   C64       1.0  0.27583  0.12448  0.83675  1.0000
  C   C65       1.0  0.88145  0.28221  0.75913  1.0000
  C   C66       1.0  0.92455  0.14405  0.66969  1.0000
  C   C67       1.0  0.55478  0.23967  0.73898  1.0000
  H   H63       1.0  0.88488  0.30386  0.74423  1.0000
  C   C68       1.0  0.10861  0.18704  0.75446  1.0000
  C   C69       1.0  0.58694  0.18817  0.63159  1.0000
  H   H64       1.0  0.45697  0.16302  0.67599  1.0000
  C   C70       1.0  0.31351  0.16113  0.68078  1.0000
  H   H65       1.0  0.83781  0.26648  0.70545  1.0000
  H   H66       1.0  0.55362  0.16662  0.75070  1.0000
  H   H67       1.0  0.18726  0.24836  0.73726  1.0000
  C   C71       1.0  0.22944  0.12082  0.76774  1.0000
  C   C72       1.0  0.77883  0.17930  0.76463  1.0000
  C   C73       1.0  0.69321  0.25781  0.66823  1.0000
  H   H68       1.0  0.31304  0.12017  0.85696  1.0000
  H   H69       1.0  0.64141  0.16275  0.80582  1.0000
  C   C74       1.0  0.71602  0.35083  0.79631  1.0000
  C   C75       1.0  0.44020  0.33367  0.63789  1.0000
  H   H70       1.0  0.97509  0.11067  0.86163  1.0000
  H   H71       1.0  0.41125  0.28998  0.72900  1.0000
  H   H72       1.0  0.23261  0.11375  0.73468  1.0000
  C   C76       1.0  0.03736  0.12753  0.81225  1.0000
  C   C77       1.0  0.54080  0.29213  0.73507  1.0000
  H   H73       1.0  0.72384  0.25018  0.73307  1.0000
  C   C78       1.0  0.16157  0.11300  0.63089  1.0000
  P   P3        1.0  0.81643  0.20496  0.72754  1.0000
  H   H74       1.0  0.63102  0.26998  0.81637  1.0000
  H   H75       1.0  0.01361  0.18622  0.75921  1.0000
  H   H76       1.0  0.71141  0.30464  0.79076  1.0000
  H   H77       1.0  0.66376  0.27564  0.67726  1.0000
  H   H78       1.0  0.58850  0.31472  0.78153  1.0000
  H   H79       1.0  0.26577  0.19140  0.63896  1.0000
  C   C79       1.0  0.90721  0.27512  0.79874  1.0000
  C   C80       1.0  0.59081  0.24151  0.77422  1.0000
  C   C81       1.0  0.14930  0.23488  0.74261  1.0000
  C   C82       1.0  0.14668  0.28179  0.83407  1.0000
  H   H80       1.0  0.46583  0.32330  0.79729  1.0000
  H   H81       1.0  0.01786  0.20021  0.66106  1.0000
  C   C83       1.0  0.08980  0.27167  0.84113  1.0000
  C   C84       1.0  0.72448  0.32497  0.77464  1.0000
  C   C85       1.0  0.60309  0.26860  0.78914  1.0000
  H   H82       1.0  0.63891  0.11139  0.74825  1.0000
  C   C86       1.0  0.46813  0.20477  0.64414  1.0000
  C   C87       1.0  0.35364  0.29779  0.67622  1.0000
  C   C88       1.0  0.34477  0.31243  0.63601  1.0000
  H   H83       1.0  0.92177  0.24175  0.84906  1.0000
  C   C89       1.0  0.98551  0.32079  0.70142  1.0000
  C   C90       1.0  0.96881  0.30768  0.66395  1.0000
  C   C91       1.0  0.27633  0.11407  0.79481  1.0000
  H   H84       1.0  0.20155  0.19560  0.74896  1.0000
  Fe  Fe9       1.0  0.37182  0.23397  0.82885  1.0000
  C   C92       1.0  0.84711  0.23310  0.75732  1.0000
  S   S15       1.0  0.30244  0.13264  0.64671  1.0000
  P   P4        1.0  0.51484  0.32483  0.70669  1.0000
  H   H85       1.0  0.05987  0.13910  0.83562  1.0000
  H   H86       1.0  0.01415  0.30913  0.72373  1.0000
  C   C93       1.0  0.32855  0.20883  0.73187  1.0000
  H   H87       1.0  0.00000  0.23936  0.74775  1.0000
  C   C94       1.0  0.35182  0.18142  0.74491  1.0000
  H   H88       1.0  0.92218  0.12154  0.66186  1.0000
  C   C95       1.0  0.71734  0.18074  0.77079  1.0000
  C   C96       1.0  0.97593  0.15916  0.65947  1.0000
  C   C97       1.0  0.13772  0.14427  0.69103  1.0000
  C   C98       1.0  0.77195  0.35116  0.71326  1.0000
  C   C99       1.0  0.66854  0.11425  0.71981  1.0000
  C   C100      1.0  0.04386  0.22965  0.74842  1.0000
  C   C101      1.0  0.98862  0.11156  0.82720  1.0000
  C   C102      1.0  0.85296  0.26112  0.73786  1.0000
  C   C103      1.0  0.02412  0.11346  0.73867  1.0000
  H   H89       1.0  0.07885  0.25106  0.82907  1.0000
  C   C104      1.0  0.44979  0.31870  0.67796  1.0000
  C   C105      1.0  0.97828  0.18828  0.66892  1.0000
  C   C106      1.0  0.85716  0.33931  0.84418  1.0000
  C   C107      1.0  0.68867  0.16112  0.80011  1.0000
  C   C108      1.0  0.57534  0.33500  0.66965  1.0000
  C   C109      1.0  0.67369  0.34743  0.61405  1.0000
  H   H90       1.0  0.69752  0.35010  0.82955  1.0000
  S   S16       1.0  0.99437  0.27220  0.65420  1.0000
  C   C110      1.0  0.58746  0.31922  0.63222  1.0000
  C   C111      1.0  0.74629  0.11839  0.64646  1.0000
  H   H91       1.0  0.78132  0.31242  0.85261  1.0000
  C   C112      1.0  0.68820  0.12877  0.64361  1.0000
  C   C113      1.0  0.09255  0.24715  0.74098  1.0000
  C   C114      1.0  0.16100  0.30811  0.85046  1.0000
  H   H92       1.0  0.75890  0.30527  0.71611  1.0000
  H   H93       1.0  0.14479  0.16094  0.83771  1.0000
  C   C115      1.0  0.46703  0.34570  0.78485  1.0000
  H   H94       1.0  0.93191  0.22512  0.69413  1.0000
  H   H95       1.0  0.60841  0.22199  0.79058  1.0000
  H   H96       1.0  0.42443  0.11888  0.82785  1.0000
  C   C116      1.0  0.53038  0.26489  0.71915  1.0000
  C   C117      1.0  0.49080  0.35289  0.74277  1.0000
  H   H97       1.0  0.42201  0.21109  0.64890  1.0000
  C   C118      1.0  0.18074  0.14747  0.82555  1.0000
  C   C119      1.0  0.05175  0.19961  0.75507  1.0000
  C   C120      1.0  0.76492  0.10510  0.68553  1.0000
  H   H98       1.0  0.08619  0.27023  0.73420  1.0000
  C   C121      1.0  0.87603  0.15805  0.68995  1.0000
  C   C122      1.0  0.72107  0.13962  0.82287  1.0000
  C   C123      1.0  0.22797  0.14122  0.85212  1.0000
  C   C124      1.0  0.29851  0.21228  0.69326  1.0000
  C   C125      1.0  0.91049  0.35096  0.64440  1.0000
  C   C126      1.0  0.40570  0.30112  0.69742  1.0000
  H   H99       1.0  0.32021  0.28374  0.69092  1.0000
  C   C127      1.0  0.72727  0.24336  0.69974  1.0000
  C   C128      1.0  0.87173  0.22641  0.79780  1.0000
  C   C129      1.0  0.76727  0.22097  0.68792  1.0000
  C   C130      1.0  0.96414  0.34874  0.71069  1.0000
  H   H100      1.0  0.16564  0.21124  0.83969  1.0000
  C   C131      1.0  0.57839  0.29387  0.76960  1.0000
  C   C132      1.0  0.54805  0.16908  0.65407  1.0000
  H   H101      1.0  0.50327  0.26302  0.69153  1.0000
  H   H102      1.0  0.20539  0.31568  0.84515  1.0000
  C   C133      1.0  0.15731  0.20496  0.74970  1.0000
  H   H103      1.0  0.86863  0.20500  0.81348  1.0000
  H   H104      1.0  0.69873  0.12462  0.84575  1.0000
  C   C134      1.0  0.18088  0.13757  0.78307  1.0000
  C   C135      1.0  0.90206  0.24730  0.81822  1.0000
  S   S17       1.0  0.46504  0.24412  0.84000  1.0000
  H   H105      1.0  0.17994  0.26892  0.81661  1.0000
  C   C136      1.0  0.93111  0.32277  0.63548  1.0000
  C   C137      1.0  0.75190  0.32521  0.73291  1.0000
  H   H106      1.0  0.54509  0.21875  0.72721  1.0000
  S   S18       1.0  0.33550  0.23956  0.76234  1.0000
  H   H107      1.0  0.93136  0.29117  0.81418  1.0000
  H   H108      1.0  0.28054  0.23334  0.68287  1.0000
  H   H109      1.0  0.79970  0.19454  0.63486  1.0000
  H   H110      1.0  0.37536  0.17870  0.77464  1.0000
  H   H111      1.0  0.12719  0.19005  0.67050  1.0000
  C   C138      1.0  0.48839  0.17759  0.65989  1.0000
  H   H112      1.0  0.69146  0.19706  0.75333  1.0000
  C   C139      1.0  0.45409  0.12076  0.79923  1.0000
  C   C140      1.0  0.92936  0.20240  0.68820  1.0000
  C   C141      1.0  0.76973  0.21194  0.64485  1.0000
  H   H113      1.0  0.55893  0.30219  0.62417  1.0000
  H   H114      1.0  0.01387  0.14844  0.64410  1.0000
  C   C142      1.0  0.29035  0.18850  0.66823  1.0000
  P   P5        1.0  0.12050  0.14865  0.74892  1.0000
  C   C143      1.0  0.87828  0.18722  0.69981  1.0000
  C   C144      1.0  0.13693  0.16826  0.66061  1.0000
  C   C145      1.0  0.52729  0.14757  0.75562  1.0000
  P   P6        1.0  0.57097  0.13298  0.67332  1.0000
  C   C146      1.0  0.34479  0.15753  0.71897  1.0000
  C   C147      1.0  0.78223  0.13794  0.81684  1.0000
  C   C148      1.0  0.05611  0.12849  0.76784  1.0000
  H   H115      1.0  0.48686  0.16166  0.81617  1.0000
  C   C149      1.0  0.81107  0.15775  0.78801  1.0000
  C   C150      1.0  0.48951  0.14483  0.79277  1.0000
  H   H116      1.0  0.85860  0.15634  0.78429  1.0000
  H   H117      1.0  0.36355  0.13649  0.72830  1.0000
  H   H118      1.0  0.80751  0.12154  0.83492  1.0000
  C   C151      1.0  0.69853  0.24982  0.62484  1.0000
  C   C152      1.0  0.52929  0.12643  0.72425  1.0000
  C   C153      1.0  0.55448  0.10781  0.63286  1.0000
  H   H119      1.0  0.03692  0.11344  0.70437  1.0000
  C   C154      1.0  0.14993  0.11663  0.67555  1.0000
  H   H120      1.0  0.79478  0.35127  0.68142  1.0000
  C   C155      1.0  0.91247  0.34474  0.85922  1.0000
  H   H121      1.0  0.63300  0.18242  0.62672  1.0000
  H   H122      1.0  0.77654  0.11993  0.61802  1.0000
  C   C156      1.0  0.50683  0.22343  0.62131  1.0000
  C   C157      1.0  0.38807  0.33033  0.61685  1.0000
  H   H123      1.0  0.83977  0.35268  0.81751  1.0000
  H   H124      1.0  0.47258  0.34818  0.62311  1.0000
  H   H125      1.0  0.30437  0.30977  0.61964  1.0000
  C   C158      1.0  0.72636  0.10337  0.72232  1.0000
  C   C159      1.0  0.82443  0.31661  0.86348  1.0000
  C   C160      1.0  0.56592  0.21503  0.61447  1.0000
  C   C161      1.0  0.14918  0.16456  0.61612  1.0000
  H   H126      1.0  0.08595  0.21251  0.07305  1.0000
  Fe  Fe10      1.0  0.45888  0.20718  0.89082  1.0000
  H   H127      1.0  0.47224  0.27186  0.10171  1.0000
  H   H128      1.0  0.54563  0.15180  0.98818  1.0000
  C   C162      1.0  0.19123  0.30172  0.01926  1.0000
  H   H129      1.0  0.59466  0.19563  0.00617  1.0000
  H   H130      1.0  0.06570  0.28260  0.95700  1.0000
  C   C163      1.0  0.98879  0.29176  0.05297  1.0000
  C   C164      1.0  0.28945  0.30997  0.96247  1.0000
  C   C165      1.0  0.98878  0.10354  0.07198  1.0000
  C   C166      1.0  0.14809  0.21274  0.96577  1.0000
  C   C167      1.0  0.93531  0.32749  0.89383  1.0000
  C   C168      1.0  0.86160  0.24869  0.06110  1.0000
  H   H131      1.0  0.04941  0.25873  0.02959  1.0000
  P   P7        1.0  0.64966  0.21170  0.08752  1.0000
  H   H132      1.0  0.22786  0.15009  0.88415  1.0000
  C   C169      1.0  0.70890  0.20729  0.89790  1.0000
  C   C170      1.0  0.04735  0.28748  0.86499  1.0000
  C   C171      1.0  0.56122  0.31061  0.88765  1.0000
  C   C172      1.0  0.24665  0.29086  0.03175  1.0000
  C   C173      1.0  0.64434  0.16693  0.91238  1.0000
  C   C174      1.0  0.37807  0.27316  0.09751  1.0000
  C   C175      1.0  0.51798  0.32356  0.91476  1.0000
  C   C176      1.0  0.96468  0.33063  0.00048  1.0000
  C   C177      1.0  0.90234  0.30434  0.91236  1.0000
  C   C178      1.0  0.58783  0.17882  0.03157  1.0000
  C   C179      1.0  0.60668  0.18153  0.07413  1.0000
  C   C180      1.0  0.18510  0.31598  0.97832  1.0000
  H   H133      1.0  0.33910  0.28689  0.01081  1.0000
  C   C181      1.0  0.59298  0.34832  0.95050  1.0000
  C   C182      1.0  0.09927  0.20826  0.94141  1.0000
  C   C183      1.0  0.59772  0.15870  0.10546  1.0000
  C   C184      1.0  0.03661  0.29321  0.98065  1.0000
  C   C185      1.0  0.62857  0.25007  0.01748  1.0000
  S   S19       1.0  0.95515  0.21095  0.06799  1.0000
  C   C186      1.0  0.67061  0.23204  0.03823  1.0000
  C   C187      1.0  0.33629  0.22924  0.07443  1.0000
  Fe  Fe11      1.0  0.74491  0.33084  0.09133  1.0000
  H   H134      1.0  0.50017  0.35281  0.96657  1.0000
  H   H135      1.0  0.72105  0.15856  0.07757  1.0000
  C   C188      1.0  0.93796  0.12127  0.07292  1.0000
  H   H136      1.0  0.63811  0.14424  0.92125  1.0000
  C   C189      1.0  0.74527  0.24927  0.98547  1.0000
  Fe  Fe12      1.0  0.92658  0.19358  0.00550  1.0000
  H   H137      1.0  0.13078  0.34428  0.88735  1.0000
  C   C190      1.0  0.23436  0.32043  0.95021  1.0000
  S   S20       1.0  0.33430  0.26448  0.87791  1.0000
  C   C191      1.0  0.62040  0.31710  0.89125  1.0000
  H   H138      1.0  0.08990  0.13434  0.03195  1.0000
  C   C192      1.0  0.70092  0.17819  0.91105  1.0000
  Fe  Fe13      1.0  0.33951  0.22652  0.92571  1.0000
  H   H139      1.0  0.25112  0.21962  0.88234  1.0000
  C   C193      1.0  0.84726  0.29901  0.89718  1.0000
  C   C194      1.0  0.57179  0.13340  0.09416  1.0000
  H   H140      1.0  0.73847  0.16423  0.91870  1.0000
  H   H141      1.0  0.71150  0.10691  0.11198  1.0000
  H   H142      1.0  0.61214  0.28107  0.96482  1.0000
  Fe  Fe14      1.0  0.97448  0.18523  0.91348  1.0000
  Fe  Fe15      1.0  0.42705  0.27123  0.89377  1.0000
  H   H143      1.0  0.89414  0.15815  0.10140  1.0000
  C   C195      1.0  0.32869  0.25790  0.08734  1.0000
  C   C196      1.0  0.02797  0.27956  0.02211  1.0000
  C   C197      1.0  0.63628  0.33564  0.92312  1.0000
  C   C198      1.0  0.10599  0.20668  0.89607  1.0000
  H   H144      1.0  0.65952  0.27381  0.09862  1.0000
  H   H145      1.0  0.10047  0.11976  0.91376  1.0000
  C   C199      1.0  0.66054  0.22535  0.88817  1.0000
  C   C200      1.0  0.43419  0.25993  0.09441  1.0000
  H   H146      1.0  0.91886  0.29012  0.93841  1.0000
  S   S21       1.0  0.44384  0.31712  0.90895  1.0000
  C   C201      1.0  0.73694  0.16956  0.10464  1.0000
  C   C202      1.0  0.20311  0.21654  0.94462  1.0000
  C   C203      1.0  0.11851  0.32419  0.87423  1.0000
  H   H147      1.0  0.22012  0.33805  0.07709  1.0000
  S   S22       1.0  0.66301  0.34442  0.05708  1.0000
  C   C204      1.0  0.29567  0.29499  0.00272  1.0000
  H   H148      1.0  0.79042  0.24895  0.97291  1.0000
  C   C205      1.0  0.53373  0.34261  0.94585  1.0000
  C   C206      1.0  0.15953  0.24025  0.07864  1.0000
  H   H149      1.0  0.39773  0.19391  0.06167  1.0000
  H   H150      1.0  0.48455  0.22099  0.07922  1.0000
  S   S23       1.0  0.71044  0.34172  0.92986  1.0000
  C   C207      1.0  0.56068  0.15365  0.02081  1.0000
  Fe  Fe16      1.0  0.84610  0.19599  0.92925  1.0000
  C   C208      1.0  0.03309  0.10741  0.10117  1.0000
  H   H151      1.0  0.92547  0.32626  0.06570  1.0000
  H   H152      1.0  0.05687  0.20558  0.95792  1.0000
  H   H153      1.0  0.58314  0.25074  0.02969  1.0000
  S   S24       1.0  0.52604  0.17094  0.90030  1.0000
  H   H154      1.0  0.15916  0.15296  0.97408  1.0000
  C   C209      1.0  0.12094  0.21844  0.09329  1.0000
  H   H155      1.0  0.76181  0.21745  0.03696  1.0000
  H   H156      1.0  0.98035  0.28065  0.08443  1.0000
  C   C210      1.0  0.64494  0.26749  0.98082  1.0000
  C   C211      1.0  0.23266  0.33300  0.11010  1.0000
  C   C212      1.0  0.93146  0.14315  0.10257  1.0000
  H   H157      1.0  0.53203  0.11142  0.04373  1.0000
  C   C213      1.0  0.70342  0.26726  0.96496  1.0000
  C   C214      1.0  0.95752  0.31739  0.04229  1.0000
  S   S25       1.0  0.89718  0.16161  0.89395  1.0000
  H   H158      1.0  0.15308  0.29980  0.04152  1.0000
  S   S26       1.0  0.80437  0.33542  0.03112  1.0000
  H   H159      1.0  0.72701  0.11897  0.03214  1.0000
  H   H160      1.0  0.14237  0.32394  0.96858  1.0000
  C   C215      1.0  0.39231  0.21602  0.07182  1.0000
  C   C216      1.0  0.90024  0.23417  0.08917  1.0000
  C   C217      1.0  0.44127  0.23135  0.08168  1.0000
  C   C218      1.0  0.20902  0.21658  0.89909  1.0000
  C   C219      1.0  0.00533  0.31913  0.96958  1.0000
  C   C220      1.0  0.55316  0.13086  0.05197  1.0000
  H   H161      1.0  0.14358  0.21211  0.00088  1.0000
  H   H162      1.0  0.32756  0.31321  0.94054  1.0000
  C   C221      1.0  0.20493  0.24794  0.10472  1.0000
  H   H163      1.0  0.54877  0.29573  0.86398  1.0000
  H   H164      1.0  0.37350  0.29529  0.10731  1.0000
  S   S27       1.0  0.26488  0.22019  0.97482  1.0000
  C   C222      1.0  0.59609  0.18504  0.90159  1.0000
  H   H165      1.0  0.29916  0.21713  0.06556  1.0000
  H   H166      1.0  0.78664  0.27794  0.05619  1.0000
  P   P8        1.0  0.00683  0.33395  0.91379  1.0000
  Fe  Fe17      1.0  0.90122  0.13889  0.96010  1.0000
  H   H167      1.0  0.65405  0.30685  0.87072  1.0000
  H   H168      1.0  0.23029  0.33191  0.91885  1.0000
  S   S28       1.0  0.92384  0.22148  0.94396  1.0000
  H   H169      1.0  0.37468  0.34108  0.05567  1.0000
  H   H170      1.0  0.86592  0.24560  0.02643  1.0000
  S   S29       1.0  0.98472  0.15918  0.97603  1.0000
  C   C223      1.0  0.60411  0.21437  0.89068  1.0000
  S   S30       1.0  0.84228  0.17134  0.99471  1.0000
  H   H171      1.0  0.15507  0.25005  0.04632  1.0000
  S   S31       1.0  0.77875  0.22170  0.89215  1.0000
  C   C224      1.0  0.72880  0.23129  0.02159  1.0000
  C   C225      1.0  0.81750  0.26738  0.07781  1.0000
  C   C226      1.0  0.40675  0.10483  0.05188  1.0000
  H   H172      1.0  0.82213  0.28112  0.91140  1.0000
  P   P9        1.0  0.25669  0.27552  0.08655  1.0000
  H   H173      1.0  0.71619  0.28045  0.93615  1.0000
  S   S32       1.0  0.42971  0.23537  0.94577  1.0000
  C   C227      1.0  0.16936  0.13273  0.99190  1.0000
  H   H174      1.0  0.42691  0.12136  0.03039  1.0000
  C   C228      1.0  0.12981  0.12183  0.02452  1.0000
  H   H175      1.0  0.00438  0.27846  0.87132  1.0000
  C   C229      1.0  0.06119  0.31403  0.88148  1.0000
  C   C230      1.0  0.39783  0.10931  0.09649  1.0000
  H   H176      1.0  0.66679  0.24802  0.87952  1.0000
  C   C231      1.0  0.22259  0.11789  0.98284  1.0000
  H   H177      1.0  0.78424  0.10354  0.93913  1.0000
  H   H178      1.0  0.25381  0.12681  0.95841  1.0000
  H   H179      1.0  0.56702  0.22866  0.88388  1.0000
  S   S33       1.0  0.36822  0.19489  0.87515  1.0000
  C   C232      1.0  0.16048  0.21170  0.87483  1.0000
  H   H180      1.0  0.90435  0.11861  0.04985  1.0000
  H   H181      1.0  0.52101  0.10902  0.92748  1.0000
  H   H182      1.0  0.93642  0.34912  0.99167  1.0000
  S   S34       1.0  0.04757  0.19657  0.86620  1.0000
  C   C233      1.0  0.97111  0.23311  0.35982  1.0000
  H   H183      1.0  0.56578  0.11580  0.11819  1.0000
  C   C234      1.0  0.78357  0.31815  0.24801  1.0000
  H   H184      1.0  0.99338  0.31294  0.28994  1.0000
  H   H185      1.0  0.61830  0.21197  0.33684  1.0000
  S   S35       1.0  0.84614  0.12698  0.29035  1.0000
  S   S36       1.0  0.32160  0.17710  0.20642  1.0000
  C   C235      1.0  0.81176  0.27153  0.12253  1.0000
  C   C236      1.0  0.17212  0.11975  0.14008  1.0000
  H   H186      1.0  0.92451  0.22678  0.15587  1.0000
  H   H187      1.0  0.91737  0.32819  0.34486  1.0000
  H   H188      1.0  0.10137  0.29857  0.13544  1.0000
  H   H189      1.0  0.24998  0.23594  0.16395  1.0000
  C   C237      1.0  0.75959  0.21255  0.29962  1.0000
  C   C238      1.0  0.24417  0.23095  0.29465  1.0000
  H   H190      1.0  0.23465  0.14608  0.16791  1.0000
  C   C239      1.0  0.62382  0.26605  0.12029  1.0000
  Fe  Fe18      1.0  0.45587  0.15375  0.27384  1.0000
  C   C240      1.0  0.80173  0.17004  0.16475  1.0000
  C   C241      1.0  0.37313  0.28756  0.33670  1.0000
  H   H191      1.0  0.13698  0.31666  0.20343  1.0000
  C   C242      1.0  0.00427  0.31314  0.32384  1.0000
  H   H192      1.0  0.20246  0.17913  0.26391  1.0000
  C   C243      1.0  0.21668  0.12477  0.16791  1.0000
  Fe  Fe19      1.0  0.94035  0.11932  0.26755  1.0000
  C   C244      1.0  0.04967  0.26521  0.16849  1.0000
  C   C245      1.0  0.08658  0.11955  0.27114  1.0000
  H   H193      1.0  0.96869  0.16347  0.15577  1.0000
  C   C246      1.0  0.69532  0.27751  0.35519  1.0000
  H   H194      1.0  0.64838  0.18355  0.24782  1.0000
  S   S37       1.0  0.99719  0.15696  0.24657  1.0000
  H   H195      1.0  0.84475  0.25934  0.18549  1.0000
  H   H196      1.0  0.61226  0.16016  0.13835  1.0000
  H   H197      1.0  0.35813  0.24587  0.31183  1.0000
  C   C247      1.0  0.78049  0.15606  0.12977  1.0000
  H   H198      1.0  0.06495  0.18223  0.33320  1.0000
  C   C248      1.0  0.26723  0.32246  0.19562  1.0000
  C   C249      1.0  0.16102  0.32820  0.29090  1.0000
  C   C250      1.0  0.05191  0.26222  0.24728  1.0000
  H   H199      1.0  0.10066  0.19087  0.24130  1.0000
  C   C251      1.0  0.22917  0.21358  0.33191  1.0000
  C   C252      1.0  0.71290  0.19681  0.11518  1.0000
  H   H200      1.0  0.72049  0.23287  0.15631  1.0000
  C   C253      1.0  0.99643  0.15483  0.36068  1.0000
  H   H201      1.0  0.83520  0.15943  0.18444  1.0000
  C   C254      1.0  0.59204  0.12611  0.28148  1.0000
  Fe  Fe20      1.0  0.32585  0.15024  0.26925  1.0000
  C   C255      1.0  0.88088  0.29552  0.24401  1.0000
  H   H202      1.0  0.04027  0.25103  0.27811  1.0000
  H   H203      1.0  0.52292  0.29134  0.19577  1.0000
  C   C256      1.0  0.69314  0.10821  0.27683  1.0000
  H   H204      1.0  0.00527  0.23295  0.20994  1.0000
  C   C257      1.0  0.08670  0.28884  0.16681  1.0000
  C   C258      1.0  0.39983  0.32540  0.28262  1.0000
  H   H205      1.0  0.72499  0.16962  0.30011  1.0000
  C   C259      1.0  0.38235  0.27698  0.26014  1.0000
  C   C260      1.0  0.82280  0.29595  0.26200  1.0000
  C   C261      1.0  0.60866  0.23677  0.12164  1.0000
  H   H206      1.0  0.41196  0.34753  0.27446  1.0000
  S   S38       1.0  0.75620  0.29501  0.14265  1.0000
  H   H207      1.0  0.28141  0.31832  0.22859  1.0000
  H   H208      1.0  0.60494  0.30825  0.14491  1.0000
  H   H209      1.0  0.91247  0.27877  0.25353  1.0000
  C   C262      1.0  0.08863  0.28602  0.24607  1.0000
  C   C263      1.0  0.24978  0.35042  0.18130  1.0000
  C   C264      1.0  0.52777  0.22644  0.34328  1.0000
  H   H210      1.0  0.03565  0.25653  0.13868  1.0000
  P   P10       1.0  0.11835  0.29597  0.29644  1.0000
  S   S39       1.0  0.40026  0.12129  0.24567  1.0000
  C   C265      1.0  0.89862  0.31647  0.21195  1.0000
  S   S40       1.0  0.25274  0.12761  0.30640  1.0000
  C   C266      1.0  0.25122  0.30478  0.12395  1.0000
  H   H211      1.0  0.79764  0.20886  0.20046  1.0000
  C   C267      1.0  0.67331  0.22827  0.24064  1.0000
  H   H212      1.0  0.94265  0.31527  0.19702  1.0000
  S   S41       1.0  0.38139  0.18088  0.30208  1.0000
  H   H213      1.0  0.05648  0.13113  0.15690  1.0000
  C   C268      1.0  0.95160  0.22274  0.32124  1.0000
  C   C269      1.0  0.38909  0.31610  0.32629  1.0000
  H   H214      1.0  0.28098  0.22464  0.27317  1.0000
  C   C270      1.0  0.80164  0.33924  0.21640  1.0000
  C   C271      1.0  0.85031  0.25689  0.15078  1.0000
  H   H215      1.0  0.49742  0.23980  0.19976  1.0000
  H   H216      1.0  0.56807  0.29697  0.27518  1.0000
  C   C272      1.0  0.57852  0.31966  0.27580  1.0000
  C   C273      1.0  0.67831  0.19963  0.25732  1.0000
  C   C274      1.0  0.72167  0.19176  0.28667  1.0000
  C   C275      1.0  0.14650  0.24616  0.34804  1.0000
  C   C276      1.0  0.21164  0.25644  0.28489  1.0000
  C   C277      1.0  0.14273  0.11343  0.28638  1.0000
  C   C278      1.0  0.75601  0.24123  0.28185  1.0000
  H   H217      1.0  0.73873  0.31897  0.26121  1.0000
  C   C279      1.0  0.56313  0.22736  0.15066  1.0000
  C   C280      1.0  0.18041  0.22126  0.35861  1.0000
  C   C281      1.0  0.97426  0.14648  0.13273  1.0000
  C   C282      1.0  0.21584  0.32897  0.30978  1.0000
  H   H218      1.0  0.80905  0.32368  0.34595  1.0000
  C   C283      1.0  0.75079  0.28813  0.34196  1.0000
  H   H219      1.0  0.63958  0.23442  0.21814  1.0000
  C   C284      1.0  0.73632  0.21127  0.14899  1.0000
  C   C285      1.0  0.39673  0.30578  0.24955  1.0000
  C   C286      1.0  0.26804  0.29981  0.16710  1.0000
  C   C287      1.0  0.11293  0.16906  0.25263  1.0000
  S   S42       1.0  0.46472  0.18098  0.21206  1.0000
  C   C288      1.0  0.53277  0.24703  0.17752  1.0000
  H   H220      1.0  0.40584  0.31284  0.21578  1.0000
  C   C289      1.0  0.86312  0.25325  0.32799  1.0000
  H   H221      1.0  0.25442  0.19382  0.33960  1.0000
  C   C290      1.0  0.05347  0.16523  0.35729  1.0000
  C   C291      1.0  0.59306  0.28569  0.14679  1.0000
  H   H222      1.0  0.96334  0.16320  0.33894  1.0000
  C   C292      1.0  0.61969  0.33163  0.24537  1.0000
  H   H223      1.0  0.79053  0.20624  0.32432  1.0000
  C   C293      1.0  0.17009  0.16258  0.26605  1.0000
  C   C294      1.0  0.06084  0.30463  0.33678  1.0000
  C   C295      1.0  0.12828  0.20363  0.13355  1.0000
  H   H224      1.0  0.64102  0.31828  0.22079  1.0000
  C   C296      1.0  0.78028  0.19780  0.17391  1.0000
  C   C297      1.0  0.54993  0.33712  0.30662  1.0000
  H   H225      1.0  0.63513  0.11181  0.17676  1.0000
  H   H226      1.0  0.51723  0.32796  0.32975  1.0000
  C   C298      1.0  0.03237  0.25189  0.20872  1.0000
  C   C299      1.0  0.85890  0.33827  0.19799  1.0000
  C   C300      1.0  0.10650  0.29916  0.20549  1.0000
  H   H227      1.0  0.23581  0.30964  0.32508  1.0000
  Fe  Fe21      1.0  0.38452  0.20531  0.23678  1.0000
  H   H228      1.0  0.70841  0.27081  0.23818  1.0000
  H   H229      1.0  0.28357  0.27863  0.17845  1.0000
  C   C301      1.0  0.16288  0.26443  0.31190  1.0000
  H   H230      1.0  0.22408  0.26961  0.25592  1.0000
  S   S43       1.0  0.37835  0.25300  0.21831  1.0000
  P   P11       1.0  0.79850  0.26905  0.30351  1.0000
  C   C302      1.0  0.57607  0.20841  0.35337  1.0000
  C   C303      1.0  0.54740  0.27618  0.17543  1.0000
  C   C304      1.0  0.37001  0.26796  0.30361  1.0000
  H   H231      1.0  0.88400  0.22469  0.27504  1.0000
  H   H232      1.0  0.68227  0.25634  0.34664  1.0000
  C   C305      1.0  0.02465  0.12842  0.13257  1.0000
  C   C306      1.0  0.71269  0.24887  0.25204  1.0000
  H   H233      1.0  0.97859  0.20746  0.30284  1.0000
  H   H234      1.0  0.18253  0.19802  0.18894  1.0000
  C   C307      1.0  0.21288  0.23225  0.14456  1.0000
  H   H235      1.0  0.53230  0.24393  0.31862  1.0000
  C   C308      1.0  0.17482  0.21030  0.15878  1.0000
  C   C309      1.0  0.89511  0.23842  0.13405  1.0000
  C   C310      1.0  0.18427  0.13505  0.28432  1.0000
  C   C311      1.0  0.89773  0.23257  0.30552  1.0000
  Fe  Fe22      1.0  0.40182  0.15105  0.18587  1.0000
  S   S44       1.0  0.42403  0.14096  0.11644  1.0000
  H   H236      1.0  0.09870  0.18658  0.14473  1.0000
  C   C312      1.0  0.07077  0.14766  0.25616  1.0000
  S   S45       1.0  0.53179  0.13866  0.31330  1.0000
  C   C313      1.0  0.96120  0.32218  0.35477  1.0000
  H   H237      1.0  0.54814  0.12976  0.22080  1.0000
  H   H238      1.0  0.79771  0.13461  0.12250  1.0000
  C   C314      1.0  0.64423  0.11822  0.30168  1.0000
  C   C315      1.0  0.69010  0.10622  0.23169  1.0000
  C   C316      1.0  0.58852  0.12374  0.23642  1.0000
  C   C317      1.0  0.63759  0.11364  0.21153  1.0000
  H   H239      1.0  0.43652  0.23612  0.35838  1.0000
  H   H240      1.0  0.64701  0.12000  0.33654  1.0000
  C   C318      1.0  0.76637  0.31530  0.35538  1.0000
  H   H241      1.0  0.27429  0.10613  0.21565  1.0000
  H   H242      1.0  0.55081  0.20497  0.15231  1.0000
  H   H243      1.0  0.15713  0.13729  0.11818  1.0000
  C   C319      1.0  0.60013  0.37358  0.52637  1.0000
  H   H244      1.0  0.60602  0.54784  0.48101  1.0000
  C   C320      1.0  0.65265  0.47967  0.55160  1.0000
  C   C321      1.0  0.04466  0.50482  0.39541  1.0000
  P   P12       1.0  0.22683  0.44380  0.40946  1.0000
  H   H245      1.0  0.49059  0.39902  0.41572  1.0000
  C   C322      1.0  0.27592  0.51580  0.56622  1.0000
  C   C323      1.0  0.47078  0.40763  0.44534  1.0000
  P   P13       1.0  0.38780  0.44444  0.57230  1.0000
  H   H246      1.0  0.86463  0.50262  0.44221  1.0000
  C   C324      1.0  0.42016  0.42926  0.52307  1.0000
  C   C325      1.0  0.82923  0.51242  0.37844  1.0000
  H   H247      1.0  0.34647  0.40283  0.51033  1.0000
  C   C326      1.0  0.01321  0.53967  0.49857  1.0000
  C   C327      1.0  0.74308  0.54515  0.42463  1.0000
  H   H248      1.0  0.85316  0.56362  0.53132  1.0000
  C   C328      1.0  0.94535  0.58911  0.60169  1.0000
  Fe  Fe23      1.0  0.82707  0.41812  0.54246  1.0000
  C   C329      1.0  0.30377  0.44997  0.39641  1.0000
  H   H249      1.0  0.64528  0.40337  0.44007  1.0000
  C   C330      1.0  0.30185  0.48898  0.57868  1.0000
  C   C331      1.0  0.89773  0.55716  0.52191  1.0000
  C   C332      1.0  0.21438  0.40542  0.42102  1.0000
  C   C333      1.0  0.42248  0.46042  0.37456  1.0000
  S   S46       1.0  0.43144  0.54004  0.38297  1.0000
  C   C334      1.0  0.38948  0.40998  0.49922  1.0000
  H   H250      1.0  0.59802  0.45636  0.51166  1.0000
  S   S47       1.0  0.91730  0.41337  0.56877  1.0000
  S   S48       1.0  0.83442  0.46539  0.52514  1.0000
  C   C335      1.0  0.35494  0.52400  0.51197  1.0000
  H   H251      1.0  0.39113  0.38481  0.44168  1.0000
  C   C336      1.0  0.16656  0.58494  0.41461  1.0000
  C   C337      1.0  0.04958  0.48287  0.42808  1.0000
  H   H252      1.0  0.71008  0.55794  0.44238  1.0000
  C   C338      1.0  0.83049  0.51385  0.42407  1.0000
  C   C339      1.0  0.50103  0.42705  0.46851  1.0000
  H   H253      1.0  0.20967  0.59970  0.47008  1.0000
  H   H254      1.0  0.07890  0.52048  0.39016  1.0000
  C   C340      1.0  0.41462  0.39954  0.46025  1.0000
  H   H255      1.0  0.05750  0.53291  0.48894  1.0000
  C   C341      1.0  0.20304  0.46516  0.45542  1.0000
  C   C342      1.0  0.26013  0.38458  0.41514  1.0000
  C   C343      1.0  0.97587  0.52028  0.52166  1.0000
  C   C344      1.0  0.65804  0.53100  0.53410  1.0000
  H   H256      1.0  0.78858  0.53112  0.48223  1.0000
  H   H257      1.0  0.23522  0.52301  0.58231  1.0000
  C   C345      1.0  0.66077  0.44706  0.41649  1.0000
  H   H258      1.0  0.83409  0.37080  0.36754  1.0000
  Fe  Fe24      1.0  0.41823  0.58305  0.41298  1.0000
  Fe  Fe25      1.0  0.91946  0.46154  0.55910  1.0000
  C   C346      1.0  0.40888  0.57833  0.55944  1.0000
  C   C347      1.0  0.99488  0.50712  0.37045  1.0000
  H   H259      1.0  0.02186  0.58295  0.46990  1.0000
  C   C348      1.0  0.33818  0.46370  0.42548  1.0000
  C   C349      1.0  0.35433  0.47933  0.55739  1.0000
  S   S49       1.0  0.95268  0.58863  0.37739  1.0000
  C   C350      1.0  0.61835  0.52881  0.50077  1.0000
  C   C351      1.0  0.63597  0.40852  0.37079  1.0000
  C   C352      1.0  0.47569  0.43800  0.50690  1.0000
  C   C353      1.0  0.44310  0.45068  0.61072  1.0000
  S   S50       1.0  0.79427  0.38911  0.49317  1.0000
  H   H260      1.0  0.91985  0.45077  0.42036  1.0000
  C   C354      1.0  0.61360  0.47734  0.51822  1.0000
  H   H261      1.0  0.43241  0.58043  0.52804  1.0000
  H   H262      1.0  0.98127  0.59798  0.58142  1.0000
  H   H263      1.0  0.42381  0.47975  0.43645  1.0000
  C   C355      1.0  0.15659  0.46884  0.52816  1.0000
  C   C356      1.0  0.95497  0.46554  0.41180  1.0000
  Fe  Fe26      1.0  0.51853  0.53843  0.41386  1.0000
  H   H264      1.0  0.66498  0.46087  0.57181  1.0000
  C   C357      1.0  0.63361  0.35415  0.50112  1.0000
  H   H265      1.0  0.50068  0.41503  0.59124  1.0000
  S   S51       1.0  0.52660  0.36684  0.54260  1.0000
  C   C358      1.0  0.80198  0.41393  0.38011  1.0000
  H   H266      1.0  0.42400  0.49165  0.50995  1.0000
  H   H267      1.0  0.46935  0.54601  0.58571  1.0000
  H   H268      1.0  0.60090  0.41347  0.55952  1.0000
  C   C359      1.0  0.27233  0.58493  0.42075  1.0000
  H   H269      1.0  0.49926  0.45352  0.52388  1.0000
  H   H270      1.0  0.26810  0.43127  0.55186  1.0000
  C   C360      1.0  0.71930  0.38360  0.50464  1.0000
  C   C361      1.0  0.99283  0.56792  0.48744  1.0000
  C   C362      1.0  0.14936  0.36666  0.44683  1.0000
  H   H271      1.0  0.30342  0.39072  0.40287  1.0000
  C   C363      1.0  0.68553  0.40340  0.52875  1.0000
  C   C364      1.0  0.42934  0.55881  0.59191  1.0000
  C   C365      1.0  0.27898  0.41830  0.58087  1.0000
  S   S52       1.0  0.33313  0.59475  0.44887  1.0000
  H   H272      1.0  0.12287  0.58963  0.42807  1.0000
  H   H273      1.0  0.10658  0.35970  0.45952  1.0000
  C   C366      1.0  0.20344  0.49563  0.45104  1.0000
  C   C367      1.0  0.93529  0.57678  0.49974  1.0000
  S   S53       1.0  0.54881  0.49756  0.44978  1.0000
  C   C368      1.0  0.18144  0.45195  0.49506  1.0000
  H   H274      1.0  0.17770  0.53584  0.47999  1.0000
  S   S54       1.0  0.77975  0.42366  0.60781  1.0000
  H   H275      1.0  0.28184  0.55384  0.52231  1.0000
  H   H276      1.0  0.32340  0.56820  0.36617  1.0000
  H   H277      1.0  0.22129  0.50667  0.42166  1.0000
  C   C369      1.0  0.25060  0.35519  0.42545  1.0000
  C   C370      1.0  0.38172  0.49756  0.52504  1.0000
  C   C371      1.0  0.81186  0.44358  0.37380  1.0000
  H   H278      1.0  0.67676  0.55144  0.53982  1.0000
  Fe  Fe27      1.0  0.54233  0.60045  0.38708  1.0000
  C   C372      1.0  0.91812  0.52905  0.53303  1.0000
  C   C373      1.0  0.17902  0.51240  0.48435  1.0000
  C   C374      1.0  0.62626  0.39831  0.54004  1.0000
  H   H279      1.0  0.88926  0.51461  0.55169  1.0000
  S   S55       1.0  0.72876  0.50861  0.59818  1.0000
  S   S56       1.0  0.00081  0.48521  0.53720  1.0000
  C   C375      1.0  0.59638  0.50180  0.49251  1.0000
  C   C376      1.0  0.67568  0.50639  0.55910  1.0000
  S   S57       1.0  0.50201  0.57949  0.44822  1.0000
  H   H280      1.0  0.32004  0.47028  0.45679  1.0000
  C   C377      1.0  0.39711  0.46908  0.41427  1.0000
  C   C378      1.0  0.21559  0.59051  0.43841  1.0000
  C   C379      1.0  0.27987  0.57217  0.38042  1.0000
  C   C380      1.0  0.32868  0.59351  0.60844  1.0000
  C   C381      1.0  0.69308  0.35925  0.49014  1.0000
  C   C382      1.0  0.64710  0.41822  0.41179  1.0000
  H   H281      1.0  0.13689  0.45853  0.55761  1.0000
  C   C383      1.0  0.94932  0.48751  0.37858  1.0000
  H   H282      1.0  0.08639  0.48193  0.44875  1.0000
  C   C384      1.0  0.15442  0.49901  0.52246  1.0000
  C   C385      1.0  0.30196  0.53311  0.53241  1.0000
  C   C386      1.0  0.00520  0.46304  0.43591  1.0000
  C   C387      1.0  0.35827  0.59540  0.56753  1.0000
  H   H283      1.0  0.37593  0.53777  0.48649  1.0000
  H   H284      1.0  0.18244  0.42869  0.50054  1.0000
  H   H285      1.0  0.13271  0.51200  0.54725  1.0000
  H   H286      1.0  0.00819  0.44672  0.46245  1.0000
  H   H287      1.0  0.12259  0.41159  0.44179  1.0000
  C   C388      1.0  0.78746  0.53011  0.44700  1.0000
  H   H288      1.0  0.46841  0.46448  0.36675  1.0000
  H   H289      1.0  0.67074  0.45428  0.44824  1.0000
  C   C389      1.0  0.15870  0.39607  0.43666  1.0000
  H   H290      1.0  0.12225  0.42398  0.36583  1.0000
  Fe  Fe28      1.0  0.79346  0.47110  0.59209  1.0000
  C   C390      1.0  0.17424  0.57336  0.37341  1.0000
  H   H291      1.0  0.62809  0.38579  0.36815  1.0000
  H   H292      1.0  0.76673  0.40656  0.40248  1.0000
  C   C391      1.0  0.66191  0.46656  0.38024  1.0000
  C   C392      1.0  0.74144  0.54384  0.37933  1.0000
  H   H293      1.0  0.67142  0.48907  0.38436  1.0000
  H   H294      1.0  0.70535  0.42276  0.53818  1.0000
  H   H295      1.0  0.78397  0.45871  0.39172  1.0000
  H   H296      1.0  0.54402  0.43388  0.45667  1.0000
  C   C393      1.0  0.33429  0.42039  0.59846  1.0000
  H   H297      1.0  0.28111  0.47597  0.60503  1.0000
  H   H298      1.0  0.19562  0.39725  0.58611  1.0000
  C   C394      1.0  0.23796  0.39912  0.60017  1.0000
  C   C395      1.0  0.49399  0.43278  0.61269  1.0000
  C   C396      1.0  0.31483  0.53333  0.71482  1.0000
  H   H299      1.0  0.23260  0.52119  0.68939  1.0000
  Fe  Fe29      1.0  0.49515  0.52425  0.83717  1.0000
  C   C397      1.0  0.18243  0.52734  0.80068  1.0000
  C   C398      1.0  0.90365  0.54912  0.64520  1.0000
  C   C399      1.0  0.67599  0.56518  0.72674  1.0000
  C   C400      1.0  0.52675  0.59091  0.66712  1.0000
  C   C401      1.0  0.39921  0.55643  0.63268  1.0000
  H   H300      1.0  0.73461  0.55395  0.85400  1.0000
  H   H301      1.0  0.42749  0.41339  0.81706  1.0000
  H   H302      1.0  0.47047  0.49477  0.69252  1.0000
  C   C402      1.0  0.05546  0.41336  0.86084  1.0000
  H   H303      1.0  0.77973  0.39683  0.71905  1.0000
  H   H304      1.0  0.39103  0.40328  0.64910  1.0000
  H   H305      1.0  0.48993  0.57613  0.77434  1.0000
  H   H306      1.0  0.97167  0.45271  0.68567  1.0000
  C   C403      1.0  0.73649  0.59996  0.68496  1.0000
  C   C404      1.0  0.69348  0.44061  0.72719  1.0000
  H   H307      1.0  0.56125  0.46422  0.69417  1.0000
  H   H308      1.0  0.60674  0.36843  0.70904  1.0000
  C   C405      1.0  0.34815  0.40281  0.63551  1.0000
  C   C406      1.0  0.97328  0.57137  0.76061  1.0000
  C   C407      1.0  0.01843  0.51477  0.72670  1.0000
  C   C408      1.0  0.34282  0.59569  0.72804  1.0000
  C   C409      1.0  0.71928  0.44205  0.76764  1.0000
  H   H309      1.0  0.56467  0.55984  0.62299  1.0000
  C   C410      1.0  0.73302  0.37727  0.77569  1.0000
  C   C411      1.0  0.61232  0.39435  0.83449  1.0000
  H   H310      1.0  0.88088  0.53154  0.78484  1.0000
  C   C412      1.0  0.52737  0.54488  0.73038  1.0000
  H   H311      1.0  0.95324  0.48315  0.74835  1.0000
  C   C413      1.0  0.09226  0.56934  0.81114  1.0000
  C   C414      1.0  0.50679  0.59563  0.71004  1.0000
  C   C415      1.0  0.61351  0.35677  0.67944  1.0000
  C   C416      1.0  0.36980  0.49378  0.75097  1.0000
  C   C417      1.0  0.30683  0.38388  0.65504  1.0000
  H   H312      1.0  0.93680  0.36232  0.84358  1.0000
  H   H313      1.0  0.39536  0.48679  0.63991  1.0000
  C   C418      1.0  0.96213  0.51784  0.81485  1.0000
  C   C419      1.0  0.68837  0.57784  0.76540  1.0000
  H   H314      1.0  0.22409  0.56296  0.62731  1.0000
  H   H315      1.0  0.81371  0.55449  0.66731  1.0000
  C   C420      1.0  0.95098  0.56118  0.62094  1.0000
  C   C421      1.0  0.69102  0.46512  0.69855  1.0000
  H   H316      1.0  0.10239  0.51080  0.63173  1.0000
  C   C422      1.0  0.07042  0.50481  0.65759  1.0000
  C   C423      1.0  0.76281  0.37706  0.73458  1.0000
  H   H317      1.0  0.33535  0.56902  0.78840  1.0000
  C   C424      1.0  0.44327  0.36745  0.81111  1.0000
  C   C425      1.0  0.89326  0.42429  0.83716  1.0000
  C   C426      1.0  0.20506  0.59909  0.72122  1.0000
  C   C427      1.0  0.34882  0.58946  0.77298  1.0000
  S   S58       1.0  0.87900  0.47085  0.62480  1.0000
  H   H318      1.0  0.06702  0.42268  0.82854  1.0000
  C   C428      1.0  0.19450  0.55423  0.81628  1.0000
  C   C429      1.0  0.98153  0.58507  0.71904  1.0000
  H   H319      1.0  0.39987  0.53722  0.74235  1.0000
  C   C430      1.0  0.34815  0.57350  0.64114  1.0000
  H   H320      1.0  0.41704  0.54189  0.65775  1.0000
  H   H321      1.0  0.84493  0.42719  0.77864  1.0000
  C   C431      1.0  0.98652  0.50204  0.85011  1.0000
  H   H322      1.0  0.46673  0.42626  0.74197  1.0000
  H   H323      1.0  0.03971  0.37148  0.83758  1.0000
  H   H324      1.0  0.71050  0.51024  0.68846  1.0000
  H   H325      1.0  0.69122  0.56527  0.65707  1.0000
  H   H326      1.0  0.42534  0.36173  0.84367  1.0000
  H   H327      1.0  0.27828  0.40593  0.83674  1.0000
  H   H328      1.0  0.97671  0.35861  0.73990  1.0000
  H   H329      1.0  0.93326  0.43209  0.82073  1.0000
  H   H330      1.0  0.67276  0.46399  0.66671  1.0000
  C   C432      1.0  0.92700  0.36398  0.68201  1.0000
  H   H331      1.0  0.40852  0.48607  0.76784  1.0000
  P   P14       1.0  0.72509  0.41046  0.80442  1.0000
  C   C433      1.0  0.79053  0.41236  0.83479  1.0000
  C   C434      1.0  0.65992  0.41204  0.84025  1.0000
  C   C435      1.0  0.73622  0.49322  0.75151  1.0000
  H   H332      1.0  0.50398  0.38776  0.69381  1.0000
  C   C436      1.0  0.46662  0.40376  0.75384  1.0000
  C   C437      1.0  0.23362  0.58243  0.68906  1.0000
  C   C438      1.0  0.54812  0.56343  0.65604  1.0000
  C   C439      1.0  0.71253  0.49133  0.71069  1.0000
  H   H333      1.0  0.15845  0.59525  0.83646  1.0000
  H   H334      1.0  0.75201  0.51372  0.76101  1.0000
  H   H335      1.0  0.56682  0.51960  0.67882  1.0000
  C   C440      1.0  0.12546  0.52158  0.78934  1.0000
  H   H336      1.0  0.04376  0.46696  0.62615  1.0000
  H   H337      1.0  0.03354  0.50104  0.85368  1.0000
  C   C441      1.0  0.84387  0.59279  0.62999  1.0000
  C   C442      1.0  0.52830  0.46016  0.67106  1.0000
  H   H338      1.0  0.61235  0.38022  0.80752  1.0000
  C   C443      1.0  0.08020  0.54283  0.79353  1.0000
  C   C444      1.0  0.84300  0.42171  0.81349  1.0000
  C   C445      1.0  0.73933  0.46870  0.78001  1.0000
  S   S59       1.0  0.52793  0.51529  0.76873  1.0000
  C   C446      1.0  0.70010  0.57599  0.68659  1.0000
  C   C447      1.0  0.43454  0.47290  0.64010  1.0000
  H   H339      1.0  0.23867  0.55879  0.82477  1.0000
  C   C448      1.0  0.06152  0.52187  0.69387  1.0000
  H   H340      1.0  0.67575  0.42060  0.71760  1.0000
  C   C449      1.0  0.66156  0.36345  0.65098  1.0000
  S   S60       1.0  0.90145  0.39920  0.69374  1.0000
  H   H341      1.0  0.08819  0.54060  0.69642  1.0000
  H   H342      1.0  0.05804  0.58581  0.81608  1.0000
  P   P15       1.0  0.30958  0.57063  0.69405  1.0000
  C   C450      1.0  0.90077  0.51922  0.81160  1.0000
  H   H343      1.0  0.90770  0.52730  0.65955  1.0000
  H   H344      1.0  0.75733  0.47054  0.81169  1.0000
  C   C451      1.0  0.53693  0.43782  0.64221  1.0000
  H   H345      1.0  0.57688  0.42441  0.64255  1.0000
  H   H346      1.0  0.24283  0.46975  0.71408  1.0000
  C   C452      1.0  0.44404  0.39651  0.79600  1.0000
  H   H347      1.0  0.31813  0.37004  0.68323  1.0000
  P   P16       1.0  0.00845  0.53662  0.77397  1.0000
  H   H348      1.0  0.21729  0.51094  0.79795  1.0000
  H   H349      1.0  0.81707  0.50816  0.84248  1.0000
  H   H350      1.0  0.64835  0.54659  0.72817  1.0000
  C   C453      1.0  0.14640  0.58755  0.64633  1.0000
  H   H351      1.0  0.68992  0.38087  0.65756  1.0000
  H   H352      1.0  0.33058  0.45199  0.75366  1.0000
  H   H353      1.0  0.00749  0.57473  0.69369  1.0000
  C   C454      1.0  0.25191  0.38190  0.63725  1.0000
  C   C455      1.0  0.14927  0.57495  0.82243  1.0000
  C   C456      1.0  0.36454  0.52294  0.73674  1.0000
  C   C457      1.0  0.47694  0.47748  0.67016  1.0000
  C   C458      1.0  0.32602  0.47461  0.74282  1.0000
  C   C459      1.0  0.94107  0.58609  0.79330  1.0000
  C   C460      1.0  0.50652  0.57250  0.74161  1.0000
  H   H354      1.0  0.93604  0.57663  0.82625  1.0000
  C   C461      1.0  0.54866  0.54053  0.68759  1.0000
  Fe  Fe30      1.0  0.87073  0.42273  0.63276  1.0000
  C   C462      1.0  0.27105  0.51389  0.70660  1.0000
  C   C463      1.0  0.85029  0.56476  0.64963  1.0000
  C   C464      1.0  0.20304  0.57589  0.65230  1.0000
  H   H355      1.0  0.66922  0.56929  0.79620  1.0000
  C   C465      1.0  0.48883  0.38198  0.72700  1.0000
  C   C466      1.0  0.27671  0.48464  0.72052  1.0000
  C   C467      1.0  0.99641  0.47221  0.68780  1.0000
  C   C468      1.0  0.03764  0.48006  0.65448  1.0000
  H   H356      1.0  0.11680  0.50066  0.77714  1.0000
  C   C469      1.0  0.86436  0.50567  0.84388  1.0000
  C   C470      1.0  0.98615  0.48964  0.72348  1.0000
  H   H357      1.0  0.99125  0.54847  0.61573  1.0000
  H   H358      1.0  0.22049  0.36667  0.65180  1.0000
  H   H359      1.0  0.12403  0.58364  0.61693  1.0000
  C   C471      1.0  0.72603  0.60109  0.76425  1.0000
  H   H360      1.0  0.88099  0.36237  0.62244  1.0000
  H   H361      1.0  0.52975  0.37911  0.86210  1.0000
  S   S61       1.0  0.40828  0.50682  0.86142  1.0000
  S   S62       1.0  0.08220  0.50511  0.93939  1.0000
  H   H362      1.0  0.39825  0.51914  0.06911  1.0000
  H   H363      1.0  0.98933  0.44281  0.03694  1.0000
  C   C472      1.0  0.36165  0.36317  0.06293  1.0000
  H   H364      1.0  0.29174  0.51369  0.89919  1.0000
  C   C473      1.0  0.79003  0.40412  0.87949  1.0000
  C   C474      1.0  0.02439  0.38949  0.94408  1.0000
  C   C475      1.0  0.03951  0.38439  0.86612  1.0000
  H   H365      1.0  0.58861  0.47393  0.05233  1.0000
  S   S63       1.0  0.89104  0.59041  0.00801  1.0000
  C   C476      1.0  0.76435  0.57780  0.90664  1.0000
  C   C477      1.0  0.25027  0.55503  0.91304  1.0000
  H   H366      1.0  0.36069  0.39725  0.88647  1.0000
  C   C478      1.0  0.25395  0.41837  0.96089  1.0000
  H   H367      1.0  0.14506  0.46861  0.02621  1.0000
  Fe  Fe31      1.0  0.51948  0.54890  0.92354  1.0000
  S   S64       1.0  0.90789  0.39644  0.04832  1.0000
  C   C479      1.0  0.69031  0.49111  0.08864  1.0000
  C   C480      1.0  0.73335  0.48059  0.01707  1.0000
  P   P17       1.0  0.24238  0.42452  0.01837  1.0000
  C   C481      1.0  0.66304  0.56505  0.89940  1.0000
  C   C482      1.0  0.17453  0.40874  0.03940  1.0000
  H   H368      1.0  0.33141  0.52082  0.01057  1.0000
  C   C483      1.0  0.18571  0.50945  0.02783  1.0000
  Fe  Fe32      1.0  0.91956  0.54659  0.03437  1.0000
  C   C484      1.0  0.74811  0.59168  0.94499  1.0000
  H   H369      1.0  0.34654  0.40601  0.96409  1.0000
  C   C485      1.0  0.95080  0.45036  0.05553  1.0000
  C   C486      1.0  0.14497  0.41917  0.07699  1.0000
  H   H370      1.0  0.96870  0.47692  0.91017  1.0000
  C   C487      1.0  0.88889  0.49016  0.87911  1.0000
  C   C488      1.0  0.94500  0.47950  0.06616  1.0000
  C   C489      1.0  0.04095  0.41840  0.93871  1.0000
  S   S65       1.0  0.88203  0.52637  0.09645  1.0000
  C   C490      1.0  0.89414  0.48948  0.08893  1.0000
  H   H371      1.0  0.04109  0.43178  0.96675  1.0000
  C   C491      1.0  0.56440  0.39418  0.86461  1.0000
  C   C492      1.0  0.29136  0.50908  0.01649  1.0000
  C   C493      1.0  0.68655  0.52738  0.02913  1.0000
  Fe  Fe33      1.0  0.68527  0.38923  0.07425  1.0000
  H   H372      1.0  0.23708  0.54788  0.02242  1.0000
  C   C494      1.0  0.56091  0.45717  0.04261  1.0000
  Fe  Fe34      1.0  0.81570  0.38040  0.05120  1.0000
  C   C495      1.0  0.23806  0.52438  0.02310  1.0000
  C   C496      1.0  0.90506  0.43157  0.06675  1.0000
  C   C497      1.0  0.53140  0.40725  0.04762  1.0000
  S   S66       1.0  0.99331  0.58097  0.92879  1.0000
  H   H373      1.0  0.69159  0.44590  0.87864  1.0000
  C   C498      1.0  0.15305  0.38451  0.02028  1.0000
  H   H374      1.0  0.60498  0.36305  0.97461  1.0000
  S   S67       1.0  0.83776  0.57605  0.88764  1.0000
  H   H375      1.0  0.75621  0.46567  0.99553  1.0000
  Fe  Fe35      1.0  0.89880  0.57036  0.94269  1.0000
  H   H376      1.0  0.29342  0.36577  0.01711  1.0000
  C   C499      1.0  0.25143  0.52496  0.90899  1.0000
  H   H377      1.0  0.83955  0.40036  0.93764  1.0000
  H   H378      1.0  0.60571  0.44561  0.93111  1.0000
  C   C500      1.0  0.19959  0.50953  0.91655  1.0000
  C   C501      1.0  0.48496  0.44198  0.99698  1.0000
  H   H379      1.0  0.46282  0.39704  0.00538  1.0000
  S   S68       1.0  0.31187  0.57558  0.89865  1.0000
  C   C502      1.0  0.56227  0.41248  0.89941  1.0000
  H   H380      1.0  0.18126  0.42411  0.86619  1.0000
  C   C503      1.0  0.85538  0.44141  0.09080  1.0000
  C   C504      1.0  0.71666  0.50838  0.00128  1.0000
  C   C505      1.0  0.21664  0.41943  0.88796  1.0000
  Fe  Fe36      1.0  0.39537  0.54903  0.89361  1.0000
  Fe  Fe37      1.0  0.98766  0.59672  0.99699  1.0000
  H   H381      1.0  0.54485  0.57465  0.05332  1.0000
  C   C506      1.0  0.31768  0.40435  0.89915  1.0000
  H   H382      1.0  0.14314  0.59774  0.04781  1.0000
  C   C507      1.0  0.60781  0.43135  0.90404  1.0000
  C   C508      1.0  0.20797  0.42403  0.93260  1.0000
  H   H383      1.0  0.16201  0.43707  0.09343  1.0000
  C   C509      1.0  0.52529  0.55562  0.06907  1.0000
  H   H384      1.0  0.10743  0.56519  0.94615  1.0000
  H   H385      1.0  0.67146  0.54829  0.01624  1.0000
  H   H386      1.0  0.19692  0.59267  0.92833  1.0000
  H   H387      1.0  0.92995  0.41960  0.90065  1.0000
  H   H388      1.0  0.72979  0.44993  0.07232  1.0000
  H   H389      1.0  0.53607  0.38536  0.06155  1.0000
  C   C510      1.0  0.14719  0.52408  0.92937  1.0000
  H   H390      1.0  0.74386  0.56913  0.07554  1.0000
  H   H391      1.0  0.44322  0.56449  0.03862  1.0000
  C   C511      1.0  0.68920  0.59279  0.96004  1.0000
  H   H392      1.0  0.17618  0.37552  0.99221  1.0000
  Fe  Fe38      1.0  0.01166  0.53711  0.96131  1.0000
  C   C512      1.0  0.27136  0.40937  0.87129  1.0000
  H   H393      1.0  0.51710  0.48538  0.99566  1.0000
  P   P18       1.0  0.63272  0.54352  0.10760  1.0000
  C   C513      1.0  0.55722  0.53685  0.09722  1.0000
  C   C514      1.0  0.10121  0.37188  0.03715  1.0000
  C   C515      1.0  0.84037  0.40663  0.90305  1.0000
  C   C516      1.0  0.52047  0.46364  0.01031  1.0000
  H   H394      1.0  0.44179  0.59830  0.11021  1.0000
  C   C517      1.0  0.09220  0.40704  0.09295  1.0000
  C   C518      1.0  0.47477  0.50461  0.10331  1.0000
  C   C519      1.0  0.44238  0.52411  0.07701  1.0000
  C   C520      1.0  0.30026  0.40639  0.04860  1.0000
  S   S69       1.0  0.54433  0.50621  0.89477  1.0000
  C   C521      1.0  0.14694  0.55390  0.93503  1.0000
  C   C522      1.0  0.32974  0.42067  0.07996  1.0000
  S   S70       1.0  0.01556  0.55392  0.02784  1.0000
  C   C523      1.0  0.24036  0.46356  0.02140  1.0000
  H   H395      1.0  0.20027  0.48641  0.91281  1.0000
  S   S71       1.0  0.61803  0.42102  0.10108  1.0000
  C   C524      1.0  0.46768  0.54958  0.05985  1.0000
  S   S72       1.0  0.43525  0.53342  0.95568  1.0000
  Fe  Fe39      1.0  0.45550  0.49257  0.92148  1.0000
  C   C525      1.0  0.19803  0.56942  0.92598  1.0000
  C   C526      1.0  0.30924  0.40910  0.94364  1.0000
  S   S73       1.0  0.43602  0.44963  0.95536  1.0000
  S   S74       1.0  0.57535  0.57718  0.96056  1.0000
  H   H396      1.0  0.86057  0.48030  0.90474  1.0000
  H   H397      1.0  0.75088  0.39575  0.89633  1.0000
  C   C527      1.0  0.29265  0.47882  0.01560  1.0000
  H   H398      1.0  0.97913  0.49434  0.05570  1.0000
  C   C528      1.0  0.85025  0.47031  0.10214  1.0000
  C   C529      1.0  0.56663  0.42900  0.06117  1.0000
  H   H399      1.0  0.81997  0.42706  0.09945  1.0000
  C   C530      1.0  0.02394  0.37208  0.90783  1.0000
  C   C531      1.0  0.05667  0.43028  0.89717  1.0000
  C   C532      1.0  0.71921  0.47184  0.06051  1.0000
  C   C533      1.0  0.07008  0.38355  0.07282  1.0000
  C   C534      1.0  0.71128  0.58650  0.08011  1.0000
  H   H400      1.0  0.01173  0.38121  0.97655  1.0000
  H   H401      1.0  0.14406  0.52143  0.03041  1.0000
  S   S75       1.0  0.91730  0.52541  0.97064  1.0000
  C   C535      1.0  0.72174  0.56490  0.88345  1.0000
  C   C536      1.0  0.64703  0.57874  0.93799  1.0000
  H   H402      1.0  0.52562  0.41160  0.92310  1.0000
  H   H403      1.0  0.63044  0.55434  0.88215  1.0000
  C   C537      1.0  0.67503  0.51931  0.07327  1.0000
  H   H404      1.0  0.45500  0.59575  0.96150  1.0000
  H   H405      1.0  0.33431  0.46741  0.00937  1.0000
  H   H406      1.0  0.72612  0.51514  0.96736  1.0000
  C   C538      1.0  0.18661  0.47927  0.02585  1.0000
  C   C539      1.0  0.89164  0.41710  0.88203  1.0000
  C   C540      1.0  0.94992  0.48815  0.88203  1.0000
  C   C541      1.0  0.48999  0.41385  0.01593  1.0000
  C   C542      1.0  0.65636  0.43132  0.87436  1.0000
  C   C543      1.0  0.65349  0.58051  0.09513  1.0000
  H   H407      1.0  0.06962  0.45267  0.89323  1.0000
  H   H408      1.0  0.16585  0.43250  0.94502  1.0000
  H   H409      1.0  0.04335  0.58890  0.09185  1.0000
  Fe  Fe40      1.0  0.72444  0.35351  0.99856  1.0000
  S   S76       1.0  0.74081  0.39942  0.01316  1.0000
  C   C544      1.0  0.31578  0.37732  0.04093  1.0000
  H   H410      1.0  0.02851  0.37452  0.08459  1.0000
  H   H411      1.0  0.31813  0.44288  0.08706  1.0000
  H   H412      1.0  0.42807  0.36694  0.10972  1.0000
  C   C545      1.0  0.37555  0.40640  0.10202  1.0000
  C   C546      1.0  0.39166  0.37772  0.09337  1.0000
  H   H413      1.0  0.78083  0.60169  0.96292  1.0000
  H   H414      1.0  0.20508  0.59429  0.11247  1.0000
  C   C547      1.0  0.53190  0.51098  0.11363  1.0000
  S   S77       1.0  0.76178  0.37484  0.11377  1.0000
  H   H415      1.0  0.08429  0.35339  0.02214  1.0000
  S   S78       1.0  0.47793  0.56814  0.86390  1.0000
  C   C548      1.0  0.69746  0.44809  0.22171  1.0000
  H   H416      1.0  0.14434  0.40008  0.26093  1.0000
  H   H417      1.0  0.39953  0.41775  0.12515  1.0000
  H   H418      1.0  0.58388  0.53127  0.26616  1.0000
  Fe  Fe41      1.0  0.47617  0.56542  0.32728  1.0000
  H   H419      1.0  0.89517  0.49181  0.18620  1.0000
  C   C549      1.0  0.21943  0.38066  0.29235  1.0000
  C   C550      1.0  0.20263  0.48409  0.34116  1.0000
  S   S79       1.0  0.46171  0.55493  0.25763  1.0000
  C   C551      1.0  0.88955  0.49084  0.25682  1.0000
  C   C552      1.0  0.91603  0.53281  0.21038  1.0000
  C   C553      1.0  0.11769  0.48351  0.29685  1.0000
  H   H420      1.0  0.05377  0.55271  0.22322  1.0000
  H   H421      1.0  0.65234  0.47235  0.31117  1.0000
  H   H422      1.0  0.24195  0.40088  0.29304  1.0000
  H   H423      1.0  0.91003  0.54927  0.31698  1.0000
  H   H424      1.0  0.28736  0.35554  0.32464  1.0000
  H   H425      1.0  0.24121  0.49516  0.34987  1.0000
  H   H426      1.0  0.50013  0.44336  0.15728  1.0000
  C   C554      1.0  0.92045  0.54888  0.24727  1.0000
  H   H427      1.0  0.40872  0.43954  0.31494  1.0000
  H   H428      1.0  0.65991  0.46247  0.21566  1.0000
  C   C555      1.0  0.65048  0.45703  0.33910  1.0000
  H   H429      1.0  0.83560  0.39915  0.24368  1.0000
  C   C556      1.0  0.47769  0.46963  0.21244  1.0000
  P   P19       1.0  0.88276  0.49024  0.34867  1.0000
  H   H430      1.0  0.81061  0.47841  0.11837  1.0000
  C   C557      1.0  0.55238  0.43108  0.21195  1.0000
  H   H431      1.0  0.09202  0.35408  0.26043  1.0000
  H   H432      1.0  0.76813  0.53155  0.22833  1.0000
  H   H433      1.0  0.68791  0.52878  0.28635  1.0000
  H   H434      1.0  0.91840  0.38724  0.31953  1.0000
  C   C558      1.0  0.04747  0.56737  0.15563  1.0000
  H   H435      1.0  0.03184  0.54702  0.14532  1.0000
  H   H436      1.0  0.06791  0.41611  0.12057  1.0000
  H   H437      1.0  0.92388  0.54296  0.17808  1.0000
  C   C559      1.0  0.67756  0.53054  0.25223  1.0000
  C   C560      1.0  0.56552  0.43661  0.25488  1.0000
  C   C561      1.0  0.88798  0.40301  0.33382  1.0000
  H   H438      1.0  0.99219  0.52459  0.34587  1.0000
  C   C562      1.0  0.70875  0.53505  0.17558  1.0000
  H   H439      1.0  0.74077  0.38801  0.28254  1.0000
  C   C563      1.0  0.61888  0.53197  0.24092  1.0000
  H   H440      1.0  0.66441  0.36981  0.22196  1.0000
  H   H441      1.0  0.09021  0.49400  0.27247  1.0000
  C   C564      1.0  0.74315  0.40634  0.25907  1.0000
  H   H442      1.0  0.78250  0.52691  0.32118  1.0000
  H   H443      1.0  0.93778  0.43948  0.30952  1.0000
  H   H444      1.0  0.72841  0.59893  0.26739  1.0000
  C   C565      1.0  0.63638  0.42801  0.33418  1.0000
  C   C566      1.0  0.44904  0.57920  0.17542  1.0000
  H   H445      1.0  0.55913  0.53761  0.18931  1.0000
  H   H446      1.0  0.93172  0.57153  0.24369  1.0000
  C   C567      1.0  0.44622  0.58409  0.22013  1.0000
  C   C568      1.0  0.49008  0.47505  0.25534  1.0000
  H   H447      1.0  0.56963  0.59972  0.11684  1.0000
  C   C569      1.0  0.60493  0.53530  0.19705  1.0000
  H   H448      1.0  0.54234  0.46330  0.30971  1.0000
  C   C570      1.0  0.89838  0.43262  0.32780  1.0000
  H   H449      1.0  0.87187  0.35393  0.17206  1.0000
  C   C571      1.0  0.63346  0.36086  0.24652  1.0000
  H   H450      1.0  0.74407  0.53668  0.15059  1.0000
  H   H451      1.0  0.77035  0.35559  0.20476  1.0000
  C   C572      1.0  0.24511  0.35509  0.30999  1.0000
  C   C573      1.0  0.05420  0.59075  0.12532  1.0000
  H   H452      1.0  0.21913  0.37741  0.12734  1.0000
  C   C574      1.0  0.38884  0.44647  0.34563  1.0000
  C   C575      1.0  0.07885  0.59707  0.21237  1.0000
  C   C576      1.0  0.43921  0.60216  0.14469  1.0000
  H   H453      1.0  0.46626  0.49232  0.27198  1.0000
  C   C577      1.0  0.75147  0.45466  0.20080  1.0000
  C   C578      1.0  0.78417  0.52746  0.35629  1.0000
  C   C579      1.0  0.79700  0.41275  0.23748  1.0000
  C   C580      1.0  0.53364  0.45857  0.27660  1.0000
  P   P20       1.0  0.62446  0.41609  0.28033  1.0000
  C   C581      1.0  0.80099  0.43671  0.20791  1.0000
  H   H454      1.0  0.53914  0.37977  0.33087  1.0000
  S   S80       1.0  0.11433  0.57042  0.34036  1.0000
  H   H455      1.0  0.85651  0.58844  0.18685  1.0000
  C   C582      1.0  0.32954  0.44147  0.35634  1.0000
  H   H456      1.0  0.23704  0.55671  0.32551  1.0000
  H   H457      1.0  0.84251  0.44155  0.19079  1.0000
  C   C583      1.0  0.90898  0.53606  0.28892  1.0000
  C   C584      1.0  0.16453  0.38016  0.27410  1.0000
  C   C585      1.0  0.13621  0.44418  0.35022  1.0000
  C   C586      1.0  0.56299  0.36645  0.30746  1.0000
  H   H458      1.0  0.91843  0.59737  0.11883  1.0000
  C   C587      1.0  0.86029  0.45317  0.34767  1.0000
  C   C588      1.0  0.72255  0.53210  0.21959  1.0000
  H   H459      1.0  0.67821  0.48360  0.12175  1.0000
  H   H460      1.0  0.55713  0.49532  0.13312  1.0000
  C   C589      1.0  0.89997  0.50390  0.21510  1.0000
  H   H461      1.0  0.75459  0.47380  0.17920  1.0000
  H   H462      1.0  0.45922  0.55766  0.16447  1.0000
  H   H463      1.0  0.08636  0.59931  0.24661  1.0000
  C   C590      1.0  0.23203  0.35565  0.13866  1.0000
  H   H464      1.0  0.44443  0.48283  0.19607  1.0000
  C   C591      1.0  0.50871  0.44754  0.19080  1.0000
  S   S81       1.0  0.56549  0.55891  0.35492  1.0000
  H   H465      1.0  0.45609  0.48423  0.11460  1.0000
  C   C592      1.0  0.16818  0.49691  0.30852  1.0000
  C   C593      1.0  0.64977  0.53660  0.16403  1.0000
  C   C594      1.0  0.89550  0.50665  0.29424  1.0000
  C   C595      1.0  0.13532  0.35405  0.27349  1.0000
  C   C596      1.0  0.69265  0.42348  0.25029  1.0000
  H   H466      1.0  0.25087  0.36808  0.20304  1.0000
  H   H467      1.0  0.06242  0.44684  0.30873  1.0000
  H   H468      1.0  0.57677  0.41440  0.19442  1.0000
  H   H469      1.0  0.30389  0.43083  0.33353  1.0000
  C   C597      1.0  0.10206  0.45700  0.31735  1.0000
  C   C598      1.0  0.60658  0.37830  0.27852  1.0000
  H   H470      1.0  0.87590  0.46870  0.25946  1.0000
  H   H471      1.0  0.17966  0.51777  0.29318  1.0000
  C   C599      1.0  0.05984  0.57054  0.19925  1.0000
  C   C600      1.0  0.23082  0.56574  0.35729  1.0000
  H   H472      1.0  0.60534  0.60158  0.21025  1.0000
  C   C601      1.0  0.18631  0.45788  0.36309  1.0000
  H   H473      1.0  0.70724  0.55581  0.36217  1.0000
  C   C602      1.0  0.84017  0.39368  0.36045  1.0000
  C   C603      1.0  0.82304  0.72159  0.49249  1.0000
  C   C604      1.0  0.37910  0.75082  0.44653  1.0000
  H   H474      1.0  0.54490  0.79281  0.49710  1.0000
  H   H475      1.0  0.53814  0.77448  0.42898  1.0000
  H   H476      1.0  0.43909  0.64145  0.55564  1.0000
  C   C605      1.0  0.74584  0.68629  0.49993  1.0000
  C   C606      1.0  0.08613  0.80777  0.59474  1.0000
  H   H477      1.0  0.82211  0.62214  0.37772  1.0000
  H   H478      1.0  0.52874  0.64173  0.50728  1.0000
  H   H479      1.0  0.99948  0.72528  0.47477  1.0000
  H   H480      1.0  0.93559  0.78768  0.55663  1.0000
  C   C607      1.0  0.00199  0.78819  0.41289  1.0000
  C   C608      1.0  0.64165  0.60776  0.54877  1.0000
  H   H481      1.0  0.34782  0.66622  0.53162  1.0000
  C   C609      1.0  0.59522  0.77779  0.37047  1.0000
  C   C610      1.0  0.56111  0.76296  0.40319  1.0000
  C   C611      1.0  0.41696  0.77882  0.55486  1.0000
  S   S82       1.0  0.04437  0.63626  0.40823  1.0000
  H   H482      1.0  0.13719  0.64371  0.46994  1.0000
  C   C612      1.0  0.64991  0.84066  0.55874  1.0000
  H   H483      1.0  0.11373  0.66004  0.54463  1.0000
  C   C613      1.0  0.02054  0.76134  0.43122  1.0000
  C   C614      1.0  0.68753  0.80007  0.43468  1.0000
  S   S83       1.0  0.61033  0.63335  0.39328  1.0000
  H   H484      1.0  0.22112  0.75057  0.61335  1.0000
  H   H485      1.0  0.26832  0.73662  0.37948  1.0000
  C   C615      1.0  0.00295  0.67244  0.58796  1.0000
  C   C616      1.0  0.60600  0.79601  0.58636  1.0000
  H   H486      1.0  0.22674  0.65971  0.42887  1.0000
  C   C617      1.0  0.48765  0.66614  0.45484  1.0000
  H   H487      1.0  0.98233  0.84353  0.56247  1.0000
  C   C618      1.0  0.99213  0.69975  0.60443  1.0000
  H   H488      1.0  0.43682  0.69057  0.40824  1.0000
  H   H489      1.0  0.35794  0.81128  0.58220  1.0000
  C   C619      1.0  0.77119  0.78745  0.59601  1.0000
  C   C620      1.0  0.42899  0.83809  0.38661  1.0000
  H   H490      1.0  0.02949  0.79923  0.38788  1.0000
  C   C621      1.0  0.15327  0.66707  0.52686  1.0000
  C   C622      1.0  0.97685  0.66534  0.54985  1.0000
  C   C623      1.0  0.50396  0.79687  0.51526  1.0000
  C   C624      1.0  0.79359  0.69944  0.51688  1.0000
  H   H491      1.0  0.06763  0.76315  0.58552  1.0000
  C   C625      1.0  0.72744  0.69490  0.45834  1.0000
  H   H492      1.0  0.75420  0.78740  0.47982  1.0000
  C   C626      1.0  0.43455  0.83014  0.54997  1.0000
  C   C627      1.0  0.55713  0.73286  0.40336  1.0000
  C   C628      1.0  0.39884  0.80719  0.56385  1.0000
  H   H493      1.0  0.79347  0.83681  0.48110  1.0000
  H   H494      1.0  0.34125  0.81983  0.47186  1.0000
  C   C629      1.0  0.48859  0.65226  0.49622  1.0000
  H   H495      1.0  0.92104  0.72455  0.37904  1.0000
  C   C630      1.0  0.93880  0.68528  0.52877  1.0000
  H   H496      1.0  0.69058  0.68452  0.44515  1.0000
  H   H497      1.0  0.06215  0.75152  0.42029  1.0000
  C   C631      1.0  0.63660  0.85297  0.59892  1.0000
  H   H498      1.0  0.52712  0.66657  0.43405  1.0000
  H   H499      1.0  0.24497  0.79701  0.48880  1.0000
  H   H500      1.0  0.27128  0.70855  0.53825  1.0000
  C   C632      1.0  0.28218  0.78423  0.47616  1.0000
  H   H501      1.0  0.59350  0.77396  0.58152  1.0000
  C   C633      1.0  0.38617  0.66629  0.50956  1.0000
  H   H502      1.0  0.17901  0.82912  0.44169  1.0000
  C   C634      1.0  0.18647  0.82141  0.40898  1.0000
  C   C635      1.0  0.58616  0.71733  0.37036  1.0000
  S   S84       1.0  0.49383  0.73850  0.52222  1.0000
  P   P21       1.0  0.31909  0.69921  0.44928  1.0000
  C   C636      1.0  0.72864  0.62741  0.38404  1.0000
  C   C637      1.0  0.46926  0.77380  0.53030  1.0000
  H   H503      1.0  0.41760  0.73838  0.43581  1.0000
  Fe  Fe42      1.0  0.48998  0.71926  0.59028  1.0000
  C   C638      1.0  0.16644  0.65792  0.48471  1.0000
  C   C639      1.0  0.66202  0.82289  0.40929  1.0000
  C   C640      1.0  0.38415  0.78050  0.45105  1.0000
  C   C641      1.0  0.43617  0.67991  0.44050  1.0000
  H   H504      1.0  0.34249  0.61036  0.54203  1.0000
  C   C642      1.0  0.31272  0.69492  0.39147  1.0000
  Fe  Fe43      1.0  0.19075  0.84952  0.55558  1.0000
  S   S85       1.0  0.91152  0.65835  0.37815  1.0000
  H   H505      1.0  0.75877  0.60614  0.47563  1.0000
  C   C643      1.0  0.16859  0.79384  0.39983  1.0000
  H   H506      1.0  0.82679  0.74673  0.43094  1.0000
  C   C644      1.0  0.95411  0.71972  0.58352  1.0000
  C   C645      1.0  0.33609  0.79714  0.46646  1.0000
  H   H507      1.0  0.58269  0.69399  0.37023  1.0000
  H   H508      1.0  0.91970  0.67944  0.49886  1.0000
  C   C646      1.0  0.21729  0.66714  0.46142  1.0000
  C   C647      1.0  0.67266  0.60735  0.50833  1.0000
  H   H509      1.0  0.98661  0.64449  0.53618  1.0000
  C   C648      1.0  0.21374  0.83907  0.37611  1.0000
  H   H510      1.0  0.72584  0.78687  0.60840  1.0000
  C   C649      1.0  0.53533  0.83362  0.39049  1.0000
  C   C650      1.0  0.24226  0.69441  0.52296  1.0000
  H   H511      1.0  0.38864  0.83083  0.37412  1.0000
  C   C651      1.0  0.79289  0.76711  0.56648  1.0000
  H   H512      1.0  0.80734  0.69236  0.54909  1.0000
  H   H513      1.0  0.64334  0.80268  0.52144  1.0000
  C   C652      1.0  0.88937  0.78758  0.56697  1.0000
  C   C653      1.0  0.91053  0.78514  0.45631  1.0000
  H   H514      1.0  0.74262  0.72311  0.40128  1.0000
  C   C654      1.0  0.48281  0.82495  0.37371  1.0000
  C   C655      1.0  0.98418  0.74625  0.46187  1.0000
  C   C656      1.0  0.75690  0.83295  0.46108  1.0000
  C   C657      1.0  0.92885  0.75808  0.47479  1.0000
  C   C658      1.0  0.80452  0.73001  0.45059  1.0000
  C   C659      1.0  0.38488  0.68027  0.46780  1.0000
  C   C660      1.0  0.86758  0.80770  0.59673  1.0000
  P   P22       1.0  0.88248  0.73953  0.51602  1.0000
  S   S86       1.0  0.91149  0.61268  0.48897  1.0000
  H   H515      1.0  0.03243  0.65708  0.60444  1.0000
  H   H516      1.0  0.39025  0.76081  0.56639  1.0000
  H   H517      1.0  0.53181  0.72165  0.42945  1.0000
  H   H518      1.0  0.18042  0.69276  0.57847  1.0000
  S   S87       1.0  0.13540  0.81089  0.54885  1.0000
  H   H519      1.0  0.93197  0.82048  0.41010  1.0000
  P   P23       1.0  0.60439  0.81637  0.37282  1.0000
  H   H520      1.0  0.88716  0.62547  0.58791  1.0000
  S   S88       1.0  0.24701  0.84938  0.61342  1.0000
  H   H521      1.0  0.67154  0.77826  0.43455  1.0000
  H   H522      1.0  0.86797  0.79453  0.46549  1.0000
  C   C661      1.0  0.73484  0.80513  0.46038  1.0000
  C   C662      1.0  0.27636  0.75469  0.47024  1.0000
  C   C663      1.0  0.85250  0.76667  0.55226  1.0000
  H   H523      1.0  0.94628  0.74058  0.59704  1.0000
  C   C664      1.0  0.92673  0.71265  0.54571  1.0000
  H   H524      1.0  0.72310  0.66934  0.51905  1.0000
  H   H525      1.0  0.89701  0.82269  0.60979  1.0000
  C   C665      1.0  0.76400  0.60761  0.54513  1.0000
  H   H526      1.0  0.23361  0.74546  0.47656  1.0000
  H   H527      1.0  0.14807  0.78019  0.42560  1.0000
  H   H528      1.0  0.51523  0.84276  0.51589  1.0000
  C   C666      1.0  0.32547  0.73749  0.45690  1.0000
  C   C667      1.0  0.48730  0.82505  0.52606  1.0000
  C   C668      1.0  0.75684  0.71670  0.43364  1.0000
  H   H529      1.0  0.72891  0.63583  0.41621  1.0000
  C   C669      1.0  0.43784  0.65220  0.52346  1.0000
  C   C670      1.0  0.19109  0.68535  0.54598  1.0000
  H   H530      1.0  0.42635  0.79024  0.44475  1.0000
  Fe  Fe44      1.0  0.95105  0.62447  0.42341  1.0000
  H   H531      1.0  0.76325  0.75131  0.55604  1.0000
  C   C671      1.0  0.63425  0.81225  0.55249  1.0000
  C   C672      1.0  0.94691  0.80007  0.42536  1.0000
  C   C673      1.0  0.05760  0.78176  0.60491  1.0000
  C   C674      1.0  0.25525  0.68573  0.48017  1.0000
  C   C675      1.0  0.89176  0.60466  0.60549  1.0000
  H   H532      1.0  0.35361  0.65185  0.39173  1.0000
  C   C676      1.0  0.67552  0.62362  0.36482  1.0000
  H   H533      1.0  0.67246  0.85302  0.53253  1.0000
  C   C677      1.0  0.28670  0.71716  0.36527  1.0000
  C   C678      1.0  0.73350  0.60770  0.58592  1.0000
  H   H534      1.0  0.59412  0.60759  0.55016  1.0000
  C   C679      1.0  0.67187  0.60785  0.58746  1.0000
  C   C680      1.0  0.80853  0.80765  0.61122  1.0000
  H   H535      1.0  0.81107  0.60876  0.54280  1.0000
  C   C681      1.0  0.68514  0.85067  0.40965  1.0000
  C   C682      1.0  0.73401  0.60686  0.50665  1.0000
  H   H536      1.0  0.64918  0.60699  0.47848  1.0000
  C   C683      1.0  0.33503  0.66970  0.37201  1.0000
  S   S89       1.0  0.57207  0.69605  0.61019  1.0000
  C   C684      1.0  0.67590  0.70036  0.74071  1.0000
  S   S90       1.0  0.05424  0.74737  0.76265  1.0000
  H   H537      1.0  0.74421  0.76404  0.71752  1.0000
  C   C685      1.0  0.92310  0.62670  0.74225  1.0000
  C   C686      1.0  0.56422  0.64725  0.81178  1.0000
  H   H538      1.0  0.24649  0.72324  0.77843  1.0000
  C   C687      1.0  0.35837  0.62304  0.70999  1.0000
  Fe  Fe45      1.0  0.01305  0.73027  0.82604  1.0000
  C   C688      1.0  0.11942  0.60513  0.67765  1.0000
  C   C689      1.0  0.60486  0.63238  0.83800  1.0000
  H   H539      1.0  0.34712  0.82079  0.82128  1.0000
  Fe  Fe46      1.0  0.91466  0.70327  0.78327  1.0000
  H   H540      1.0  0.98435  0.80503  0.79354  1.0000
  H   H541      1.0  0.13909  0.83440  0.72345  1.0000
  C   C690      1.0  0.23949  0.71209  0.74936  1.0000
  S   S91       1.0  0.00266  0.68532  0.80317  1.0000
  C   C691      1.0  0.17779  0.76538  0.67237  1.0000
  H   H542      1.0  0.78008  0.62983  0.72415  1.0000
  H   H543      1.0  0.78764  0.73439  0.64409  1.0000
  S   S92       1.0  0.50783  0.68619  0.70726  1.0000
  S   S93       1.0  0.48253  0.74676  0.64844  1.0000
  C   C692      1.0  0.22551  0.76246  0.64245  1.0000
  C   C693      1.0  0.38039  0.64354  0.73613  1.0000
  C   C694      1.0  0.31214  0.76716  0.80937  1.0000
  S   S94       1.0  0.42798  0.68640  0.61958  1.0000
  C   C695      1.0  0.00236  0.80386  0.66504  1.0000
  H   H544      1.0  0.71384  0.66343  0.77608  1.0000
  H   H545      1.0  0.37713  0.60517  0.83328  1.0000
  C   C696      1.0  0.83500  0.69353  0.64757  1.0000
  H   H546      1.0  0.36308  0.73158  0.83763  1.0000
  S   S95       1.0  0.94758  0.80175  0.70720  1.0000
  H   H547      1.0  0.73713  0.61044  0.79442  1.0000
  C   C697      1.0  0.38768  0.63705  0.78044  1.0000
  C   C698      1.0  0.21976  0.68260  0.67464  1.0000
  C   C699      1.0  0.27923  0.77427  0.65072  1.0000
  C   C700      1.0  0.34866  0.83525  0.79247  1.0000
  H   H548      1.0  0.31683  0.77104  0.62842  1.0000
  C   C701      1.0  0.73733  0.74216  0.73049  1.0000
  C   C702      1.0  0.46903  0.79819  0.73806  1.0000
  H   H549      1.0  0.07685  0.61543  0.67232  1.0000
  C   C703      1.0  0.14809  0.61025  0.71554  1.0000
  C   C704      1.0  0.54355  0.79906  0.79143  1.0000
  C   C705      1.0  0.01723  0.77960  0.64094  1.0000
  H   H550      1.0  0.64709  0.60873  0.61836  1.0000
  S   S96       1.0  0.35495  0.72162  0.72806  1.0000
  H   H551      1.0  0.02057  0.84846  0.67421  1.0000
  C   C706      1.0  0.18096  0.83248  0.78572  1.0000
  H   H552      1.0  0.25780  0.64696  0.80289  1.0000
  Fe  Fe47      1.0  0.96261  0.75948  0.74483  1.0000
  H   H553      1.0  0.16653  0.78083  0.83428  1.0000
  H   H554      1.0  0.57367  0.71471  0.84942  1.0000
  H   H555      1.0  0.52067  0.68843  0.79687  1.0000
  H   H556      1.0  0.32721  0.79799  0.69453  1.0000
  C   C707      1.0  0.59337  0.80810  0.62659  1.0000
  C   C708      1.0  0.30436  0.83557  0.76223  1.0000
  C   C709      1.0  0.58366  0.69185  0.84593  1.0000
  C   C710      1.0  0.57520  0.81881  0.76414  1.0000
  Fe  Fe48      1.0  0.51014  0.66441  0.64349  1.0000
  S   S97       1.0  0.94746  0.71726  0.71588  1.0000
  C   C711      1.0  0.77432  0.69835  0.76781  1.0000
  C   C712      1.0  0.68926  0.74032  0.85395  1.0000
  C   C713      1.0  0.55329  0.67694  0.81611  1.0000
  C   C714      1.0  0.23641  0.79353  0.71784  1.0000
  H   H557      1.0  0.35320  0.62886  0.67576  1.0000
  H   H558      1.0  0.87014  0.65026  0.65430  1.0000
  H   H559      1.0  0.01391  0.70556  0.63321  1.0000
  H   H560      1.0  0.56053  0.79145  0.82247  1.0000
  H   H561      1.0  0.46713  0.77257  0.79863  1.0000
  H   H562      1.0  0.15002  0.65628  0.80609  1.0000
  H   H563      1.0  0.61492  0.85258  0.85890  1.0000
  H   H564      1.0  0.40500  0.65307  0.80051  1.0000
  Fe  Fe49      1.0  0.42984  0.71093  0.68056  1.0000
  C   C715      1.0  0.71175  0.76751  0.84177  1.0000
  C   C716      1.0  0.75016  0.61209  0.72422  1.0000
  C   C717      1.0  0.28598  0.70753  0.71881  1.0000
  S   S98       1.0  0.10060  0.68011  0.69339  1.0000
  C   C718      1.0  0.55462  0.82788  0.72305  1.0000
  H   H565      1.0  0.39186  0.66447  0.72176  1.0000
  C   C719      1.0  0.17434  0.65656  0.83555  1.0000
  S   S99       1.0  0.92239  0.74678  0.81097  1.0000
  H   H566      1.0  0.79205  0.82286  0.63496  1.0000
  C   C720      1.0  0.76361  0.83590  0.72565  1.0000
  H   H567      1.0  0.29126  0.60803  0.61449  1.0000
  C   C721      1.0  0.18345  0.78057  0.71009  1.0000
  P   P24       1.0  0.24458  0.81091  0.76854  1.0000
  C   C722      1.0  0.96396  0.81883  0.81779  1.0000
  C   C723      1.0  0.72065  0.68527  0.76301  1.0000
  C   C724      1.0  0.28485  0.78964  0.68835  1.0000
  C   C725      1.0  0.23497  0.65126  0.83383  1.0000
  P   P25       1.0  0.59616  0.85212  0.68589  1.0000
  C   C726      1.0  0.95653  0.61264  0.70992  1.0000
  H   H568      1.0  0.31189  0.68826  0.65811  1.0000
  H   H569      1.0  0.34721  0.77330  0.78598  1.0000
  C   C727      1.0  0.32116  0.74334  0.83847  1.0000
  H   H570      1.0  0.99690  0.75932  0.64989  1.0000
  H   H571      1.0  0.21226  0.67098  0.64588  1.0000
  C   C728      1.0  0.78545  0.71130  0.64073  1.0000
  H   H572      1.0  0.54081  0.63568  0.78850  1.0000
  H   H573      1.0  0.68814  0.81113  0.71428  1.0000
  C   C729      1.0  0.77923  0.65104  0.63653  1.0000
  H   H574      1.0  0.14792  0.70673  0.76606  1.0000
  S   S100      1.0  0.52357  0.61833  0.62587  1.0000
  C   C730      1.0  0.17275  0.68881  0.70425  1.0000
  C   C731      1.0  0.18320  0.70284  0.74214  1.0000
  H   H575      1.0  0.57262  0.79474  0.65233  1.0000
  C   C732      1.0  0.17656  0.84205  0.82854  1.0000
  H   H576      1.0  0.48267  0.82519  0.67978  1.0000
  Fe  Fe50      1.0  0.03655  0.70380  0.73831  1.0000
  H   H577      1.0  0.61590  0.82654  0.77508  1.0000
  C   C733      1.0  0.03095  0.82979  0.65508  1.0000
  C   C734      1.0  0.27632  0.69222  0.68171  1.0000
  C   C735      1.0  0.50017  0.81818  0.71096  1.0000
  C   C736      1.0  0.60824  0.83673  0.63319  1.0000
  C   C737      1.0  0.70541  0.83273  0.71448  1.0000
  H   H578      1.0  0.88978  0.62427  0.80938  1.0000
  H   H579      1.0  0.79088  0.81697  0.73444  1.0000
  C   C738      1.0  0.21051  0.77133  0.83613  1.0000
  H   H580      1.0  0.96333  0.62328  0.67790  1.0000
  C   C739      1.0  0.25713  0.78170  0.80858  1.0000
  H   H581      1.0  0.14667  0.78205  0.73341  1.0000
  H   H582      1.0  0.42846  0.78980  0.72751  1.0000
  H   H583      1.0  0.13672  0.75537  0.66681  1.0000
  C   C740      1.0  0.83183  0.66350  0.64654  1.0000
  C   C741      1.0  0.49086  0.78848  0.77814  1.0000
  H   H584      1.0  0.63506  0.68996  0.73603  1.0000
  H   H585      1.0  0.49086  0.61694  0.71862  1.0000
  S   S101      1.0  0.83120  0.67911  0.79366  1.0000
  H   H586      1.0  0.71946  0.77370  0.80747  1.0000
  H   H587      1.0  0.90372  0.64802  0.73513  1.0000
  H   H588      1.0  0.87561  0.70308  0.65441  1.0000
  S   S102      1.0  0.63021  0.74809  0.69583  1.0000
  C   C742      1.0  0.13550  0.83964  0.75748  1.0000
  H   H589      1.0  0.92899  0.84978  0.77017  1.0000
  C   C743      1.0  0.93270  0.84400  0.80466  1.0000
  H   H590      1.0  0.82387  0.73702  0.75515  1.0000
  H   H591      1.0  0.21191  0.83741  0.85039  1.0000
  C   C744      1.0  0.68436  0.72882  0.72453  1.0000
  H   H592      1.0  0.68110  0.72569  0.82866  1.0000
  C   C745      1.0  0.78257  0.72682  0.75161  1.0000
  Fe  Fe51      1.0  0.56050  0.72068  0.67111  1.0000
  H   H593      1.0  0.22711  0.60430  0.75013  1.0000
  H   H594      1.0  0.61228  0.60924  0.83552  1.0000
  P   P26       1.0  0.77364  0.61229  0.63441  1.0000
  H   H595      1.0  0.12693  0.62393  0.73974  1.0000
  C   C746      1.0  0.91538  0.61340  0.78397  1.0000
  C   C747      1.0  0.37193  0.61001  0.79881  1.0000
  C   C748      1.0  0.07406  0.83143  0.62087  1.0000
  C   C749      1.0  0.73260  0.69913  0.63156  1.0000
  C   C750      1.0  0.72935  0.66910  0.62957  1.0000
  C   C751      1.0  0.96954  0.81154  0.86214  1.0000
  H   H596      1.0  0.69377  0.71294  0.62724  1.0000
  H   H597      1.0  0.68754  0.66004  0.62353  1.0000
  H   H598      1.0  0.43102  0.85252  0.80804  1.0000
  H   H599      1.0  0.09668  0.85134  0.61414  1.0000
  C   C752      1.0  0.14740  0.82069  0.99221  1.0000
  C   C753      1.0  0.73904  0.67860  0.97596  1.0000
  C   C754      1.0  0.85060  0.84071  0.99344  1.0000
  C   C755      1.0  0.93069  0.74197  0.01621  1.0000
  C   C756      1.0  0.18433  0.60885  0.04702  1.0000
  C   C757      1.0  0.27483  0.73345  0.86616  1.0000
  C   C758      1.0  0.50913  0.69223  0.02277  1.0000
  H   H600      1.0  0.51931  0.63007  0.91907  1.0000
  C   C759      1.0  0.88141  0.74071  0.94828  1.0000
  H   H601      1.0  0.27595  0.77978  0.00957  1.0000
  H   H602      1.0  0.80561  0.66807  0.02215  1.0000
  H   H603      1.0  0.35612  0.83121  0.09484  1.0000
  H   H604      1.0  0.75445  0.66694  0.86713  1.0000
  H   H605      1.0  0.07771  0.68998  0.03067  1.0000
  C   C760      1.0  0.35563  0.65160  0.94662  1.0000
  C   C761      1.0  0.72628  0.78620  0.87369  1.0000
  C   C762      1.0  0.71809  0.77774  0.91793  1.0000
  C   C763      1.0  0.10128  0.82628  0.02248  1.0000
  H   H606      1.0  0.99211  0.79147  0.87153  1.0000
  H   H607      1.0  0.36701  0.74947  0.01486  1.0000
  P   P27       1.0  0.65698  0.69573  0.91485  1.0000
  H   H608      1.0  0.17430  0.62597  0.98209  1.0000
  H   H609      1.0  0.06945  0.81026  0.90347  1.0000
  C   C764      1.0  0.14495  0.66213  0.87532  1.0000
  P   P28       1.0  0.95444  0.82070  0.95143  1.0000
  C   C765      1.0  0.45096  0.66318  0.91216  1.0000
  H   H610      1.0  0.69637  0.76732  0.03777  1.0000
  C   C766      1.0  0.27654  0.75756  0.99984  1.0000
  C   C767      1.0  0.67984  0.73187  0.89830  1.0000
  C   C768      1.0  0.32823  0.71127  0.99249  1.0000
  C   C769      1.0  0.47369  0.63613  0.92653  1.0000
  H   H611      1.0  0.73052  0.79193  0.94275  1.0000
  H   H612      1.0  0.11024  0.82975  0.05623  1.0000
  C   C770      1.0  0.22576  0.74575  0.98546  1.0000
  H   H613      1.0  0.15192  0.77117  0.08247  1.0000
  H   H614      1.0  0.33008  0.64989  0.04490  1.0000
  C   C771      1.0  0.94598  0.82993  0.89393  1.0000
  H   H615      1.0  0.25009  0.71273  0.06735  1.0000
  H   H616      1.0  0.85063  0.64725  0.88955  1.0000
  C   C772      1.0  0.05715  0.68998  0.99977  1.0000
  C   C773      1.0  0.63497  0.64720  0.86817  1.0000
  S   S103      1.0  0.03097  0.78107  0.10892  1.0000
  C   C774      1.0  0.32656  0.84203  0.95338  1.0000
  C   C775      1.0  0.23751  0.65826  0.91207  1.0000
  C   C776      1.0  0.89900  0.72695  0.98737  1.0000
  C   C777      1.0  0.06211  0.71381  0.96984  1.0000
  C   C778      1.0  0.61338  0.60365  0.10278  1.0000
  H   H617      1.0  0.36778  0.69812  0.99745  1.0000
  H   H618      1.0  0.18290  0.73893  0.88512  1.0000
  C   C779      1.0  0.39209  0.67083  0.92177  1.0000
  S   S104      1.0  0.44108  0.79751  0.04431  1.0000
  H   H619      1.0  0.88328  0.77946  0.90692  1.0000
  H   H620      1.0  0.98012  0.68998  0.89037  1.0000
  H   H621      1.0  0.90542  0.64333  0.07481  1.0000
  C   C780      1.0  0.39709  0.84249  0.09242  1.0000
  C   C781      1.0  0.93041  0.78435  0.96579  1.0000
  C   C782      1.0  0.03043  0.82167  0.96653  1.0000
  H   H622      1.0  0.09784  0.66601  0.87657  1.0000
  H   H623      1.0  0.49778  0.73831  0.00993  1.0000
  S   S105      1.0  0.74097  0.81864  0.09912  1.0000
  H   H624      1.0  0.79589  0.76168  0.06645  1.0000
  C   C783      1.0  0.70560  0.75026  0.06225  1.0000
  C   C784      1.0  0.69526  0.75063  0.93018  1.0000
  C   C785      1.0  0.76470  0.66691  0.90121  1.0000
  Fe  Fe52      1.0  0.42562  0.76609  0.10154  1.0000
  C   C786      1.0  0.04322  0.82698  0.00971  1.0000
  C   C787      1.0  0.58730  0.66844  0.98034  1.0000
  H   H625      1.0  0.70907  0.68812  0.00008  1.0000
  H   H626      1.0  0.35102  0.60844  0.97768  1.0000
  H   H627      1.0  0.74508  0.80694  0.86411  1.0000
  C   C788      1.0  0.27202  0.62146  0.08206  1.0000
  C   C789      1.0  0.60142  0.69505  0.95882  1.0000
  C   C790      1.0  0.43747  0.61674  0.95053  1.0000
  H   H628      1.0  0.32077  0.81968  0.94589  1.0000
  H   H629      1.0  0.82953  0.67920  0.09650  1.0000
  C   C791      1.0  0.37857  0.62424  0.96017  1.0000
  H   H630      1.0  0.97623  0.64681  0.94121  1.0000
  C   C792      1.0  0.07722  0.81542  0.93652  1.0000
  H   H631      1.0  0.57706  0.74083  0.95232  1.0000
  C   C793      1.0  0.32785  0.74038  0.00303  1.0000
  H   H632      1.0  0.18540  0.75877  0.98384  1.0000
  C   C794      1.0  0.72395  0.67806  0.93224  1.0000
  C   C795      1.0  0.94610  0.77055  0.00558  1.0000
  C   C796      1.0  0.62958  0.63220  0.09254  1.0000
  C   C797      1.0  0.99940  0.66561  0.94961  1.0000
  H   H633      1.0  0.18656  0.70852  0.96285  1.0000
  H   H634      1.0  0.61679  0.73548  0.06742  1.0000
  H   H635      1.0  0.17098  0.80996  0.92598  1.0000
  H   H636      1.0  0.69081  0.74398  0.96451  1.0000
  H   H637      1.0  0.59806  0.64989  0.09818  1.0000
  H   H638      1.0  0.94512  0.73127  0.04629  1.0000
  C   C798      1.0  0.66074  0.73249  0.07922  1.0000
  H   H639      1.0  0.52964  0.64638  0.02806  1.0000
  C   C799      1.0  0.22649  0.71689  0.97368  1.0000
  H   H640      1.0  0.29737  0.83553  0.02112  1.0000
  S   S106      1.0  0.05219  0.74038  0.88901  1.0000
  C   C800      1.0  0.44531  0.83123  0.06793  1.0000
  H   H641      1.0  0.88952  0.70444  0.99490  1.0000
  H   H642      1.0  0.69942  0.65999  0.06908  1.0000
  C   C801      1.0  0.68666  0.63790  0.07640  1.0000
  C   C802      1.0  0.49847  0.84568  0.06568  1.0000
  C   C803      1.0  0.76166  0.74721  0.07866  1.0000
  C   C804      1.0  0.89673  0.76939  0.93758  1.0000
  C   C805      1.0  0.26631  0.65182  0.87183  1.0000
  C   C806      1.0  0.56848  0.72021  0.96932  1.0000
  H   H643      1.0  0.97128  0.78153  0.02824  1.0000
  C   C807      1.0  0.02749  0.66556  0.98901  1.0000
  H   H644      1.0  0.83239  0.82009  0.98710  1.0000
  C   C808      1.0  0.83422  0.65649  0.95739  1.0000
  H   H645      1.0  0.19222  0.82026  0.00239  1.0000
  C   C809      1.0  0.28936  0.63842  0.04488  1.0000
  C   C810      1.0  0.27796  0.69940  0.97639  1.0000
  C   C811      1.0  0.62540  0.67720  0.87175  1.0000
  C   C812      1.0  0.25487  0.64034  0.00803  1.0000
  H   H646      1.0  0.53604  0.83685  0.04734  1.0000
  H   H647      1.0  0.31305  0.64722  0.86929  1.0000
  S   S107      1.0  0.90629  0.83758  0.09658  1.0000
  C   C813      1.0  0.52289  0.71881  0.00156  1.0000
  H   H648      1.0  0.77211  0.61933  0.05855  1.0000
  H   H649      1.0  0.87688  0.64828  0.96699  1.0000
  H   H650      1.0  0.14196  0.71863  0.06563  1.0000
  C   C814      1.0  0.13539  0.81511  0.94926  1.0000
  H   H651      1.0  0.08658  0.73236  0.97763  1.0000
  H   H652      1.0  0.85744  0.72886  0.92566  1.0000
  C   C815      1.0  0.03664  0.71325  0.92941  1.0000
  C   C816      1.0  0.81956  0.65603  0.91379  1.0000
  C   C817      1.0  0.79388  0.66760  0.98850  1.0000
  H   H653      1.0  0.37513  0.69181  0.91012  1.0000
  C   C818      1.0  0.72763  0.61508  0.07063  1.0000
  C   C819      1.0  0.16157  0.70459  0.09063  1.0000
  C   C820      1.0  0.17616  0.66304  0.91333  1.0000
  H   H654      1.0  0.28108  0.71426  0.88709  1.0000
  C   C821      1.0  0.00266  0.68983  0.92035  1.0000
  C   C822      1.0  0.22253  0.70139  0.09160  1.0000
  H   H655      1.0  0.47325  0.69107  0.04726  1.0000
  H   H656      1.0  0.47903  0.67827  0.89382  1.0000
  C   C823      1.0  0.54120  0.66707  0.01212  1.0000
  P   P29       1.0  0.27991  0.66206  0.96026  1.0000
  S   S108      1.0  0.02776  0.63487  0.02456  1.0000
  H   H657      1.0  0.15185  0.66745  0.94350  1.0000
  C   C824      1.0  0.20215  0.62532  0.00947  1.0000
  H   H658      1.0  0.66486  0.63504  0.88908  1.0000
  H   H659      1.0  0.61784  0.80931  0.09088  1.0000
  H   H660      1.0  0.61094  0.64859  0.97184  1.0000
  C   C825      1.0  0.21953  0.74737  0.86497  1.0000
  C   C826      1.0  0.87764  0.63924  0.10411  1.0000
  H   H661      1.0  0.00836  0.83089  0.03412  1.0000
  C   C827      1.0  0.90975  0.84628  0.98213  1.0000
  C   C828      1.0  0.21918  0.60691  0.08332  1.0000
  H   H662      1.0  0.67661  0.60352  0.98970  1.0000
  C   C829      1.0  0.67186  0.71165  0.11273  1.0000
  H   H663      1.0  0.29930  0.62012  0.11015  1.0000
  C   C830      1.0  0.31340  0.85086  0.99572  1.0000
  S   S109      1.0  0.35007  0.73667  0.11275  1.0000
  C   C831      1.0  0.77273  0.72668  0.11251  1.0000
  H   H664      1.0  0.56814  0.85235  0.93379  1.0000
  H   H665      1.0  0.76311  0.74265  0.19361  1.0000
  H   H666      1.0  0.48852  0.81232  0.24007  1.0000
  H   H667      1.0  0.75293  0.83959  0.25569  1.0000
  H   H668      1.0  0.23396  0.65693  0.18186  1.0000
  H   H669      1.0  0.67243  0.77277  0.23851  1.0000
  C   C832      1.0  0.57349  0.64211  0.23526  1.0000
  H   H670      1.0  0.98912  0.74720  0.21331  1.0000
  H   H671      1.0  0.63606  0.69848  0.12567  1.0000
  H   H672      1.0  0.41199  0.65654  0.21392  1.0000
  P   P30       1.0  0.10528  0.65564  0.19860  1.0000
  C   C833      1.0  0.78994  0.72390  0.29901  1.0000
  C   C834      1.0  0.14926  0.77310  0.11749  1.0000
  H   H673      1.0  0.81596  0.72537  0.12588  1.0000
  H   H674      1.0  0.79763  0.73356  0.32933  1.0000
  H   H675      1.0  0.10444  0.68850  0.27834  1.0000
  C   C835      1.0  0.62781  0.83128  0.31941  1.0000
  H   H676      1.0  0.79260  0.68033  0.32751  1.0000
  C   C836      1.0  0.72813  0.70846  0.12961  1.0000
  Fe  Fe53      1.0  0.04257  0.60329  0.35713  1.0000
  H   H677      1.0  0.05028  0.78705  0.20076  1.0000
  H   H678      1.0  0.42582  0.78116  0.28964  1.0000
  C   C837      1.0  0.76734  0.69841  0.22067  1.0000
  C   C838      1.0  0.78684  0.69390  0.29803  1.0000
  H   H679      1.0  0.78254  0.62443  0.21031  1.0000
  C   C839      1.0  0.16414  0.66573  0.32084  1.0000
  C   C840      1.0  0.33392  0.66744  0.32675  1.0000
  C   C841      1.0  0.60330  0.77747  0.19335  1.0000
  C   C842      1.0  0.66028  0.78097  0.20659  1.0000
  C   C843      1.0  0.93402  0.74056  0.35379  1.0000
  H   H680      1.0  0.89386  0.72342  0.22217  1.0000
  C   C844      1.0  0.77519  0.68129  0.25918  1.0000
  S   S110      1.0  0.25982  0.76568  0.21761  1.0000
  C   C845      1.0  0.91197  0.78434  0.30954  1.0000
  C   C846      1.0  0.20418  0.80168  0.32460  1.0000
  C   C847      1.0  0.17693  0.78405  0.35755  1.0000
  C   C848      1.0  0.30854  0.68981  0.30087  1.0000
  H   H681      1.0  0.74619  0.79688  0.18848  1.0000
  S   S111      1.0  0.84861  0.60951  0.28823  1.0000
  H   H682      1.0  0.53539  0.63283  0.25229  1.0000
  C   C849      1.0  0.42272  0.84657  0.23368  1.0000
  C   C850      1.0  0.33010  0.83887  0.27473  1.0000
  C   C851      1.0  0.21267  0.66998  0.15674  1.0000
  H   H683      1.0  0.63393  0.60939  0.30844  1.0000
  C   C852      1.0  0.20464  0.64260  0.32576  1.0000
  H   H684      1.0  0.16200  0.76287  0.35010  1.0000
  C   C853      1.0  0.43161  0.61197  0.23387  1.0000
  Fe  Fe54      1.0  0.41602  0.70430  0.14004  1.0000
  C   C854      1.0  0.67493  0.66584  0.19417  1.0000
  S   S112      1.0  0.96644  0.83752  0.19180  1.0000
  S   S113      1.0  0.40461  0.71844  0.20888  1.0000
  H   H685      1.0  0.35171  0.64808  0.31182  1.0000
  S   S114      1.0  0.86115  0.81129  0.29193  1.0000
  H   H686      1.0  0.27793  0.83977  0.19592  1.0000
  C   C855      1.0  0.13560  0.67048  0.28165  1.0000
  C   C856      1.0  0.35203  0.81173  0.29049  1.0000
  C   C857      1.0  0.14269  0.77804  0.20794  1.0000
  H   H687      1.0  0.54342  0.78652  0.14173  1.0000
  H   H688      1.0  0.78510  0.76466  0.26187  1.0000
  C   C858      1.0  0.85062  0.60833  0.16718  1.0000
  C   C859      1.0  0.24800  0.68397  0.12444  1.0000
  C   C860      1.0  0.66591  0.85174  0.23530  1.0000
  H   H689      1.0  0.21046  0.79387  0.29200  1.0000
  S   S115      1.0  0.01046  0.63498  0.30537  1.0000
  C   C861      1.0  0.79885  0.65486  0.15534  1.0000
  C   C862      1.0  0.93367  0.71044  0.21708  1.0000
  H   H690      1.0  0.64180  0.71994  0.31153  1.0000
  S   S116      1.0  0.41674  0.65844  0.11829  1.0000
  Fe  Fe55      1.0  0.88068  0.82114  0.22028  1.0000
  H   H691      1.0  0.08139  0.71809  0.20500  1.0000
  C   C863      1.0  0.99045  0.73889  0.33365  1.0000
  C   C864      1.0  0.09186  0.78210  0.18405  1.0000
  C   C865      1.0  0.98316  0.66374  0.20919  1.0000
  C   C866      1.0  0.89559  0.76391  0.34271  1.0000
  C   C867      1.0  0.42252  0.63509  0.20300  1.0000
  C   C868      1.0  0.68731  0.80411  0.13603  1.0000
  H   H692      1.0  0.13968  0.77985  0.24294  1.0000
  C   C869      1.0  0.20028  0.76960  0.14127  1.0000
  H   H693      1.0  0.30651  0.68784  0.26591  1.0000
  C   C870      1.0  0.61976  0.73194  0.33741  1.0000
  H   H694      1.0  0.64047  0.70649  0.21896  1.0000
  H   H695      1.0  0.15455  0.67996  0.34743  1.0000
  H   H696      1.0  0.26425  0.73168  0.30003  1.0000
  H   H697      1.0  0.29531  0.68122  0.12501  1.0000
  H   H698      1.0  0.98198  0.79876  0.26490  1.0000
  C   C871      1.0  0.23213  0.84575  0.20207  1.0000
  C   C872      1.0  0.70666  0.84096  0.26507  1.0000
  C   C873      1.0  0.61341  0.62448  0.21191  1.0000
  C   C874      1.0  0.22322  0.82924  0.33360  1.0000
  C   C875      1.0  0.12587  0.69037  0.12264  1.0000
  C   C876      1.0  0.58688  0.84194  0.28925  1.0000
  H   H699      1.0  0.24192  0.76530  0.12443  1.0000
  H   H700      1.0  0.25150  0.60772  0.29404  1.0000
  H   H701      1.0  0.32498  0.79750  0.31140  1.0000
  H   H702      1.0  0.65147  0.77279  0.31218  1.0000
  S   S117      1.0  0.41380  0.78507  0.16687  1.0000
  C   C877      1.0  0.58300  0.67170  0.23703  1.0000
  H   H703      1.0  0.42778  0.61586  0.26818  1.0000
  C   C878      1.0  0.72860  0.60648  0.30013  1.0000
  C   C879      1.0  0.58773  0.78835  0.15192  1.0000
  C   C880      1.0  0.19700  0.77149  0.18669  1.0000
  H   H704      1.0  0.05198  0.75945  0.28748  1.0000
  C   C881      1.0  0.28452  0.71453  0.32017  1.0000
  H   H705      1.0  0.22611  0.63859  0.35628  1.0000
  H   H706      1.0  0.88969  0.66979  0.21933  1.0000
  H   H707      1.0  0.48348  0.80779  0.35088  1.0000
  S   S118      1.0  0.55248  0.75868  0.22806  1.0000
  Fe  Fe56      1.0  0.00512  0.66709  0.35811  1.0000
  H   H708      1.0  0.77034  0.65821  0.25974  1.0000
  C   C882      1.0  0.93138  0.68037  0.21535  1.0000
  H   H709      1.0  0.54031  0.84195  0.29755  1.0000
  Fe  Fe57      1.0  0.34353  0.75285  0.18046  1.0000
  C   C883      1.0  0.98767  0.72387  0.21259  1.0000
  C   C884      1.0  0.15123  0.67317  0.15631  1.0000
  C   C885      1.0  0.77068  0.72864  0.22204  1.0000
  C   C886      1.0  0.03795  0.67701  0.20617  1.0000
  P   P31       1.0  0.74302  0.68150  0.17309  1.0000
  C   C887      1.0  0.00805  0.76042  0.30252  1.0000
  C   C888      1.0  0.62471  0.76202  0.33765  1.0000
  S   S119      1.0  0.87316  0.78679  0.17172  1.0000
  C   C889      1.0  0.40938  0.80243  0.27850  1.0000
  C   C890      1.0  0.03977  0.70728  0.20772  1.0000
  C   C891      1.0  0.70217  0.79443  0.17807  1.0000
  Fe  Fe58      1.0  0.47579  0.74935  0.18854  1.0000
  Fe  Fe59      1.0  0.95514  0.80591  0.14024  1.0000
  H   H710      1.0  0.55162  0.68550  0.25466  1.0000
  C   C892      1.0  0.66394  0.63627  0.19129  1.0000
  C   C893      1.0  0.60596  0.85205  0.24727  1.0000
  C   C894      1.0  0.63346  0.68352  0.21663  1.0000
  C   C895      1.0  0.78237  0.74131  0.26102  1.0000
  Fe  Fe60      1.0  0.82528  0.82191  0.13299  1.0000
  C   C896      1.0  0.80820  0.62899  0.18045  1.0000
  C   C897      1.0  0.88542  0.61341  0.12905  1.0000
  C   C898      1.0  0.68783  0.83051  0.30665  1.0000
  H   H711      1.0  0.21227  0.84199  0.13463  1.0000
  C   C899      1.0  0.44489  0.82001  0.25055  1.0000
  H   H712      1.0  0.69389  0.62216  0.17329  1.0000
  C   C900      1.0  0.78158  0.62028  0.36180  1.0000
  S   S120      1.0  0.45667  0.60885  0.35524  1.0000
  C   C901      1.0  0.20965  0.85190  0.24422  1.0000
  P   P32       1.0  0.25671  0.85191  0.28995  1.0000
  C   C902      1.0  0.19489  0.84673  0.16708  1.0000
  H   H713      1.0  0.72042  0.82123  0.32832  1.0000
  C   C903      1.0  0.09483  0.77892  0.13893  1.0000
  C   C904      1.0  0.96839  0.78268  0.28970  1.0000
  C   C905      1.0  0.42688  0.63023  0.15828  1.0000
  C   C906      1.0  0.14601  0.65152  0.24772  1.0000
  H   H714      1.0  0.98002  0.64050  0.20798  1.0000
  C   C907      1.0  0.18849  0.62897  0.25238  1.0000
  C   C908      1.0  0.83439  0.65975  0.11692  1.0000
  Fe  Fe61      1.0  0.92008  0.62302  0.33018  1.0000
  C   C909      1.0  0.62979  0.80152  0.12320  1.0000
  H   H715      1.0  0.07860  0.69316  0.12127  1.0000
  H   H716      1.0  0.07738  0.63508  0.11408  1.0000
  H   H717      1.0  0.19834  0.61440  0.22630  1.0000
  S   S121      1.0  0.49285  0.73228  0.12195  1.0000
  C   C910      1.0  0.21835  0.62490  0.29094  1.0000
  H   H718      1.0  0.85300  0.76607  0.35936  1.0000
  S   S122      1.0  0.04156  0.71167  0.34949  1.0000
  C   C911      1.0  0.07378  0.61713  0.13813  1.0000
  C   C912      1.0  0.78192  0.61133  0.31906  1.0000
  C   C913      1.0  0.08697  0.62043  0.18163  1.0000
  C   C914      1.0  0.67519  0.61241  0.32328  1.0000
  C   C915      1.0  0.64763  0.93572  0.40576  1.0000
  C   C916      1.0  0.13588  0.97143  0.60799  1.0000
  C   C917      1.0  0.99913  0.92579  0.53192  1.0000
  H   H719      1.0  0.67469  0.98450  0.56669  1.0000
  H   H720      1.0  0.62612  0.05135  0.40644  1.0000
  C   C918      1.0  0.04806  0.08112  0.56141  1.0000
  C   C919      1.0  0.78517  0.91779  0.49655  1.0000
  H   H721      1.0  0.31063  0.01662  0.38668  1.0000
  C   C920      1.0  0.27470  0.97477  0.52192  1.0000
  C   C921      1.0  0.40880  0.09841  0.38879  1.0000
  C   C922      1.0  0.59595  0.01471  0.37384  1.0000
  H   H722      1.0  0.80031  0.97822  0.56697  1.0000
  H   H723      1.0  0.23833  0.96623  0.54172  1.0000
  C   C923      1.0  0.84203  0.98844  0.56007  1.0000
  C   C924      1.0  0.96842  0.88703  0.58400  1.0000
  C   C925      1.0  0.35957  0.00481  0.51355  1.0000
  S   S123      1.0  0.41323  0.86530  0.56217  1.0000
  C   C926      1.0  0.36994  0.99592  0.47073  1.0000
  H   H724      1.0  0.81116  0.02966  0.58375  1.0000
  H   H725      1.0  0.06547  0.94346  0.60038  1.0000
  H   H726      1.0  0.12561  0.02616  0.37285  1.0000
  C   C927      1.0  0.84278  0.09294  0.49199  1.0000
  H   H727      1.0  0.71397  0.00754  0.43045  1.0000
  Fe  Fe62      1.0  0.37169  0.03680  0.60433  1.0000
  H   H728      1.0  0.78050  0.96505  0.41977  1.0000
  C   C928      1.0  0.82310  0.89980  0.52122  1.0000
  H   H729      1.0  0.47680  0.88480  0.45809  1.0000
  C   C929      1.0  0.01618  0.90485  0.50169  1.0000
  H   H730      1.0  0.45010  0.92750  0.54440  1.0000
  H   H731      1.0  0.52363  0.05330  0.54485  1.0000
  C   C930      1.0  0.53293  0.85551  0.42078  1.0000
  C   C931      1.0  0.98562  0.86646  0.55371  1.0000
  C   C932      1.0  0.99361  0.98719  0.38868  1.0000
  C   C933      1.0  0.89042  0.97244  0.54324  1.0000
  C   C934      1.0  0.56817  0.06002  0.60356  1.0000
  H   H732      1.0  0.57210  0.86225  0.43528  1.0000
  S   S124      1.0  0.23933  0.93950  0.46156  1.0000
  S   S125      1.0  0.15087  0.89429  0.56259  1.0000
  H   H733      1.0  0.62268  0.99902  0.39195  1.0000
  H   H734      1.0  0.99206  0.02498  0.53994  1.0000
  C   C935      1.0  0.42112  0.07183  0.41072  1.0000
  C   C936      1.0  0.46465  0.06953  0.44121  1.0000
  C   C937      1.0  0.19270  0.02319  0.42012  1.0000
  C   C938      1.0  0.22292  0.03817  0.44998  1.0000
  H   H735      1.0  0.04334  0.05984  0.57746  1.0000
  C   C939      1.0  0.07947  0.96204  0.44191  1.0000
  P   P33       1.0  0.68415  0.95412  0.48556  1.0000
  S   S126      1.0  0.28460  0.91397  0.57752  1.0000
  H   H736      1.0  0.84138  0.88155  0.58542  1.0000
  C   C940      1.0  0.28469  0.96569  0.47961  1.0000
  H   H737      1.0  0.60654  0.93006  0.42276  1.0000
  H   H738      1.0  0.23035  0.07802  0.48194  1.0000
  H   H739      1.0  0.96216  0.93220  0.59737  1.0000
  H   H740      1.0  0.86218  0.89000  0.50575  1.0000
  S   S127      1.0  0.82437  0.08246  0.40734  1.0000
  S   S128      1.0  0.40614  0.02877  0.53588  1.0000
  C   C941      1.0  0.97479  0.91657  0.57315  1.0000
  C   C942      1.0  0.76214  0.90817  0.58624  1.0000
  C   C943      1.0  0.08798  0.08505  0.52582  1.0000
  C   C944      1.0  0.14967  0.01014  0.55293  1.0000
  C   C945      1.0  0.49473  0.93257  0.53326  1.0000
  H   H741      1.0  0.09697  0.07663  0.38670  1.0000
  C   C946      1.0  0.16559  0.99589  0.59194  1.0000
  H   H742      1.0  0.62905  0.90002  0.51653  1.0000
  C   C947      1.0  0.09094  0.96556  0.39682  1.0000
  H   H743      1.0  0.03581  0.91098  0.46995  1.0000
  P   P34       1.0  0.00966  0.96409  0.51873  1.0000
  H   H744      1.0  0.83766  0.06987  0.49799  1.0000
  C   C948      1.0  0.69534  0.02864  0.55102  1.0000
  Fe  Fe63      1.0  0.22908  0.90856  0.52031  1.0000
  H   H745      1.0  0.09172  0.01141  0.49982  1.0000
  H   H746      1.0  0.39686  0.05301  0.40440  1.0000
  H   H747      1.0  0.88495  0.95009  0.53615  1.0000
  H   H748      1.0  0.47431  0.97784  0.52097  1.0000
  C   C949      1.0  0.33237  0.97623  0.45373  1.0000
  C   C950      1.0  0.56561  0.96767  0.50533  1.0000
  C   C951      1.0  0.59587  0.91724  0.51759  1.0000
  H   H749      1.0  0.25780  0.02738  0.46776  1.0000
  C   C952      1.0  0.50832  0.96097  0.51981  1.0000
  H   H750      1.0  0.47414  0.04885  0.45807  1.0000
  H   H751      1.0  0.71602  0.07169  0.52591  1.0000
  Fe  Fe64      1.0  0.31518  0.86881  0.56679  1.0000
  C   C953      1.0  0.53863  0.91075  0.53241  1.0000
  C   C954      1.0  0.98168  0.98334  0.43382  1.0000
  C   C955      1.0  0.68743  0.99997  0.54072  1.0000
  C   C956      1.0  0.16114  0.08107  0.43589  1.0000
  C   C957      1.0  0.13218  0.06625  0.40475  1.0000
  H   H752      1.0  0.72648  0.05769  0.44903  1.0000
  H   H753      1.0  0.20427  0.00064  0.41472  1.0000
  C   C958      1.0  0.81163  0.89507  0.56609  1.0000
  C   C959      1.0  0.84801  0.01741  0.56957  1.0000
  C   C960      1.0  0.90203  0.03051  0.56151  1.0000
  C   C961      1.0  0.95057  0.01447  0.54526  1.0000
  C   C962      1.0  0.60998  0.94582  0.50447  1.0000
  H   H754      1.0  0.98115  0.10112  0.60269  1.0000
  C   C963      1.0  0.70959  0.04945  0.51798  1.0000
  H   H755      1.0  0.30420  0.00054  0.57226  1.0000
  C   C964      1.0  0.71580  0.04150  0.47467  1.0000
  C   C965      1.0  0.49489  0.09401  0.45081  1.0000
  H   H756      1.0  0.11253  0.06641  0.51442  1.0000
  H   H757      1.0  0.17450  0.02847  0.54013  1.0000
  H   H758      1.0  0.13334  0.95867  0.38265  1.0000
  H   H759      1.0  0.02487  0.85924  0.48988  1.0000
  C   C966      1.0  0.73484  0.93095  0.51652  1.0000
  C   C967      1.0  0.69544  0.99151  0.49746  1.0000
  H   H760      1.0  0.34095  0.96873  0.42121  1.0000
  C   C968      1.0  0.42698  0.85975  0.41684  1.0000
  C   C969      1.0  0.14811  0.03743  0.39689  1.0000
  H   H761      1.0  0.11328  0.95232  0.46216  1.0000
  H   H762      1.0  0.90692  0.05291  0.56914  1.0000
  C   C970      1.0  0.10323  0.00016  0.53019  1.0000
  C   C971      1.0  0.08845  0.96188  0.58619  1.0000
  H   H763      1.0  0.47885  0.10284  0.54093  1.0000
  S   S129      1.0  0.26313  0.86375  0.50792  1.0000
  C   C972      1.0  0.31198  0.99418  0.53904  1.0000
  C   C973      1.0  0.72364  0.92571  0.56163  1.0000
  H   H764      1.0  0.40720  0.00389  0.45108  1.0000
  C   C974      1.0  0.69285  0.94803  0.42761  1.0000
  C   C975      1.0  0.74516  0.95523  0.40391  1.0000
  H   H765      1.0  0.57489  0.98988  0.49506  1.0000
  H   H766      1.0  0.64882  0.87502  0.60355  1.0000
  C   C976      1.0  0.70894  0.01272  0.46432  1.0000
  C   C977      1.0  0.20750  0.06701  0.45774  1.0000
  H   H767      1.0  0.68516  0.93524  0.57816  1.0000
  H   H768      1.0  0.85556  0.10063  0.55952  1.0000
  C   C978      1.0  0.02447  0.97044  0.46067  1.0000
  H   H769      1.0  0.79590  0.92120  0.46214  1.0000
  C   C979      1.0  0.07179  0.97601  0.54691  1.0000
  H   H770      1.0  0.58591  0.03807  0.60618  1.0000
  C   C980      1.0  0.50864  0.09673  0.56623  1.0000
  H   H771      1.0  0.20206  0.00324  0.60934  1.0000
  H   H772      1.0  0.22648  0.86039  0.38422  1.0000
  H   H773      1.0  0.38512  0.86940  0.42790  1.0000
  H   H774      1.0  0.69083  0.03460  0.58479  1.0000
  C   C981      1.0  0.00956  0.87535  0.51266  1.0000
  C   C982      1.0  0.59773  0.04407  0.38218  1.0000
  C   C983      1.0  0.04791  0.97800  0.37018  1.0000
  C   C984      1.0  0.94563  0.98508  0.53715  1.0000
  H   H775      1.0  0.52806  0.88884  0.54352  1.0000
  H   H776      1.0  0.52765  0.09187  0.47510  1.0000
  H   H777      1.0  0.93928  0.99049  0.44752  1.0000
  C   C985      1.0  0.53340  0.06868  0.56879  1.0000
  C   C986      1.0  0.47890  0.86850  0.43379  1.0000
  H   H778      1.0  0.75007  0.87708  0.43510  1.0000
  H   H779      1.0  0.66746  0.86831  0.38914  1.0000
  C   C987      1.0  0.73215  0.85568  0.43557  1.0000
  H   H780      1.0  0.34272  0.92425  0.37881  1.0000
  H   H781      1.0  0.56156  0.08685  0.36704  1.0000
  H   H782      1.0  0.96089  0.99735  0.36781  1.0000
  H   H783      1.0  0.37546  0.10011  0.36463  1.0000
  Fe  Fe65      1.0  0.32764  0.08586  0.66026  1.0000
  C   C988      1.0  0.49459  0.89608  0.83843  1.0000
  H   H784      1.0  0.75389  0.90517  0.62118  1.0000
  H   H785      1.0  0.67082  0.90377  0.68827  1.0000
  C   C989      1.0  0.35317  0.87439  0.71985  1.0000
  C   C990      1.0  0.07964  0.86279  0.81601  1.0000
  C   C991      1.0  0.05288  0.92608  0.76764  1.0000
  C   C992      1.0  0.02525  0.03426  0.67005  1.0000
  C   C993      1.0  0.07427  0.05166  0.66352  1.0000
  H   H786      1.0  0.06873  0.07377  0.65104  1.0000
  C   C994      1.0  0.66999  0.85718  0.70291  1.0000
  S   S130      1.0  0.75471  0.03741  0.82365  1.0000
  H   H787      1.0  0.42946  0.08065  0.77337  1.0000
  C   C995      1.0  0.46829  0.91090  0.64785  1.0000
  C   C996      1.0  0.35760  0.92186  0.84221  1.0000
  H   H788      1.0  0.99508  0.99209  0.69256  1.0000
  C   C997      1.0  0.53729  0.00027  0.67571  1.0000
  H   H789      1.0  0.18303  0.05797  0.80748  1.0000
  Fe  Fe66      1.0  0.21081  0.89473  0.61874  1.0000
  H   H790      1.0  0.35384  0.88994  0.69211  1.0000
  H   H791      1.0  0.35507  0.97055  0.75443  1.0000
  H   H792      1.0  0.68385  0.99764  0.73459  1.0000
  S   S131      1.0  0.36610  0.00332  0.65988  1.0000
  H   H793      1.0  0.37200  0.01946  0.80039  1.0000
  H   H794      1.0  0.58563  0.97814  0.62430  1.0000
  H   H795      1.0  0.51820  0.94819  0.73048  1.0000
  C   C998      1.0  0.30625  0.85574  0.72653  1.0000
  H   H796      1.0  0.04893  0.85897  0.75137  1.0000
  H   H797      1.0  0.49568  0.08531  0.70796  1.0000
  H   H798      1.0  0.56798  0.88037  0.79831  1.0000
  H   H799      1.0  0.23774  0.90170  0.78960  1.0000
  C   C999      1.0  0.75305  0.88778  0.71177  1.0000
  H   H800      1.0  0.16842  0.05359  0.66894  1.0000
  S   S132      1.0  0.70471  0.97040  0.65254  1.0000
  S   S133      1.0  0.87612  0.97302  0.67231  1.0000
  C   C1000     1.0  0.58780  0.98718  0.65600  1.0000
  H   H801      1.0  0.42199  0.05326  0.84530  1.0000
  C   C1001     1.0  0.13689  0.01263  0.69278  1.0000
  H   H802      1.0  0.47497  0.90828  0.81153  1.0000
  C   C1002     1.0  0.07333  0.90824  0.68217  1.0000
  H   H803      1.0  0.88275  0.88143  0.82594  1.0000
  S   S134      1.0  0.95478  0.04844  0.65917  1.0000
  H   H804      1.0  0.04026  0.87446  0.82747  1.0000
  H   H805      1.0  0.43423  0.91214  0.62427  1.0000
  C   C1003     1.0  0.57840  0.07936  0.63571  1.0000
  H   H806      1.0  0.41219  0.95771  0.81929  1.0000
  H   H807      1.0  0.44179  0.95141  0.67560  1.0000
  H   H808      1.0  0.95078  0.08620  0.73092  1.0000
  C   C1004     1.0  0.49461  0.10202  0.73138  1.0000
  S   S135      1.0  0.31879  0.05732  0.72139  1.0000
  H   H809      1.0  0.77190  0.90911  0.71004  1.0000
  C   C1005     1.0  0.34825  0.02920  0.82765  1.0000
  H   H810      1.0  0.01611  0.03656  0.76230  1.0000
  C   C1006     1.0  0.53940  0.01116  0.71737  1.0000
  C   C1007     1.0  0.14585  0.04389  0.80980  1.0000
  H   H811      1.0  0.15049  0.09798  0.69821  1.0000
  C   C1008     1.0  0.47220  0.93291  0.67697  1.0000
  S   S136      1.0  0.20645  0.99902  0.70717  1.0000
  S   S137      1.0  0.41750  0.06880  0.64156  1.0000
  H   H812      1.0  0.00865  0.99606  0.81824  1.0000
  C   C1009     1.0  0.28973  0.02229  0.83770  1.0000
  H   H813      1.0  0.43474  0.88751  0.74367  1.0000
  H   H814      1.0  0.10438  0.06634  0.75592  1.0000
  S   S138      1.0  0.79416  0.02912  0.70293  1.0000
  C   C1010     1.0  0.37628  0.04841  0.85287  1.0000
  C   C1011     1.0  0.10087  0.04910  0.78095  1.0000
  C   C1012     1.0  0.55432  0.90706  0.70990  1.0000
  C   C1013     1.0  0.45700  0.09928  0.76870  1.0000
  H   H815      1.0  0.26876  0.00716  0.81795  1.0000
  H   H816      1.0  0.50265  0.86980  0.62739  1.0000
  C   C1014     1.0  0.12093  0.91335  0.70759  1.0000
  H   H817      1.0  0.87438  0.02574  0.84981  1.0000
  C   C1015     1.0  0.05111  0.03219  0.78447  1.0000
  C   C1016     1.0  0.50745  0.88696  0.64960  1.0000
  C   C1017     1.0  0.13024  0.04058  0.67404  1.0000
  C   C1018     1.0  0.08782  0.99540  0.69962  1.0000
  H   H818      1.0  0.26765  0.94286  0.73975  1.0000
  C   C1019     1.0  0.04685  0.00948  0.81613  1.0000
  S   S139      1.0  0.93389  0.92196  0.76654  1.0000
  H   H819      1.0  0.80939  0.09612  0.68731  1.0000
  C   C1020     1.0  0.51515  0.93098  0.70802  1.0000
  H   H820      1.0  0.14705  0.92676  0.76979  1.0000
  H   H821      1.0  0.14925  0.96015  0.63794  1.0000
  C   C1021     1.0  0.39836  0.87316  0.74908  1.0000
  S   S140      1.0  0.47607  0.02530  0.74443  1.0000
  C   C1022     1.0  0.34228  0.95250  0.77647  1.0000
  C   C1023     1.0  0.39600  0.85365  0.78546  1.0000
  C   C1024     1.0  0.54746  0.88042  0.83076  1.0000
  C   C1025     1.0  0.64094  0.98614  0.67716  1.0000
  C   C1026     1.0  0.09105  0.00464  0.84581  1.0000
  S   S141      1.0  0.90300  0.00589  0.76313  1.0000
  C   C1027     1.0  0.64317  0.99792  0.71812  1.0000
  H   H822      1.0  0.58692  0.90606  0.73433  1.0000
  C   C1028     1.0  0.59240  0.00997  0.73846  1.0000
  C   C1029     1.0  0.79659  0.05220  0.86298  1.0000
  Fe  Fe67      1.0  0.89006  0.01818  0.69263  1.0000
  Fe  Fe68      1.0  0.88262  0.96141  0.74365  1.0000
  H   H823      1.0  0.61601  0.05815  0.83236  1.0000
  C   C1030     1.0  0.03232  0.00589  0.68750  1.0000
  Fe  Fe69      1.0  0.28051  0.02574  0.67874  1.0000
  C   C1031     1.0  0.30756  0.90646  0.83373  1.0000
  H   H824      1.0  0.18874  0.96316  0.85977  1.0000
  Fe  Fe70      1.0  0.80556  0.01274  0.77210  1.0000
  H   H825      1.0  0.83254  0.86594  0.73294  1.0000
  C   C1032     1.0  0.08441  0.85400  0.77305  1.0000
  C   C1033     1.0  0.11052  0.92232  0.75028  1.0000
  H   H826      1.0  0.49657  0.00136  0.65903  1.0000
  H   H827      1.0  0.91945  0.08447  0.80945  1.0000
  C   C1034     1.0  0.14070  0.02197  0.84302  1.0000
  H   H828      1.0  0.59444  0.01856  0.77049  1.0000
  Fe  Fe71      1.0  0.78109  0.98254  0.69041  1.0000
  S   S142      1.0  0.78620  0.96662  0.76029  1.0000
  H   H829      1.0  0.04526  0.93278  0.80075  1.0000
  H   H830      1.0  0.54866  0.09968  0.85027  1.0000
  H   H831      1.0  0.08115  0.90089  0.64949  1.0000
  Fe  Fe72      1.0  0.40484  0.03703  0.69834  1.0000
  C   C1035     1.0  0.29287  0.93696  0.76823  1.0000
  C   C1036     1.0  0.27573  0.91387  0.79668  1.0000
  C   C1037     1.0  0.78729  0.86346  0.72458  1.0000
  C   C1038     1.0  0.90721  0.86195  0.83605  1.0000
  H   H832      1.0  0.97870  0.90774  0.68026  1.0000
  H   H833      1.0  0.60469  0.07200  0.66288  1.0000
  S   S143      1.0  0.19394  0.90853  0.68753  1.0000
  C   C1039     1.0  0.37452  0.94504  0.81325  1.0000
  C   C1040     1.0  0.00532  0.92083  0.74242  1.0000
  C   C1041     1.0  0.55103  0.88489  0.68052  1.0000
  C   C1042     1.0  0.69500  0.88467  0.70026  1.0000
  C   C1043     1.0  0.12610  0.85727  0.84355  1.0000
  H   H834      1.0  0.09289  0.97380  0.71377  1.0000
  C   C1044     1.0  0.01547  0.91217  0.69952  1.0000
  H   H835      1.0  0.29239  0.88892  0.85549  1.0000
  H   H836      1.0  0.27116  0.85711  0.70392  1.0000
  H   H837      1.0  0.74083  0.09280  0.75254  1.0000
  C   C1045     1.0  0.95726  0.09680  0.79787  1.0000
  H   H838      1.0  0.31420  0.10169  0.78269  1.0000
  S   S144      1.0  0.28173  0.05580  0.61894  1.0000
  H   H839      1.0  0.17156  0.09175  0.61888  1.0000
  C   C1046     1.0  0.97491  0.09784  0.75363  1.0000
  H   H840      1.0  0.95172  0.88001  0.61639  1.0000
  C   C1047     1.0  0.87171  0.99938  0.07663  1.0000
  C   C1048     1.0  0.85468  0.04271  0.86909  1.0000
  H   H841      1.0  0.33355  0.00698  0.95255  1.0000
  H   H842      1.0  0.91339  0.91494  0.01783  1.0000
  C   C1049     1.0  0.61499  0.97507  0.02859  1.0000
  H   H843      1.0  0.43343  0.02642  0.95112  1.0000
  H   H844      1.0  0.51907  0.99679  0.92338  1.0000
  C   C1050     1.0  0.19404  0.96231  0.89477  1.0000
  H   H845      1.0  0.69656  0.08525  0.97884  1.0000
  H   H846      1.0  0.20814  0.00578  0.98012  1.0000
  C   C1051     1.0  0.66444  0.05336  0.02766  1.0000
  C   C1052     1.0  0.89563  0.89436  0.01048  1.0000
  C   C1053     1.0  0.20738  0.93380  0.96230  1.0000
  H   H847      1.0  0.85197  0.96908  0.92151  1.0000
  H   H848      1.0  0.86072  0.00991  0.96998  1.0000
  H   H849      1.0  0.50502  0.94762  0.89919  1.0000
  H   H850      1.0  0.54521  0.88155  0.08773  1.0000
  H   H851      1.0  0.17548  0.08583  0.88300  1.0000
  H   H852      1.0  0.75356  0.95376  0.90269  1.0000
  H   H853      1.0  0.31817  0.95862  0.92590  1.0000
  H   H854      1.0  0.19786  0.91560  0.89986  1.0000
  C   C1054     1.0  0.34568  0.06081  0.88827  1.0000
  C   C1055     1.0  0.05723  0.08683  0.95447  1.0000
  C   C1056     1.0  0.12745  0.90886  0.09319  1.0000
  C   C1057     1.0  0.49496  0.98941  0.03587  1.0000
  H   H855      1.0  0.12264  0.86460  0.87656  1.0000
  P   P35       1.0  0.64548  0.02836  0.98779  1.0000
  H   H856      1.0  0.66403  0.97896  0.93211  1.0000
  H   H857      1.0  0.99442  0.88630  0.06561  1.0000
  S   S145      1.0  0.34162  0.94524  0.07473  1.0000
  H   H858      1.0  0.63731  0.02632  0.08449  1.0000
  C   C1058     1.0  0.02870  0.99318  0.10062  1.0000
  H   H859      1.0  0.65723  0.02699  0.89063  1.0000
  H   H860      1.0  0.36209  0.85420  0.88926  1.0000
  C   C1059     1.0  0.34959  0.86171  0.92135  1.0000
  C   C1060     1.0  0.88681  0.05460  0.90134  1.0000
  C   C1061     1.0  0.21065  0.95926  0.98466  1.0000
  C   C1062     1.0  0.50387  0.87077  0.08895  1.0000
  C   C1063     1.0  0.69838  0.09211  0.08833  1.0000
  C   C1064     1.0  0.23630  0.09210  0.00639  1.0000
  H   H861      1.0  0.89666  0.04320  0.05860  1.0000
  C   C1065     1.0  0.81448  0.86177  0.01344  1.0000
  H   H862      1.0  0.21121  0.91292  0.97995  1.0000
  C   C1066     1.0  0.32297  0.87934  0.00593  1.0000
  H   H863      1.0  0.21761  0.95805  0.01944  1.0000
  C   C1067     1.0  0.62635  0.04413  0.89966  1.0000
  C   C1068     1.0  0.49473  0.87989  0.91486  1.0000
  C   C1069     1.0  0.56521  0.08535  0.87619  1.0000
  C   C1070     1.0  0.14354  0.04824  0.92098  1.0000
  H   H864      1.0  0.02102  0.04966  0.98963  1.0000
  C   C1071     1.0  0.08575  0.89575  0.06947  1.0000
  H   H865      1.0  0.09941  0.88482  0.04020  1.0000
  H   H866      1.0  0.21082  0.06239  0.05931  1.0000
  H   H867      1.0  0.51720  0.03087  0.00672  1.0000
  C   C1072     1.0  0.05624  0.05750  0.96754  1.0000
  P   P36       1.0  0.39753  0.91412  0.89132  1.0000
  C   C1073     1.0  0.76733  0.01763  0.97845  1.0000
  C   C1074     1.0  0.02643  0.89682  0.08355  1.0000
  S   S146      1.0  0.90006  0.09032  0.96832  1.0000
  H   H868      1.0  0.39640  0.07587  0.00031  1.0000
  C   C1075     1.0  0.54769  0.86448  0.90706  1.0000
  H   H869      1.0  0.08735  0.98587  0.04489  1.0000
  C   C1076     1.0  0.61176  0.04943  0.94365  1.0000
  C   C1077     1.0  0.09581  0.02873  0.06835  1.0000
  C   C1078     1.0  0.38926  0.07919  0.03483  1.0000
  C   C1079     1.0  0.46724  0.89544  0.88045  1.0000
  S   S147      1.0  0.20141  0.90621  0.07597  1.0000
  C   C1080     1.0  0.36230  0.96645  0.92609  1.0000
  H   H870      1.0  0.56161  0.07770  0.98686  1.0000
  C   C1081     1.0  0.81770  0.00282  0.96242  1.0000
  H   H871      1.0  0.93141  0.04692  0.90657  1.0000
  C   C1082     1.0  0.09881  0.03818  0.95053  1.0000
  C   C1083     1.0  0.75728  0.97124  0.92450  1.0000
  H   H872      1.0  0.47517  0.87949  0.94785  1.0000
  C   C1084     1.0  0.54979  0.09061  0.91975  1.0000
  H   H873      1.0  0.72607  0.08105  0.88440  1.0000
  C   C1085     1.0  0.07217  0.00114  0.06896  1.0000
  S   S148      1.0  0.33987  0.02645  0.03959  1.0000
  C   C1086     1.0  0.71129  0.00932  0.96760  1.0000
  C   C1087     1.0  0.81277  0.97984  0.93513  1.0000
  P   P37       1.0  0.09975  0.08540  0.09704  1.0000
  H   H874      1.0  0.44841  0.99493  0.03908  1.0000
  C   C1088     1.0  0.20488  0.98626  0.96232  1.0000
  Fe  Fe73      1.0  0.32347  0.99124  0.09110  1.0000
  H   H875      1.0  0.35483  0.92062  0.98356  1.0000
  C   C1089     1.0  0.65617  0.04658  0.07265  1.0000
  H   H876      1.0  0.89509  0.99022  0.04874  1.0000
  C   C1090     1.0  0.41042  0.94903  0.91215  1.0000
  C   C1091     1.0  0.86122  0.07645  0.92671  1.0000
  H   H877      1.0  0.59109  0.93361  0.05874  1.0000
  H   H878      1.0  0.51133  0.06780  0.10646  1.0000
  C   C1092     1.0  0.93169  0.87350  0.99001  1.0000
  C   C1093     1.0  0.57394  0.86462  0.86497  1.0000
  C   C1094     1.0  0.59447  0.00239  0.01232  1.0000
  H   H879      1.0  0.48461  0.94620  0.06415  1.0000
  C   C1095     1.0  0.53427  0.00970  0.01733  1.0000
  H   H880      1.0  0.02347  0.10152  0.96703  1.0000
  H   H881      1.0  0.31400  0.88587  0.03911  1.0000
  H   H882      1.0  0.09485  0.01527  0.95884  1.0000
  H   H883      1.0  0.99384  0.08712  0.04804  1.0000
  C   C1096     1.0  0.19735  0.08131  0.03941  1.0000
  C   C1097     1.0  0.80377  0.08645  0.91984  1.0000
  H   H884      1.0  0.84237  0.95829  0.10251  1.0000
  P   P38       1.0  0.18607  0.02277  0.88902  1.0000
  C   C1098     1.0  0.67295  0.06608  0.10282  1.0000
  C   C1099     1.0  0.87305  0.02915  0.08236  1.0000
  C   C1100     1.0  0.35888  0.89055  0.93122  1.0000
  H   H885      1.0  0.97671  0.87859  0.98044  1.0000
  C   C1101     1.0  0.14328  0.09585  0.04836  1.0000
  C   C1102     1.0  0.51539  0.96193  0.05024  1.0000
  H   H886      1.0  0.80948  0.90457  0.03853  1.0000
  H   H887      1.0  0.89502  0.86996  0.90369  1.0000
  C   C1103     1.0  0.37084  0.99402  0.94064  1.0000
  C   C1104     1.0  0.07646  0.04837  0.09984  1.0000
  H   H888      1.0  0.66143  0.96925  0.02699  1.0000
  C   C1105     1.0  0.84125  0.98126  0.10729  1.0000
  C   C1106     1.0  0.34581  0.89911  0.97400  1.0000
  C   C1107     1.0  0.57542  0.95485  0.04700  1.0000
  C   C1108     1.0  0.46717  0.96018  0.91101  1.0000
  H   H889      1.0  0.27815  0.08097  0.00030  1.0000
  H   H890      1.0  0.26477  0.06261  0.92707  1.0000
  C   C1109     1.0  0.68953  0.07972  0.01340  1.0000
  C   C1110     1.0  0.36203  0.05806  0.06226  1.0000
  C   C1111     1.0  0.19490  0.98793  0.91745  1.0000
  C   C1112     1.0  0.77103  0.07382  0.88878  1.0000
  H   H891      1.0  0.00920  0.97217  0.10045  1.0000
  C   C1113     1.0  0.35233  0.06258  0.10690  1.0000
  C   C1114     1.0  0.47539  0.98814  0.92459  1.0000
  C   C1115     1.0  0.19968  0.93532  0.91728  1.0000
  C   C1116     1.0  0.25895  0.03447  0.87337  1.0000
  C   C1117     1.0  0.28725  0.05372  0.89868  1.0000
  H   H892      1.0  0.36762  0.07536  0.90828  1.0000
  C   C1118     1.0  0.70676  0.09893  0.04362  1.0000
  C   C1119     1.0  0.70671  0.98572  0.94098  1.0000
  Fe  Fe74      1.0  0.25577  0.93650  0.11033  1.0000
  H   H893      1.0  0.77286  0.03577  0.99862  1.0000
  C   C1120     1.0  0.83708  0.88851  0.02223  1.0000
  C   C1121     1.0  0.14388  0.07783  0.90787  1.0000
  C   C1122     1.0  0.42727  0.00494  0.93984  1.0000
  H   H894      1.0  0.12830  0.03466  0.04299  1.0000
  C   C1123     1.0  0.57293  0.07278  0.95332  1.0000
  C   C1124     1.0  0.60313  0.06202  0.86616  1.0000
  H   H895      1.0  0.76921  0.85711  0.02292  1.0000
  C   C1125     1.0  0.91439  0.85523  0.88042  1.0000
  C   C1126     1.0  0.10079  0.09703  0.92455  1.0000
  H   H896      1.0  0.74960  0.88001  0.10620  1.0000
  H   H897      1.0  0.08491  0.98833  0.87208  1.0000
  C   C1127     1.0  0.45580  0.88188  0.11369  1.0000
  H   H898      1.0  0.10629  0.85418  0.14678  1.0000
  C   C1128     1.0  0.36581  0.85613  0.24606  1.0000
  H   H899      1.0  0.49233  0.89264  0.25658  1.0000
  H   H900      1.0  0.49445  0.07096  0.31438  1.0000
  C   C1129     1.0  0.52456  0.02577  0.31823  1.0000
  C   C1130     1.0  0.82410  0.94874  0.21712  1.0000
  H   H901      1.0  0.76473  0.91387  0.23479  1.0000
  H   H902      1.0  0.25237  0.05384  0.34483  1.0000
  H   H903      1.0  0.71301  0.93342  0.30376  1.0000
  C   C1131     1.0  0.88079  0.95871  0.22173  1.0000
  H   H904      1.0  0.66705  0.06114  0.13757  1.0000
  C   C1132     1.0  0.03440  0.03972  0.13252  1.0000
  C   C1133     1.0  0.31031  0.92059  0.35522  1.0000
  C   C1134     1.0  0.23902  0.10215  0.19466  1.0000
  C   C1135     1.0  0.72652  0.89804  0.12141  1.0000
  H   H905      1.0  0.49160  0.07530  0.24445  1.0000
  H   H906      1.0  0.40752  0.99928  0.35713  1.0000
  Fe  Fe75      1.0  0.82835  0.09250  0.24411  1.0000
  C   C1136     1.0  0.10991  0.92329  0.13083  1.0000
  H   H907      1.0  0.17505  0.03882  0.28862  1.0000
  C   C1137     1.0  0.30683  0.89331  0.33796  1.0000
  H   H908      1.0  0.38709  0.96917  0.28039  1.0000
  C   C1138     1.0  0.66535  0.89858  0.12605  1.0000
  H   H909      1.0  0.23412  0.05683  0.21410  1.0000
  H   H910      1.0  0.05216  0.97386  0.21114  1.0000
  C   C1139     1.0  0.22788  0.93800  0.31356  1.0000
  C   C1140     1.0  0.22456  0.91087  0.29592  1.0000
  Fe  Fe76      1.0  0.91083  0.86757  0.15070  1.0000
  S   S149      1.0  0.29400  0.92713  0.17583  1.0000
  H   H911      1.0  0.15493  0.04761  0.16562  1.0000
  S   S150      1.0  0.93443  0.91360  0.13758  1.0000
  C   C1141     1.0  0.72649  0.99278  0.21830  1.0000
  H   H912      1.0  0.83663  0.88472  0.27747  1.0000
  H   H913      1.0  0.57534  0.97444  0.25851  1.0000
  C   C1142     1.0  0.14875  0.09207  0.13921  1.0000
  S   S151      1.0  0.97496  0.01130  0.25847  1.0000
  C   C1143     1.0  0.37039  0.08826  0.12409  1.0000
  C   C1144     1.0  0.50728  0.02740  0.14465  1.0000
  C   C1145     1.0  0.43462  0.92921  0.27003  1.0000
  C   C1146     1.0  0.48128  0.97552  0.27288  1.0000
  Fe  Fe77      1.0  0.37891  0.93919  0.14060  1.0000
  H   H914      1.0  0.36342  0.09169  0.15857  1.0000
  H   H915      1.0  0.06639  0.86534  0.22082  1.0000
  C   C1147     1.0  0.70737  0.93750  0.33819  1.0000
  H   H916      1.0  0.64192  0.05105  0.28610  1.0000
  H   H917      1.0  0.97759  0.00588  0.15785  1.0000
  H   H918      1.0  0.89446  0.97904  0.20595  1.0000
  H   H919      1.0  0.64301  0.96012  0.18065  1.0000
  H   H920      1.0  0.36464  0.87646  0.13368  1.0000
  H   H921      1.0  0.19719  0.95533  0.30420  1.0000
  C   C1148     1.0  0.11247  0.85955  0.21570  1.0000
  C   C1149     1.0  0.27068  0.94292  0.34309  1.0000
  C   C1150     1.0  0.81128  0.99279  0.14393  1.0000
  C   C1151     1.0  0.36876  0.04557  0.27250  1.0000
  H   H922      1.0  0.13084  0.86257  0.28315  1.0000
  H   H923      1.0  0.05676  0.98070  0.33519  1.0000
  C   C1152     1.0  0.90517  0.91548  0.26624  1.0000
  H   H924      1.0  0.33707  0.87608  0.34821  1.0000
  C   C1153     1.0  0.26338  0.88809  0.30865  1.0000
  S   S152      1.0  0.83761  0.05586  0.29376  1.0000
  H   H925      1.0  0.93714  0.90233  0.28405  1.0000
  C   C1154     1.0  0.32699  0.02465  0.35491  1.0000
  H   H926      1.0  0.61970  0.92130  0.34452  1.0000
  H   H927      1.0  0.55799  0.98261  0.33762  1.0000
  C   C1155     1.0  0.66734  0.94349  0.16342  1.0000
  C   C1156     1.0  0.43038  0.95905  0.27547  1.0000
  C   C1157     1.0  0.14928  0.85820  0.25086  1.0000
  H   H928      1.0  0.84703  0.06374  0.12446  1.0000
  Fe  Fe78      1.0  0.93230  0.05448  0.27119  1.0000
  C   C1158     1.0  0.38176  0.01488  0.33794  1.0000
  H   H929      1.0  0.79506  0.03239  0.17895  1.0000
  H   H930      1.0  0.80580  0.91807  0.13618  1.0000
  C   C1159     1.0  0.01039  0.01230  0.13270  1.0000
  C   C1160     1.0  0.68220  0.01053  0.19961  1.0000
  C   C1161     1.0  0.21617  0.07449  0.19392  1.0000
  C   C1162     1.0  0.05194  0.00996  0.25226  1.0000
  C   C1163     1.0  0.53602  0.96184  0.26286  1.0000
  H   H931      1.0  0.14225  0.93301  0.14961  1.0000
  H   H932      1.0  0.96530  0.94954  0.24859  1.0000
  C   C1164     1.0  0.75827  0.92002  0.13793  1.0000
  C   C1165     1.0  0.66423  0.03420  0.26773  1.0000
  H   H933      1.0  0.49522  0.99100  0.18924  1.0000
  S   S153      1.0  0.46329  0.91285  0.14374  1.0000
  H   H934      1.0  0.19157  0.90803  0.27255  1.0000
  C   C1166     1.0  0.00867  0.91168  0.12070  1.0000
  C   C1167     1.0  0.14816  0.02477  0.27144  1.0000
  H   H935      1.0  0.33024  0.04654  0.12810  1.0000
  P   P39       1.0  0.47631  0.01442  0.27732  1.0000
  C   C1168     1.0  0.49697  0.06141  0.21740  1.0000
  S   S154      1.0  0.25148  0.99759  0.24385  1.0000
  H   H936      1.0  0.01946  0.05433  0.15761  1.0000
  C   C1169     1.0  0.05040  0.92447  0.14474  1.0000
  C   C1170     1.0  0.49941  0.01426  0.18652  1.0000
  C   C1171     1.0  0.31498  0.05589  0.29037  1.0000
  H   H937      1.0  0.77621  0.98440  0.27620  1.0000
  C   C1172     1.0  0.08661  0.02863  0.27377  1.0000
  H   H938      1.0  0.06610  0.04540  0.29315  1.0000
  H   H939      1.0  0.39506  0.91679  0.27127  1.0000
  H   H940      1.0  0.28890  0.07182  0.27233  1.0000
  H   H941      1.0  0.38268  0.05345  0.24000  1.0000
  H   H942      1.0  0.16041  0.96781  0.20533  1.0000
  H   H943      1.0  0.03655  0.93496  0.17424  1.0000
  C   C1173     1.0  0.84498  0.04074  0.11931  1.0000
  H   H944      1.0  0.71982  0.02004  0.31979  1.0000
  C   C1174     1.0  0.50848  0.05753  0.13904  1.0000
  C   C1175     1.0  0.29413  0.04557  0.33148  1.0000
  P   P40       1.0  0.77222  0.96943  0.18427  1.0000
  H   H945      1.0  0.61870  0.04552  0.20939  1.0000
  H   H946      1.0  0.34897  0.87662  0.23224  1.0000
  C   C1176     1.0  0.55939  0.00553  0.34226  1.0000
  H   H947      1.0  0.68071  0.85868  0.20241  1.0000
  S   S155      1.0  0.92088  0.08818  0.21700  1.0000
  C   C1177     1.0  0.84846  0.90564  0.26254  1.0000
  C   C1178     1.0  0.48940  0.91565  0.26147  1.0000
  C   C1179     1.0  0.07888  0.98816  0.22769  1.0000
  Fe  Fe79      1.0  0.28083  0.97521  0.18293  1.0000
  H   H948      1.0  0.58216  0.92148  0.24948  1.0000
  H   H949      1.0  0.79361  0.95479  0.34183  1.0000
  H   H950      1.0  0.27268  0.96401  0.35674  1.0000
  C   C1180     1.0  0.54007  0.93195  0.25760  1.0000
  C   C1181     1.0  0.81485  0.02269  0.15016  1.0000
  H   H951      1.0  0.15396  0.09192  0.29961  1.0000
  C   C1182     1.0  0.63572  0.92132  0.14701  1.0000
  Fe  Fe80      1.0  0.86289  0.08972  0.33861  1.0000
  H   H952      1.0  0.50090  0.09790  0.17119  1.0000
  S   S156      1.0  0.75196  0.09449  0.20065  1.0000
  C   C1183     1.0  0.80799  0.92220  0.23815  1.0000
  C   C1184     1.0  0.52436  0.05501  0.32885  1.0000
  S   S157      1.0  0.36989  0.98640  0.15374  1.0000
  C   C1185     1.0  0.92113  0.94204  0.24610  1.0000
  H   H953      1.0  0.58813  0.92152  0.15103  1.0000
  C   C1186     1.0  0.70817  0.01670  0.28664  1.0000
  C   C1187     1.0  0.17098  0.06937  0.16637  1.0000
  C   C1188     1.0  0.17487  0.00296  0.24642  1.0000
  S   S158      1.0  0.95908  0.08481  0.32030  1.0000
  C   C1189     1.0  0.73969  0.99627  0.26190  1.0000
  H   H954      1.0  0.67350  0.00932  0.16539  1.0000
  C   C1190     1.0  0.49401  0.03115  0.22355  1.0000
  C   C1191     1.0  0.40332  0.02547  0.29671  1.0000
  C   C1192     1.0  0.65108  0.03105  0.22434  1.0000
  C   C1193     1.0  0.14012  0.98486  0.22426  1.0000
  C   C1194     1.0  0.50307  0.07447  0.17544  1.0000
  C   C1195     1.0  0.72916  0.94321  0.15870  1.0000
  S   S159      1.0  0.82610  0.85461  0.18399  1.0000
  H   H955      1.0  0.50960  0.01424  0.11642  1.0000
  C   C1196     1.0  0.56167  0.06413  0.35985  1.0000
  H   H956      1.0  0.73298  0.10177  0.29280  1.0000
  H   H957      1.0  0.05538  0.10259  0.27170  1.0000
  H   H958      1.0  0.57430  0.85925  0.22344  1.0000
  C   C1197     1.0  0.65483  0.93067  0.36120  1.0000
  C   C1198     1.0  0.75259  0.94966  0.35959  1.0000
  S   S160      1.0  0.23357  0.98342  0.12067  1.0000
  H   H959      1.0  0.44887  0.85932  0.20978  1.0000
  C   C1199     1.0  0.13512  0.85360  0.17389  1.0000
  C   C1200     1.0  0.40201  0.86805  0.11463  1.0000
  H   H960      1.0  0.64124  0.88095  0.11428  1.0000
