data_image0
_chemical_formula_structural       FeS2FeS2FeSFeS3HSCH2SFeS2FeS2FeSFeS3CHC3HC6H2C6H4C6H4C6H4C2HC6H2PC4H5C2HC3PC7H2CH6FeCH3CHC8HC5H5CH3C10H9C9H2C3H2C2H8SHCHPC5H2CSH3PC2HC2HC2H2C4H2CHC6H3FeHCHC3H2CHFeC5H2CHSCSH3CHCHCH2PH2C3FeC5H4C4H2C2HC3HC2HPCHCH5C3H2CHCHC4H2CHCHC2H3CHCPFeS2FeSCFeSFeS3CH3CHCH3FeSCHSFeSFeSCSC6H3C6H3CHC4HC6H4CHC3H5C2HCH2C4HCHCH3C4H2CH2C2HCH2CHC2HCH2CH2C2HCH2C2SC5HC3H2C3PC3HC3H2C8HCH4CH2CH2CH4SCH3CHC6HC2H3C2H3CHPC2H4CH3CHC2SCHCHCH2C6H4C2H2CHCSCH3SFeS2FeS2FeSFeS3C3H2C3H2CHCH2CHC11H4C3HCHC2HCH4C2HC2HCH5CHCHCH2CH2CH2CHCSHCH2CHCPH2C3H2CPHC3HCHCHC3HCH2CHC6PC2HC10H5CH3C2H12C3HC2HC3HC3HCH3CHSCHC4H2C2HFeCHCHC2H2CH2FeSHFeSHFeSFeS3CSFeSC8H6CH2C2HCHC6PC4PC2PH3C3H3CH5SH2CH3C2H2C2H2SC3PC10H2C4HSH8CHC2H4CSHCH3C2H2C2PC3HC11H5C4HC4HCH2CHCHC5HC2H2CHC2H3CH2CHC2HC11SHCHC2H5C2H3C2HC3H8CHCHCFeC2H2CPFeS2FeS2FeSFeS3FeS2FeS2FeSFeS3C7H2CH2SHC6H4C3H2C3H3C2HCFeC4HCHSHFeH3C11H4C3HCH2C6H2CHC9PC13HC3HC2H8CPH3C2H2CSC3HCH2CH2CHC2HCFeHSH2CHC2HC5PCHSH4PC5HC3HC4H4CHC2H3CH2C2HCH2CHCHCH5C3H2C5HCH4C2HCSC3H3SH2CHC6HCHC4H2C4H2C4HCHC2H2CH3CFeS2FeSHCFeCS2CFeCSFeCSC2HS2H3C5HSC2FeCSHC2HCHC6H5SC3HC2HCH4C4HS2C3HPC2H5CH2CHC5HC2PCH2C2H2CHC4HC2HC2H2CHC4HCH2CH5C2FeCHC3HC3H5CHCPCHCH5CHCHCHC2FeS2FeS2FeSFeS3HC2SHCHSCHCH2C6H3FeC2H2CPCHC6H3C6H4C4H4C2H2C4H2CHC2HPC3HC2H2C2HCH2C7PC18H20C6H3CH5CHC5HCH2C7HC2HCH2CH8C10HC6HC2H8CH2C3H2C3H2C2H2C4HCHC2HCH3PC2HC6HCPC4HC2PHC2H7CHC3HC2H2CSHCH3CHCHC2H2C2HCH2CHCSHC2SH3CH3C5H2SFeSHSPH4CSFeSFeSCHSFeSHFeSH3C5H4CHC4FeCH2SH3C3H5C8PC15H16CH2C3PC14HC5H13CHCH3CHCH3CFeC6FeCHSCHC2SC2HCSH2SH2SPC2SC3H3SH3CH2C7HC9PC18HCH11CHCFeHSFeH2CSHCH3FeSC4HCHFeH2SH2S2H2CSCSC2HCHC3H2CHCHSFeC3FeSCSCFe2CHS2HC2H3SCHCHCH2C2HC2SHC2SC2HFeC2SC2H2CHC3H2SH2CFeHFeC2HCHCHCPHFeC2HCH2CHSH2CFeSC2H3PH2CHC6H2CHCHCHC2H2C2HCSCH2CH4C4H2C4HCH5C3HCH2CHC2H4C3H4C2H2CH2C3HCH4C10FeSHFeS2FeHFeS3Fe2SCSFeS2HCS2FeS2FeSFeSFeS3FeS2FeSCFeSFeSCHC2HC7H4C6HCH3CSH2C6H4C6H5C6H5PCHFeC2FeH2CFeC5H3CHC2PC12HSH11C2H2SHC3H4CHC12H9C6PC10H13CHC4SHSC2HCSH2CH2CH2CH2CH4C2H3PHCH2FeH3C2FeCHCHCH3CSC6PC18H17C2H3SH3FeS3C10HC6HC2HCPCHC2SC3HC4HFeCHC2HC2HCH2C2H2CSCH2C3H2CHCH3PCH3C2SCHC3HS2HCSHCHC7H2C7HCH2CSHCHC2HCPCH3C2HC2H4C3H2C3H3C2HCPHC4PHFeHCHC5H6CSCFeC2HSHCH5CHCH2C5HCH2CHCHSFeS2FeSFeSFeS2FeS2FeSFeS3FeS2FeS2FeSFeS3C8HCH2C4HC6H4C6H4C2HC6H4C6H5CSCPC19H13C6HSC2H3CHC2H3CHC3HC2HCFeCH6CHC2PC5HC7H2CH4C2H10C3PC11H2C3H13CHC2H2CHCH7SC6HC2HC7H4C8H3CH4SHC4HCH3CH2CHCH4C3HCHCHC2HC5HCPHC5H3CHCHPCHCHC6H2PH3CHC2H2C2HC5HC2HCHC3HC5HCH3CH3C3HSC2H5CHC5HFeS2C3HFePHSFeCS2CHCSC5H4C2HC2SC2H4SHC2PHFeCHCHCHCHC4HC6SC2H2CHFeHCH3C4HC3H4CHCHC2H3C2HCH3CH2C2H2C2HFeS2FeHFeSFeS3H2CHCFeS2FeS2FeSFeS3C7H2C2HFeC3H2CH2CH2PC6H8C6H7CHC4H4C3HCHC2H3C2HSC2HC2HC4H2C2SC2H4CHCHC2HC4H3C6HCH3SCSHCHCSC4SHCH2C2H4CSC5HCH2C3H8C3H3C2FeCHCPC9PC5HCPC2HCHCH3C2HCHC2FePH2CH2CHC2HCHC3H4C2H5SFeS2HCHFe2HCSC2HC2H3CFeSC2FeHSFeHSCHCSC6H4CH2C3PC3HC4HCH4C2HC6H3CH3C2H2CHFeHCHC5H2C6H3C2HSC3HC2HSHCH2PC3H2CH2C2H2C4HC4HC2SHC2HCH4C3HCHC5PC7H2C2SC2H2CHCSCHCHCH3CHC4HC2HSH3C5H4CH2CH3C2HCH4CH3CSH2PC2PCHSFeS2FeS2FeSFeS3CHC2H2C2HCH2C5H3C6H6C6H2C2SCHC3HC2H2CH2C2HPHC3HC5H2CH2C3H5C3H3C2HSC6HCHP2HC2H7C4HC2H5CH4CHC2FeHC2HC3H3CH3C3HC4H2CHC2HSC3H2C2H3CHC7HC2H2CSH4CFeCHC2HC2HSHPH2CSH4CHSC4H3CH2SCH5CFeC8PC10HC6HCH9CHCH2CHCFeHCH3CH2CH5C4H2CH2CH2SCHSHSCHCFeSC5H4C6PC9H2C8H3SH5C2HSCH5C2H2CHC3H2C3HC2H2CH2C2H4FeCFeCHCH
_chemical_formula_sum              "Fe144 S288 H1728 C2160 P72"
_cell_length_a       54.0276
_cell_length_b       54.3129
_cell_length_c       56.5607
_cell_angle_alpha    88.7649
_cell_angle_beta     91.2297
_cell_angle_gamma    116.941

_space_group_name_H-M_alt    "P 1"
_space_group_IT_number       1

loop_
  _space_group_symop_operation_xyz
  'x, y, z'

loop_
  _atom_site_type_symbol
  _atom_site_label
  _atom_site_symmetry_multiplicity
  _atom_site_fract_x
  _atom_site_fract_y
  _atom_site_fract_z
  _atom_site_occupancy
  Fe  Fe1       1.0  0.34882  0.34714  0.11485  1.0000
  S   S1        1.0  0.32810  0.32587  0.14872  1.0000
  S   S2        1.0  0.34774  0.38657  0.10215  1.0000
  Fe  Fe2       1.0  0.37233  0.30729  0.10738  1.0000
  S   S3        1.0  0.35431  0.28284  0.14051  1.0000
  S   S4        1.0  0.40087  0.30044  0.08319  1.0000
  Fe  Fe3       1.0  0.31592  0.28649  0.12897  1.0000
  S   S5        1.0  0.27635  0.24633  0.13172  1.0000
  Fe  Fe4       1.0  0.36808  0.32389  0.15793  1.0000
  S   S6        1.0  0.38466  0.33436  0.19592  1.0000
  S   S7        1.0  0.33320  0.30792  0.09432  1.0000
  S   S8        1.0  0.38943  0.34808  0.12567  1.0000
  H   H1        1.0  0.09693  0.03942  0.00911  1.0000
  S   S9        1.0  0.35471  0.20454  0.00842  1.0000
  C   C1        1.0  0.25624  0.25354  0.20971  1.0000
  H   H2        1.0  0.20198  0.14111  0.00246  1.0000
  H   H3        1.0  0.43836  0.39847  0.19687  1.0000
  S   S10       1.0  0.27097  0.16029  0.01404  1.0000
  Fe  Fe5       1.0  0.08496  0.13430  0.12829  1.0000
  S   S11       1.0  0.07959  0.17217  0.11964  1.0000
  S   S12       1.0  0.07295  0.11404  0.16465  1.0000
  Fe  Fe6       1.0  0.10357  0.13251  0.07798  1.0000
  S   S13       1.0  0.09857  0.16969  0.06583  1.0000
  S   S14       1.0  0.12127  0.11180  0.05408  1.0000
  Fe  Fe7       1.0  0.12016  0.18721  0.10048  1.0000
  S   S15       1.0  0.15576  0.23073  0.10305  1.0000
  Fe  Fe8       1.0  0.05859  0.15053  0.08584  1.0000
  S   S16       1.0  0.01676  0.14881  0.07490  1.0000
  S   S17       1.0  0.12674  0.15073  0.11159  1.0000
  S   S18       1.0  0.06196  0.11180  0.09562  1.0000
  C   C2        1.0  0.03386  0.02706  0.05841  1.0000
  H   H4        1.0  0.46022  0.45448  0.15892  1.0000
  C   C3        1.0  0.00590  0.12562  0.02994  1.0000
  C   C4        1.0  0.27877  0.25358  0.19773  1.0000
  C   C5        1.0  0.42596  0.47484  0.04378  1.0000
  H   H5        1.0  0.02765  0.13055  0.02947  1.0000
  C   C6        1.0  0.05151  0.05556  0.05642  1.0000
  C   C7        1.0  0.22536  0.06384  0.01566  1.0000
  C   C8        1.0  0.21570  0.03499  0.01605  1.0000
  C   C9        1.0  0.21306  0.06094  0.05720  1.0000
  C   C10       1.0  0.22351  0.07664  0.03628  1.0000
  C   C11       1.0  0.14862  0.20408  0.18124  1.0000
  H   H6        1.0  0.21211  0.07120  0.07308  1.0000
  H   H7        1.0  0.23023  0.09868  0.03613  1.0000
  C   C12       1.0  0.19706  0.17598  0.01462  1.0000
  C   C13       1.0  0.18109  0.18435  0.02837  1.0000
  C   C14       1.0  0.15819  0.16472  0.04073  1.0000
  C   C15       1.0  0.15027  0.13649  0.03867  1.0000
  C   C16       1.0  0.16598  0.12803  0.02456  1.0000
  C   C17       1.0  0.18954  0.14776  0.01278  1.0000
  H   H8        1.0  0.18705  0.20610  0.03027  1.0000
  H   H9        1.0  0.14715  0.17166  0.05225  1.0000
  H   H10       1.0  0.16028  0.10629  0.02309  1.0000
  H   H11       1.0  0.03385  0.99263  0.18239  1.0000
  C   C18       1.0  0.24389  0.24294  0.12134  1.0000
  C   C19       1.0  0.22262  0.21653  0.11651  1.0000
  C   C20       1.0  0.19587  0.21271  0.11012  1.0000
  C   C21       1.0  0.18997  0.23524  0.10868  1.0000
  C   C22       1.0  0.21159  0.26189  0.11261  1.0000
  C   C23       1.0  0.23842  0.26568  0.11910  1.0000
  H   H12       1.0  0.22678  0.19887  0.11777  1.0000
  H   H13       1.0  0.17987  0.19227  0.10638  1.0000
  H   H14       1.0  0.20730  0.27949  0.11142  1.0000
  H   H15       1.0  0.25463  0.28594  0.12319  1.0000
  C   C24       1.0  0.38631  0.27293  0.06325  1.0000
  C   C25       1.0  0.40451  0.26686  0.05025  1.0000
  C   C26       1.0  0.39425  0.24553  0.03386  1.0000
  C   C27       1.0  0.36569  0.23030  0.02996  1.0000
  C   C28       1.0  0.34717  0.23611  0.04295  1.0000
  C   C29       1.0  0.35753  0.25744  0.05975  1.0000
  H   H16       1.0  0.42669  0.27865  0.05294  1.0000
  H   H17       1.0  0.40860  0.24102  0.02397  1.0000
  H   H18       1.0  0.32502  0.22414  0.04012  1.0000
  H   H19       1.0  0.34334  0.26194  0.06987  1.0000
  C   C30       1.0  0.41745  0.33971  0.20796  1.0000
  C   C31       1.0  0.43882  0.34064  0.19384  1.0000
  H   H20       1.0  0.43529  0.33709  0.17504  1.0000
  C   C32       1.0  0.25818  0.11811  0.11142  1.0000
  C   C33       1.0  0.26467  0.09583  0.11078  1.0000
  C   C34       1.0  0.35666  0.39072  0.03066  1.0000
  C   C35       1.0  0.35324  0.38111  0.05425  1.0000
  C   C36       1.0  0.35232  0.39783  0.07232  1.0000
  C   C37       1.0  0.29270  0.12814  0.06141  1.0000
  H   H21       1.0  0.29558  0.33502  0.05692  1.0000
  H   H22       1.0  0.35105  0.36069  0.05844  1.0000
  P   P1        1.0  0.09262  0.02867  0.19483  1.0000
  C   C38       1.0  0.14676  0.13334  0.19806  1.0000
  C   C39       1.0  0.12674  0.13030  0.18057  1.0000
  C   C40       1.0  0.09887  0.12009  0.18659  1.0000
  C   C41       1.0  0.09136  0.11378  0.21043  1.0000
  H   H23       1.0  0.29926  0.38971  0.03845  1.0000
  H   H24       1.0  0.16824  0.14108  0.19313  1.0000
  H   H25       1.0  0.13284  0.13553  0.16237  1.0000
  H   H26       1.0  0.06993  0.10641  0.21537  1.0000
  H   H27       1.0  0.24987  0.05205  0.11671  1.0000
  C   C42       1.0  0.16519  0.28859  0.06515  1.0000
  C   C43       1.0  0.15233  0.30571  0.06684  1.0000
  H   H28       1.0  0.20797  0.36778  0.05676  1.0000
  C   C44       1.0  0.19612  0.34557  0.05860  1.0000
  C   C45       1.0  0.20897  0.32836  0.05598  1.0000
  C   C46       1.0  0.19352  0.29986  0.06030  1.0000
  P   P2        1.0  0.24571  0.34348  0.05009  1.0000
  C   C47       1.0  0.25574  0.37102  0.02831  1.0000
  C   C48       1.0  0.26220  0.35653  0.07827  1.0000
  C   C49       1.0  0.27108  0.38430  0.08414  1.0000
  C   C50       1.0  0.28299  0.39396  0.10635  1.0000
  C   C51       1.0  0.28555  0.37586  0.12301  1.0000
  C   C52       1.0  0.27606  0.34806  0.11753  1.0000
  C   C53       1.0  0.26432  0.33838  0.09527  1.0000
  H   H29       1.0  0.15321  0.26651  0.06798  1.0000
  H   H30       1.0  0.21463  0.35704  0.01266  1.0000
  C   C54       1.0  0.00153  0.03299  0.03089  1.0000
  H   H31       1.0  0.15349  0.02541  0.01831  1.0000
  H   H32       1.0  0.20315  0.28617  0.06026  1.0000
  H   H33       1.0  0.29534  0.38343  0.14002  1.0000
  H   H34       1.0  0.27821  0.33415  0.13045  1.0000
  H   H35       1.0  0.25692  0.31676  0.09127  1.0000
  H   H36       1.0  0.39987  0.46579  0.11657  1.0000
  Fe  Fe9       1.0  0.31077  0.18472  0.99456  1.0000
  C   C55       1.0  0.33426  0.19897  0.16558  1.0000
  H   H37       1.0  0.21871  0.29766  0.01686  1.0000
  H   H38       1.0  0.31953  0.37074  0.98643  1.0000
  H   H39       1.0  0.30741  0.29883  0.04331  1.0000
  C   C56       1.0  0.19655  0.22541  0.19537  1.0000
  H   H40       1.0  0.23073  0.26123  0.00392  1.0000
  C   C57       1.0  0.37106  0.41657  0.15931  1.0000
  C   C58       1.0  0.15437  0.22679  0.16633  1.0000
  C   C59       1.0  0.18107  0.24888  0.16599  1.0000
  C   C60       1.0  0.20226  0.24809  0.18017  1.0000
  C   C61       1.0  0.12641  0.04352  0.07378  1.0000
  C   C62       1.0  0.98747  0.05079  0.08742  1.0000
  C   C63       1.0  0.22652  0.19331  0.20073  1.0000
  C   C64       1.0  0.26978  0.27776  0.02278  1.0000
  H   H41       1.0  0.19794  0.99713  0.03699  1.0000
  C   C65       1.0  0.22991  0.14783  0.18117  1.0000
  C   C66       1.0  0.23003  0.16888  0.16646  1.0000
  C   C67       1.0  0.22822  0.19143  0.17618  1.0000
  C   C68       1.0  0.07812  0.01786  0.08548  1.0000
  C   C69       1.0  0.02193  0.03936  0.13640  1.0000
  H   H42       1.0  0.13830  0.22701  0.15463  1.0000
  H   H43       1.0  0.18547  0.26616  0.15404  1.0000
  H   H44       1.0  0.22306  0.26480  0.17870  1.0000
  H   H45       1.0  0.38076  0.33331  0.99027  1.0000
  H   H46       1.0  0.12801  0.18672  0.18126  1.0000
  C   C70       1.0  0.28813  0.29874  0.03749  1.0000
  H   H47       1.0  0.23112  0.13024  0.17363  1.0000
  H   H48       1.0  0.23136  0.16781  0.14749  1.0000
  H   H49       1.0  0.22821  0.20754  0.16457  1.0000
  C   C71       1.0  0.23270  0.11386  0.12088  1.0000
  C   C72       1.0  0.21341  0.08743  0.12825  1.0000
  C   C73       1.0  0.21968  0.06524  0.12683  1.0000
  C   C74       1.0  0.24535  0.06947  0.11822  1.0000
  C   C75       1.0  0.26657  0.17109  0.08641  1.0000
  C   C76       1.0  0.23926  0.15760  0.07766  1.0000
  C   C77       1.0  0.22664  0.17289  0.06776  1.0000
  C   C78       1.0  0.24158  0.20156  0.06530  1.0000
  C   C79       1.0  0.26925  0.21501  0.07288  1.0000
  C   C80       1.0  0.28179  0.19984  0.08329  1.0000
  H   H50       1.0  0.29935  0.11092  0.02965  1.0000
  H   H51       1.0  0.27093  0.11351  0.06201  1.0000
  H   H52       1.0  0.22746  0.13080  0.12206  1.0000
  H   H53       1.0  0.19335  0.08389  0.13463  1.0000
  H   H54       1.0  0.20447  0.04459  0.13193  1.0000
  H   H55       1.0  0.22756  0.13533  0.07835  1.0000
  H   H56       1.0  0.20520  0.16242  0.06201  1.0000
  H   H57       1.0  0.23167  0.21333  0.05756  1.0000
  H   H58       1.0  0.28078  0.23726  0.07118  1.0000
  C   C81       1.0  0.11153  0.07313  0.13256  1.0000
  C   C82       1.0  0.13918  0.09251  0.13580  1.0000
  C   C83       1.0  0.15299  0.09264  0.15698  1.0000
  C   C84       1.0  0.13925  0.07336  0.17492  1.0000
  C   C85       1.0  0.11128  0.05393  0.17196  1.0000
  C   C86       1.0  0.09772  0.05383  0.15045  1.0000
  C   C87       1.0  0.25933  0.27788  0.22041  1.0000
  C   C88       1.0  0.11147  0.11722  0.22804  1.0000
  C   C89       1.0  0.02691  0.00931  0.10757  1.0000
  H   H59       1.0  0.33816  0.26985  0.00783  1.0000
  H   H60       1.0  0.15068  0.07414  0.19097  1.0000
  C   C90       1.0  0.05793  0.00248  0.01175  1.0000
  C   C91       1.0  0.30881  0.12659  0.04305  1.0000
  C   C92       1.0  0.34400  0.27618  0.98965  1.0000
  H   H61       1.0  0.42424  0.43764  0.05834  1.0000
  H   H62       1.0  0.32152  0.27751  0.18767  1.0000
  C   C93       1.0  0.11748  0.00358  0.22462  1.0000
  C   C94       1.0  0.24499  0.27770  0.01519  1.0000
  H   H63       1.0  0.15798  0.34757  0.06564  1.0000
  H   H64       1.0  0.10086  0.07321  0.11614  1.0000
  H   H65       1.0  0.14971  0.10765  0.12201  1.0000
  H   H66       1.0  0.16494  0.18580  0.20721  1.0000
  H   H67       1.0  0.21681  0.02480  0.00019  1.0000
  H   H68       1.0  0.07640  0.03877  0.14750  1.0000
  H   H69       1.0  0.34133  0.18589  0.08836  1.0000
  H   H70       1.0  0.07012  0.06527  0.06721  1.0000
  S   S19       1.0  0.36430  0.42851  0.99509  1.0000
  H   H71       1.0  0.12859  0.07044  0.22808  1.0000
  C   C95       1.0  0.23607  0.37269  0.01254  1.0000
  H   H72       1.0  0.02100  0.06194  0.19577  1.0000
  P   P3        1.0  0.04129  0.00585  0.07993  1.0000
  C   C96       1.0  0.25576  0.31850  0.03858  1.0000
  C   C97       1.0  0.46085  0.40894  0.19604  1.0000
  C   C98       1.0  0.09815  0.03455  0.06901  1.0000
  C   C99       1.0  0.41131  0.41481  0.14313  1.0000
  C   C100      1.0  0.28124  0.31914  0.04529  1.0000
  H   H73       1.0  0.26880  0.39856  0.07169  1.0000
  H   H74       1.0  0.29048  0.41553  0.11058  1.0000
  C   C101      1.0  0.35508  0.42425  0.06663  1.0000
  S   S20       1.0  0.23962  0.08288  0.98910  1.0000
  H   H75       1.0  0.35683  0.37748  0.01674  1.0000
  H   H76       1.0  0.35441  0.43728  0.08054  1.0000
  H   H77       1.0  0.32886  0.14958  0.12694  1.0000
  P   P4        1.0  0.28267  0.15191  0.10072  1.0000
  C   C102      1.0  0.35984  0.41730  0.02499  1.0000
  C   C103      1.0  0.28362  0.39098  0.02686  1.0000
  H   H78       1.0  0.30322  0.21064  0.08924  1.0000
  C   C104      1.0  0.35894  0.43402  0.04307  1.0000
  C   C105      1.0  0.20392  0.03218  0.05773  1.0000
  H   H79       1.0  0.01382  0.07435  0.01769  1.0000
  C   C106      1.0  0.33673  0.14588  0.04150  1.0000
  C   C107      1.0  0.30444  0.14880  0.07850  1.0000
  H   H80       1.0  0.34900  0.14535  0.02680  1.0000
  H   H81       1.0  0.28441  0.09858  0.10415  1.0000
  C   C108      1.0  0.47607  0.47189  0.12430  1.0000
  C   C109      1.0  0.43941  0.47030  0.08435  1.0000
  C   C110      1.0  0.08686  0.00902  0.10612  1.0000
  C   C111      1.0  0.99531  0.13192  0.05005  1.0000
  H   H82       1.0  0.40404  0.39856  0.08726  1.0000
  H   H83       1.0  0.35693  0.17542  0.16134  1.0000
  C   C112      1.0  0.06699  0.03637  0.20869  1.0000
  H   H84       1.0  0.42874  0.41308  0.02053  1.0000
  C   C113      1.0  0.34845  0.16684  0.05819  1.0000
  C   C114      1.0  0.33227  0.16863  0.07640  1.0000
  C   C115      1.0  0.23815  0.29821  0.02276  1.0000
  C   C116      1.0  0.30711  0.30158  0.20774  1.0000
  C   C117      1.0  0.03429  0.03584  0.11613  1.0000
  C   C118      1.0  0.11578  0.02797  0.21826  1.0000
  H   H85       1.0  0.00694  0.47309  0.04058  1.0000
  H   H86       1.0  0.05793  0.05487  0.17751  1.0000
  H   H87       1.0  0.42494  0.40515  0.14281  1.0000
  Fe  Fe10      1.0  0.25440  0.18253  0.98942  1.0000
  H   H88       1.0  0.38095  0.27057  0.99225  1.0000
  C   C119      1.0  0.30263  0.17011  0.12627  1.0000
  H   H89       1.0  0.36974  0.18253  0.05628  1.0000
  C   C120      1.0  0.41566  0.43706  0.12780  1.0000
  C   C121      1.0  0.46510  0.34689  0.20397  1.0000
  C   C122      1.0  0.32416  0.16474  0.13522  1.0000
  H   H90       1.0  0.27958  0.19346  0.13157  1.0000
  H   H91       1.0  0.99724  0.11039  0.99421  1.0000
  C   C123      1.0  0.29644  0.18931  0.13773  1.0000
  H   H92       1.0  0.38561  0.38707  0.17027  1.0000
  Fe  Fe11      1.0  0.37463  0.47256  0.98370  1.0000
  C   C124      1.0  0.34001  0.17926  0.15475  1.0000
  C   C125      1.0  0.11513  0.01751  0.11056  1.0000
  C   C126      1.0  0.31238  0.20387  0.15713  1.0000
  C   C127      1.0  0.42954  0.45887  0.06197  1.0000
  C   C128      1.0  0.03143  0.05215  0.20594  1.0000
  H   H93       1.0  0.30790  0.21924  0.16534  1.0000
  H   H94       1.0  0.34680  0.21055  0.18046  1.0000
  C   C129      1.0  0.42410  0.39862  0.08685  1.0000
  H   H95       1.0  0.27702  0.23533  0.18904  1.0000
  S   S21       1.0  0.22732  0.20116  0.00128  1.0000
  C   C130      1.0  0.42597  0.37591  0.07752  1.0000
  S   S22       1.0  0.19210  0.01376  0.08496  1.0000
  H   H96       1.0  0.36118  0.45446  0.03891  1.0000
  H   H97       1.0  0.13043  0.29681  0.07095  1.0000
  H   H98       1.0  0.00761  0.05450  0.08132  1.0000
  C   C131      1.0  0.38914  0.40464  0.15884  1.0000
  H   H99       1.0  0.15683  0.04149  0.09795  1.0000
  C   C132      1.0  0.00871  0.01602  0.04543  1.0000
  H   H100      1.0  0.09224  0.04091  0.05252  1.0000
  C   C133      1.0  0.01962  0.06110  0.02862  1.0000
  H   H101      1.0  0.17417  0.10822  0.15981  1.0000
  H   H102      1.0  0.02744  0.06004  0.14255  1.0000
  P   P5        1.0  0.44480  0.45010  0.10797  1.0000
  H   H103      1.0  0.40053  0.36248  0.02541  1.0000
  H   H104      1.0  0.14073  0.00196  0.05742  1.0000
  C   C134      1.0  0.30413  0.27752  0.19687  1.0000
  C   C135      1.0  0.44779  0.42097  0.09598  1.0000
  C   C136      1.0  0.04472  0.07233  0.04123  1.0000
  Fe  Fe12      1.0  0.25992  0.13002  0.98438  1.0000
  C   C137      1.0  0.47339  0.42010  0.09586  1.0000
  C   C138      1.0  0.16961  0.20346  0.19573  1.0000
  C   C139      1.0  0.22777  0.14930  0.20563  1.0000
  C   C140      1.0  0.13771  0.00407  0.01945  1.0000
  C   C141      1.0  0.40480  0.37174  0.00784  1.0000
  H   H105      1.0  0.05856  0.09431  0.03996  1.0000
  H   H106      1.0  0.40744  0.35840  0.07103  1.0000
  H   H107      1.0  0.04930  0.05395  0.10697  1.0000
  H   H108      1.0  0.27450  0.26128  0.01747  1.0000
  C   C142      1.0  0.45138  0.37502  0.07770  1.0000
  C   C143      1.0  0.00218  0.01634  0.14842  1.0000
  C   C144      1.0  0.39745  0.44902  0.12845  1.0000
  C   C145      1.0  0.20498  0.01923  0.03692  1.0000
  H   H109      1.0  0.14179  0.05703  0.06130  1.0000
  H   H110      1.0  0.31285  0.42870  0.00995  1.0000
  C   C146      1.0  0.13491  0.03494  0.09451  1.0000
  C   C147      1.0  0.07632  0.02767  0.00154  1.0000
  H   H111      1.0  0.36081  0.44755  0.14415  1.0000
  C   C148      1.0  0.47511  0.39713  0.08680  1.0000
  C   C149      1.0  0.37525  0.43878  0.14418  1.0000
  C   C150      1.0  0.42081  0.40024  0.00508  1.0000
  H   H112      1.0  0.35346  0.40818  0.17104  1.0000
  C   C151      1.0  0.16785  0.33424  0.06379  1.0000
  C   C152      1.0  0.05261  0.04818  0.19558  1.0000
  H   H113      1.0  0.32684  0.32006  0.20701  1.0000
  P   P6        1.0  0.22375  0.22259  0.21256  1.0000
  C   C153      1.0  0.29142  0.41303  0.01071  1.0000
  H   H114      1.0  0.41811  0.46583  0.02661  1.0000
  C   C154      1.0  0.28469  0.30181  0.21940  1.0000
  H   H115      1.0  0.12180  0.01063  0.12648  1.0000
  H   H116      1.0  0.06460  0.99466  0.02702  1.0000
  H   H117      1.0  0.48161  0.34808  0.19280  1.0000
  H   H118      1.0  0.45244  0.35686  0.07121  1.0000
  H   H119      1.0  0.99605  0.09311  0.08300  1.0000
  C   C155      1.0  0.47025  0.35184  0.22835  1.0000
  C   C156      1.0  0.13930  0.12709  0.22186  1.0000
  C   C157      1.0  0.22618  0.17198  0.21541  1.0000
  H   H120      1.0  0.22669  0.13259  0.21707  1.0000
  H   H121      1.0  0.27772  0.43236  0.98328  1.0000
  C   C158      1.0  0.27160  0.41505  0.99561  1.0000
  H   H122      1.0  0.99214  0.01903  0.16385  1.0000
  C   C159      1.0  0.24397  0.39479  0.99641  1.0000
  H   H123      1.0  0.11326  0.99357  0.17204  1.0000
  C   C160      1.0  0.07529  0.99605  0.17965  1.0000
  C   C161      1.0  0.99780  0.48462  0.04917  1.0000
  C   C162      1.0  0.47656  0.42272  0.21586  1.0000
  C   C163      1.0  0.02459  0.04466  0.22957  1.0000
  H   H124      1.0  0.28702  0.32053  0.22772  1.0000
  H   H125      1.0  0.22865  0.39633  0.98460  1.0000
  C   C164      1.0  0.47408  0.40759  0.17550  1.0000
  H   H126      1.0  0.07183  0.99549  0.11877  1.0000
  C   C165      1.0  0.47776  0.46913  0.14898  1.0000
  H   H127      1.0  0.99384  0.99464  0.04705  1.0000
  C   C166      1.0  0.98857  0.11414  0.00996  1.0000
  C   C167      1.0  0.39359  0.35529  0.98799  1.0000
  H   H128      1.0  0.46186  0.39588  0.16055  1.0000
  H   H129      1.0  0.24214  0.27823  0.22965  1.0000
  H   H130      1.0  0.46582  0.42325  0.23162  1.0000
  C   C168      1.0  0.42617  0.41224  0.98243  1.0000
  H   H131      1.0  0.27016  0.36046  0.98269  1.0000
  C   C169      1.0  0.13052  0.05173  0.23186  1.0000
  P   P7        1.0  0.28167  0.11142  0.36553  1.0000
  Fe  Fe13      1.0  0.16841  0.08480  0.31822  1.0000
  S   S23       1.0  0.16442  0.10761  0.34944  1.0000
  S   S24       1.0  0.18147  0.05093  0.32253  1.0000
  Fe  Fe14      1.0  0.15941  0.12267  0.28232  1.0000
  S   S25       1.0  0.15458  0.14869  0.31059  1.0000
  C   C170      1.0  0.38656  0.39623  0.47584  1.0000
  Fe  Fe15      1.0  0.19077  0.14643  0.32944  1.0000
  S   S26       1.0  0.22706  0.18515  0.34416  1.0000
  Fe  Fe16      1.0  0.12864  0.10788  0.32854  1.0000
  S   S27       1.0  0.08952  0.09760  0.34864  1.0000
  S   S28       1.0  0.19761  0.12365  0.29967  1.0000
  S   S29       1.0  0.13054  0.08190  0.29887  1.0000
  C   C171      1.0  0.47873  0.40741  0.29458  1.0000
  H   H132      1.0  0.32561  0.17734  0.32988  1.0000
  H   H133      1.0  0.03652  0.07682  0.27412  1.0000
  H   H134      1.0  0.24484  0.06350  0.33795  1.0000
  C   C172      1.0  0.37207  0.24910  0.35670  1.0000
  H   H135      1.0  0.30413  0.20496  0.34585  1.0000
  C   C173      1.0  0.36731  0.20737  0.33816  1.0000
  H   H136      1.0  0.19181  0.08541  0.42802  1.0000
  H   H137      1.0  0.20311  0.21005  0.31159  1.0000
  H   H138      1.0  0.98898  0.04407  0.33718  1.0000
  Fe  Fe17      1.0  0.39351  0.26358  0.46232  1.0000
  S   S30       1.0  0.36943  0.25255  0.42807  1.0000
  C   C174      1.0  0.24736  0.25597  0.47450  1.0000
  H   H139      1.0  0.25667  0.22053  0.25328  1.0000
  S   S31       1.0  0.33083  0.28019  0.45007  1.0000
  Fe  Fe18      1.0  0.33108  0.23887  0.44974  1.0000
  S   S32       1.0  0.29266  0.19855  0.44192  1.0000
  Fe  Fe19      1.0  0.37068  0.29427  0.42990  1.0000
  S   S33       1.0  0.37706  0.31601  0.39444  1.0000
  C   C175      1.0  0.44427  0.21833  0.37232  1.0000
  S   S34       1.0  0.39763  0.30670  0.46251  1.0000
  C   C176      1.0  0.46552  0.37040  0.36880  1.0000
  C   C177      1.0  0.44539  0.35178  0.35347  1.0000
  C   C178      1.0  0.41836  0.33501  0.36155  1.0000
  C   C179      1.0  0.41155  0.33604  0.38518  1.0000
  C   C180      1.0  0.43179  0.35432  0.40063  1.0000
  C   C181      1.0  0.45855  0.37183  0.39233  1.0000
  H   H140      1.0  0.45046  0.35068  0.33528  1.0000
  H   H141      1.0  0.40271  0.32118  0.34945  1.0000
  H   H142      1.0  0.42658  0.35546  0.41880  1.0000
  C   C182      1.0  0.16452  0.28534  0.39330  1.0000
  C   C183      1.0  0.44500  0.23836  0.46235  1.0000
  C   C184      1.0  0.42758  0.21544  0.44897  1.0000
  C   C185      1.0  0.43722  0.19678  0.44137  1.0000
  C   C186      1.0  0.46444  0.20113  0.44675  1.0000
  C   C187      1.0  0.31564  0.15901  0.39035  1.0000
  H   H143      1.0  0.12280  0.02373  0.30818  1.0000
  H   H144      1.0  0.40663  0.21192  0.44473  1.0000
  H   H145      1.0  0.42357  0.17894  0.43123  1.0000
  C   C188      1.0  0.20705  0.21272  0.29278  1.0000
  H   H146      1.0  0.04254  0.02806  0.39089  1.0000
  C   C189      1.0  0.18040  0.31205  0.38438  1.0000
  C   C190      1.0  0.05904  0.08235  0.33127  1.0000
  C   C191      1.0  0.06015  0.08521  0.30665  1.0000
  C   C192      1.0  0.03554  0.07381  0.29309  1.0000
  H   H147      1.0  0.07989  0.09680  0.29807  1.0000
  C   C193      1.0  0.24491  0.18775  0.37141  1.0000
  C   C194      1.0  0.26977  0.21168  0.37570  1.0000
  C   C195      1.0  0.28485  0.21494  0.39696  1.0000
  C   C196      1.0  0.27483  0.19444  0.41452  1.0000
  C   C197      1.0  0.24991  0.17043  0.41035  1.0000
  C   C198      1.0  0.23515  0.16691  0.38877  1.0000
  H   H148      1.0  0.27771  0.22769  0.36231  1.0000
  H   H149      1.0  0.30394  0.23357  0.39996  1.0000
  H   H150      1.0  0.24190  0.15460  0.42395  1.0000
  H   H151      1.0  0.21604  0.14834  0.38574  1.0000
  C   C199      1.0  0.42817  0.27146  0.39014  1.0000
  H   H152      1.0  0.11200  0.05781  0.34965  1.0000
  C   C200      1.0  0.48187  0.22415  0.45994  1.0000
  C   C201      1.0  0.15500  0.01675  0.32556  1.0000
  C   C202      1.0  0.03330  0.06759  0.34223  1.0000
  H   H153      1.0  0.07104  0.02049  0.24340  1.0000
  H   H154      1.0  0.32059  0.30379  0.37976  1.0000
  H   H155      1.0  0.18213  0.00327  0.34388  1.0000
  H   H156      1.0  0.43273  0.29033  0.42417  1.0000
  H   H157      1.0  0.31488  0.29280  0.33712  1.0000
  C   C203      1.0  0.44221  0.28787  0.27123  1.0000
  C   C204      1.0  0.23706  0.21839  0.25978  1.0000
  H   H158      1.0  0.33391  0.25108  0.36322  1.0000
  C   C205      1.0  0.44153  0.29216  0.40681  1.0000
  H   H159      1.0  0.24012  0.01641  0.33536  1.0000
  H   H160      1.0  0.40389  0.28381  0.31930  1.0000
  C   C206      1.0  0.00981  0.05874  0.30399  1.0000
  C   C207      1.0  0.36575  0.17860  0.39318  1.0000
  C   C208      1.0  0.45484  0.27184  0.27950  1.0000
  C   C209      1.0  0.27695  0.12408  0.33694  1.0000
  H   H161      1.0  0.27877  0.11344  0.41713  1.0000
  C   C210      1.0  0.42859  0.20149  0.33276  1.0000
  H   H162      1.0  0.98872  0.99615  0.29349  1.0000
  C   C211      1.0  0.44863  0.35017  0.24256  1.0000
  H   H163      1.0  0.38461  0.26964  0.36352  1.0000
  H   H164      1.0  0.24769  0.21492  0.29631  1.0000
  H   H165      1.0  0.26011  0.15003  0.35086  1.0000
  C   C212      1.0  0.27416  0.14764  0.29292  1.0000
  C   C213      1.0  0.22173  0.26718  0.44398  1.0000
  C   C214      1.0  0.25549  0.24259  0.45781  1.0000
  C   C215      1.0  0.46638  0.31520  0.40113  1.0000
  H   H166      1.0  0.33940  0.12132  0.35902  1.0000
  H   H167      1.0  0.27117  0.00267  0.35914  1.0000
  C   C216      1.0  0.29680  0.28519  0.34831  1.0000
  H   H168      1.0  0.29515  0.10251  0.31746  1.0000
  H   H169      1.0  0.22070  0.34174  0.37232  1.0000
  C   C217      1.0  0.10906  0.00242  0.38083  1.0000
  C   C218      1.0  0.36504  0.15761  0.37886  1.0000
  H   H170      1.0  0.10545  0.11235  0.24633  1.0000
  C   C219      1.0  0.48094  0.42691  0.31125  1.0000
  H   H171      1.0  0.01496  0.04849  0.40834  1.0000
  H   H172      1.0  0.45209  0.35358  0.26135  1.0000
  C   C220      1.0  0.43003  0.26332  0.31654  1.0000
  H   H173      1.0  0.16275  0.02729  0.27130  1.0000
  C   C221      1.0  0.23044  0.26821  0.46760  1.0000
  C   C222      1.0  0.10322  0.03801  0.35864  1.0000
  H   H174      1.0  0.99727  0.99796  0.33629  1.0000
  C   C223      1.0  0.43252  0.22073  0.35049  1.0000
  H   H175      1.0  0.20517  0.19693  0.41560  1.0000
  H   H176      1.0  0.17548  0.21595  0.24125  1.0000
  C   C224      1.0  0.26559  0.15551  0.31330  1.0000
  H   H177      1.0  0.38429  0.15733  0.37423  1.0000
  H   H178      1.0  0.14286  0.27841  0.39741  1.0000
  C   C225      1.0  0.06280  0.99552  0.36925  1.0000
  C   C226      1.0  0.19150  0.21571  0.25283  1.0000
  H   H179      1.0  0.43439  0.16641  0.32266  1.0000
  C   C227      1.0  0.43694  0.18080  0.33658  1.0000
  H   H180      1.0  0.34636  0.39495  0.47075  1.0000
  H   H181      1.0  0.14303  0.18636  0.34668  1.0000
  C   C228      1.0  0.18675  0.21286  0.27716  1.0000
  C   C229      1.0  0.07453  0.02155  0.35807  1.0000
  S   S35       1.0  0.47585  0.17725  0.43703  1.0000
  C   C230      1.0  0.16121  0.99735  0.33749  1.0000
  C   C231      1.0  0.14970  0.02744  0.25650  1.0000
  C   C232      1.0  0.26682  0.14370  0.33523  1.0000
  C   C233      1.0  0.44903  0.17894  0.35819  1.0000
  C   C234      1.0  0.47814  0.31727  0.37898  1.0000
  H   H182      1.0  0.22208  0.09320  0.35739  1.0000
  C   C235      1.0  0.45259  0.19763  0.37605  1.0000
  C   C236      1.0  0.30003  0.29134  0.37238  1.0000
  C   C237      1.0  0.13435  0.00339  0.24369  1.0000
  H   H183      1.0  0.14282  0.04081  0.36949  1.0000
  H   H184      1.0  0.30674  0.03638  0.38603  1.0000
  C   C238      1.0  0.25814  0.10701  0.40975  1.0000
  C   C239      1.0  0.23009  0.25399  0.42703  1.0000
  C   C240      1.0  0.24698  0.24171  0.43422  1.0000
  P   P8        1.0  0.21991  0.25309  0.39621  1.0000
  C   C241      1.0  0.20457  0.27627  0.39146  1.0000
  C   C242      1.0  0.25015  0.26481  0.37767  1.0000
  C   C243      1.0  0.27683  0.28144  0.38698  1.0000
  H   H185      1.0  0.03240  0.06556  0.36127  1.0000
  C   C244      1.0  0.27033  0.26901  0.33882  1.0000
  C   C245      1.0  0.24711  0.25877  0.35344  1.0000
  C   C246      1.0  0.22048  0.30324  0.38274  1.0000
  H   H186      1.0  0.47394  0.29868  0.34515  1.0000
  H   H187      1.0  0.44741  0.23252  0.38649  1.0000
  C   C247      1.0  0.20837  0.32100  0.37917  1.0000
  C   C248      1.0  0.46455  0.29681  0.36218  1.0000
  C   C249      1.0  0.19448  0.21873  0.38775  1.0000
  C   C250      1.0  0.19173  0.19525  0.40069  1.0000
  C   C251      1.0  0.17158  0.16893  0.39420  1.0000
  C   C252      1.0  0.15396  0.16579  0.37484  1.0000
  C   C253      1.0  0.15659  0.18895  0.36181  1.0000
  C   C254      1.0  0.17679  0.21529  0.36815  1.0000
  H   H188      1.0  0.16983  0.15088  0.40401  1.0000
  C   C255      1.0  0.17656  0.26753  0.39691  1.0000
  H   H189      1.0  0.03416  0.02818  0.26143  1.0000
  H   H190      1.0  0.46754  0.38557  0.29887  1.0000
  H   H191      1.0  0.25366  0.23154  0.42148  1.0000
  H   H192      1.0  0.27992  0.28690  0.40547  1.0000
  C   C256      1.0  0.44871  0.25953  0.30199  1.0000
  H   H193      1.0  0.22693  0.24586  0.34579  1.0000
  H   H194      1.0  0.24221  0.31065  0.37870  1.0000
  C   C257      1.0  0.21659  0.21814  0.24389  1.0000
  H   H195      1.0  0.16708  0.21029  0.28388  1.0000
  H   H196      1.0  0.46211  0.19623  0.39275  1.0000
  C   C258      1.0  0.00457  0.02782  0.40129  1.0000
  H   H197      1.0  0.00849  0.04818  0.23774  1.0000
  H   H198      1.0  0.47401  0.38623  0.40423  1.0000
  H   H199      1.0  0.13838  0.14537  0.36981  1.0000
  H   H200      1.0  0.17857  0.23294  0.35772  1.0000
  S   S36       1.0  0.99019  0.47740  0.30791  1.0000
  C   C259      1.0  0.00872  0.05548  0.32860  1.0000
  H   H201      1.0  0.44726  0.29760  0.25388  1.0000
  H   H202      1.0  0.15973  0.07029  0.26042  1.0000
  H   H203      1.0  0.40613  0.34362  0.24349  1.0000
  C   C260      1.0  0.12051  0.02852  0.37004  1.0000
  H   H204      1.0  0.40932  0.25340  0.39492  1.0000
  C   C261      1.0  0.29648  0.06942  0.37676  1.0000
  C   C262      1.0  0.27962  0.07755  0.36276  1.0000
  C   C263      1.0  0.34319  0.23878  0.35627  1.0000
  C   C264      1.0  0.32644  0.21290  0.34659  1.0000
  C   C265      1.0  0.33852  0.19727  0.33753  1.0000
  C   C266      1.0  0.25618  0.03128  0.34666  1.0000
  H   H205      1.0  0.47660  0.33142  0.41389  1.0000
  C   C267      1.0  0.38439  0.23332  0.34782  1.0000
  C   C268      1.0  0.42370  0.29192  0.28561  1.0000
  H   H206      1.0  0.41427  0.30474  0.27931  1.0000
  H   H207      1.0  0.29135  0.12234  0.27871  1.0000
  H   H208      1.0  0.38544  0.19445  0.39971  1.0000
  C   C269      1.0  0.43913  0.27409  0.36743  1.0000
  C   C270      1.0  0.28463  0.12840  0.29452  1.0000
  H   H209      1.0  0.26858  0.23300  0.46308  1.0000
  H   H210      1.0  0.45921  0.24771  0.30809  1.0000
  H   H211      1.0  0.25757  0.17052  0.31205  1.0000
  C   C271      1.0  0.41780  0.27991  0.30824  1.0000
  H   H212      1.0  0.34140  0.19576  0.40958  1.0000
  P   P9        1.0  0.42169  0.24759  0.34572  1.0000
  C   C272      1.0  0.23219  0.21546  0.28412  1.0000
  C   C273      1.0  0.28641  0.11693  0.31649  1.0000
  H   H213      1.0  0.38747  0.38993  0.45795  1.0000
  H   H214      1.0  0.26781  0.26392  0.32023  1.0000
  H   H215      1.0  0.37602  0.19495  0.33072  1.0000
  H   H216      1.0  0.41953  0.20275  0.31581  1.0000
  C   C274      1.0  0.34104  0.17936  0.39877  1.0000
  H   H217      1.0  0.27255  0.15641  0.27590  1.0000
  H   H218      1.0  0.29684  0.16043  0.39446  1.0000
  H   H219      1.0  0.12251  0.99440  0.38853  1.0000
  C   C275      1.0  0.27357  0.02354  0.36013  1.0000
  H   H220      1.0  0.18327  0.08071  0.38479  1.0000
  C   C276      1.0  0.20902  0.09087  0.41612  1.0000
  C   C277      1.0  0.33958  0.13714  0.37044  1.0000
  S   S37       1.0  0.16566  0.13243  0.24309  1.0000
  C   C278      1.0  0.31461  0.13728  0.37670  1.0000
  H   H221      1.0  0.17104  0.32582  0.38154  1.0000
  C   C279      1.0  0.23598  0.10008  0.42514  1.0000
  H   H222      1.0  0.16403  0.24694  0.40398  1.0000
  C   C280      1.0  0.25905  0.05811  0.34806  1.0000
  H   H223      1.0  0.31144  0.08354  0.38917  1.0000
  H   H224      1.0  0.48172  0.28160  0.42998  1.0000
  C   C281      1.0  0.47215  0.24256  0.46776  1.0000
  C   C282      1.0  0.22635  0.09569  0.37624  1.0000
  C   C283      1.0  0.20421  0.08845  0.39173  1.0000
  C   C284      1.0  0.12781  0.00890  0.31741  1.0000
  C   C285      1.0  0.29365  0.04257  0.37523  1.0000
  C   C286      1.0  0.25355  0.10534  0.38516  1.0000
  H   H225      1.0  0.06155  0.02909  0.34869  1.0000
  H   H226      1.0  0.00333  0.20499  0.36399  1.0000
  H   H227      1.0  0.20877  0.27692  0.43911  1.0000
  H   H228      1.0  0.22375  0.17218  0.23430  1.0000
  C   C287      1.0  0.03906  0.03335  0.24292  1.0000
  C   C288      1.0  0.02020  0.01615  0.39124  1.0000
  H   H229      1.0  0.23975  0.10189  0.44406  1.0000
  H   H230      1.0  0.45587  0.16316  0.36113  1.0000
  C   C289      1.0  0.14788  0.05162  0.25048  1.0000
  H   H231      1.0  0.47139  0.42009  0.32840  1.0000
  C   C290      1.0  0.42251  0.34436  0.23238  1.0000
  S   S38       1.0  0.43391  0.26224  0.47282  1.0000
  C   C291      1.0  0.06013  0.02919  0.23257  1.0000
  H   H232      1.0  0.46992  0.26945  0.26870  1.0000
  H   H233      1.0  0.99318  0.24450  0.35510  1.0000
  H   H234      1.0  0.22417  0.27860  0.48059  1.0000
  S   S39       1.0  0.35918  0.30705  0.51980  1.0000
  Fe  Fe20      1.0  0.36407  0.42779  0.64811  1.0000
  S   S40       1.0  0.33204  0.42223  0.67485  1.0000
  S   S41       1.0  0.40880  0.45155  0.65936  1.0000
  Fe  Fe21      1.0  0.32208  0.39827  0.60900  1.0000
  S   S42       1.0  0.28602  0.39151  0.63240  1.0000
  S   S43       1.0  0.31612  0.38470  0.57033  1.0000
  Fe  Fe22      1.0  0.31156  0.43481  0.64548  1.0000
  S   S44       1.0  0.30028  0.46944  0.65351  1.0000
  Fe  Fe23      1.0  0.30922  0.37969  0.66029  1.0000
  S   S45       1.0  0.28464  0.34243  0.68311  1.0000
  S   S46       1.0  0.34545  0.44308  0.61920  1.0000
  S   S47       1.0  0.34332  0.38362  0.63626  1.0000
  C   C292      1.0  0.37503  0.25653  0.55445  1.0000
  C   C293      1.0  0.02915  0.46887  0.62038  1.0000
  C   C294      1.0  0.27737  0.46797  0.67620  1.0000
  H   H235      1.0  0.47467  0.33486  0.52094  1.0000
  H   H236      1.0  0.08389  0.45691  0.72641  1.0000
  C   C295      1.0  0.40698  0.40842  0.51529  1.0000
  C   C296      1.0  0.23401  0.44418  0.69762  1.0000
  C   C297      1.0  0.25333  0.44372  0.68145  1.0000
  H   H237      1.0  0.01940  0.45452  0.60608  1.0000
  H   H238      1.0  0.42058  0.44915  0.56538  1.0000
  C   C298      1.0  0.46688  0.25184  0.59297  1.0000
  H   H239      1.0  0.24917  0.42482  0.67249  1.0000
  C   C299      1.0  0.30150  0.32845  0.70198  1.0000
  H   H240      1.0  0.45916  0.17535  0.49838  1.0000
  H   H241      1.0  0.46483  0.08149  0.69417  1.0000
  C   C300      1.0  0.44829  0.38965  0.53055  1.0000
  H   H242      1.0  0.47489  0.21648  0.58872  1.0000
  C   C301      1.0  0.01923  0.46160  0.64339  1.0000
  C   C302      1.0  0.47346  0.23078  0.60092  1.0000
  C   C303      1.0  0.48353  0.41430  0.65262  1.0000
  C   C304      1.0  0.07719  0.47289  0.72716  1.0000
  C   C305      1.0  0.03192  0.47995  0.66191  1.0000
  C   C306      1.0  0.34659  0.32839  0.53343  1.0000
  C   C307      1.0  0.32765  0.33590  0.52221  1.0000
  C   C308      1.0  0.31806  0.35255  0.53400  1.0000
  C   C309      1.0  0.32756  0.36227  0.55696  1.0000
  C   C310      1.0  0.34652  0.35474  0.56818  1.0000
  C   C311      1.0  0.35585  0.33782  0.55652  1.0000
  H   H243      1.0  0.46888  0.28115  0.64626  1.0000
  H   H244      1.0  0.30339  0.35819  0.52515  1.0000
  H   H245      1.0  0.35414  0.36217  0.58574  1.0000
  H   H246      1.0  0.37044  0.33209  0.56540  1.0000
  C   C312      1.0  0.39862  0.27728  0.71894  1.0000
  C   C313      1.0  0.42399  0.41092  0.56611  1.0000
  C   C314      1.0  0.48191  0.20430  0.52575  1.0000
  H   H247      1.0  0.40823  0.35719  0.51997  1.0000
  C   C315      1.0  0.47618  0.39614  0.53536  1.0000
  H   H248      1.0  0.39069  0.27809  0.52161  1.0000
  C   C316      1.0  0.43497  0.19341  0.51346  1.0000
  C   C317      1.0  0.23277  0.43663  0.61970  1.0000
  H   H249      1.0  0.42608  0.39872  0.48591  1.0000
  C   C318      1.0  0.41151  0.42989  0.59974  1.0000
  H   H250      1.0  0.35497  0.25640  0.55218  1.0000
  H   H251      1.0  0.40386  0.40625  0.63218  1.0000
  H   H252      1.0  0.02392  0.47400  0.67965  1.0000
  H   H253      1.0  0.26477  0.28948  0.70430  1.0000
  C   C319      1.0  0.45861  0.18938  0.51150  1.0000
  C   C320      1.0  0.40948  0.40761  0.61377  1.0000
  H   H254      1.0  0.47893  0.45240  0.56738  1.0000
  C   C321      1.0  0.46742  0.35012  0.52387  1.0000
  C   C322      1.0  0.46270  0.44893  0.53154  1.0000
  H   H255      1.0  0.38602  0.40068  0.68768  1.0000
  C   C323      1.0  0.20726  0.41641  0.61138  1.0000
  H   H256      1.0  0.41012  0.23343  0.59189  1.0000
  H   H257      1.0  0.25556  0.47766  0.63236  1.0000
  H   H258      1.0  0.32028  0.32879  0.50451  1.0000
  H   H259      1.0  0.42660  0.41527  0.71479  1.0000
  H   H260      1.0  0.46668  0.45665  0.68449  1.0000
  C   C324      1.0  0.42999  0.36295  0.52311  1.0000
  H   H261      1.0  0.40729  0.44575  0.60734  1.0000
  C   C325      1.0  0.41892  0.43167  0.57602  1.0000
  H   H262      1.0  0.47751  0.27229  0.51361  1.0000
  C   C326      1.0  0.42713  0.25720  0.55976  1.0000
  H   H263      1.0  0.41635  0.21576  0.53005  1.0000
  H   H264      1.0  0.20496  0.39608  0.60722  1.0000
  C   C327      1.0  0.23852  0.46882  0.70872  1.0000
  H   H265      1.0  0.24834  0.33331  0.72243  1.0000
  H   H266      1.0  0.20374  0.48942  0.57967  1.0000
  C   C328      1.0  0.46110  0.34371  0.61572  1.0000
  H   H267      1.0  0.16240  0.46384  0.70289  1.0000
  H   H268      1.0  0.45353  0.38841  0.71699  1.0000
  C   C329      1.0  0.38353  0.41105  0.52236  1.0000
  H   H269      1.0  0.25020  0.43197  0.62218  1.0000
  C   C330      1.0  0.42028  0.31749  0.59171  1.0000
  S   S48       1.0  0.21282  0.46894  0.72772  1.0000
  H   H270      1.0  0.46204  0.33619  0.57854  1.0000
  C   C331      1.0  0.41452  0.26447  0.71191  1.0000
  H   H271      1.0  0.47687  0.40162  0.63700  1.0000
  H   H272      1.0  0.19926  0.47116  0.67464  1.0000
  C   C332      1.0  0.18473  0.42235  0.60878  1.0000
  H   H273      1.0  0.36284  0.34296  0.73069  1.0000
  C   C333      1.0  0.42112  0.26937  0.53977  1.0000
  P   P10       1.0  0.45974  0.25558  0.56198  1.0000
  H   H274      1.0  0.25426  0.25689  0.49275  1.0000
  H   H275      1.0  0.41728  0.18253  0.50181  1.0000
  C   C334      1.0  0.32915  0.34366  0.70959  1.0000
  C   C335      1.0  0.43460  0.21242  0.52958  1.0000
  C   C336      1.0  0.42081  0.39734  0.70378  1.0000
  H   H276      1.0  0.41301  0.36990  0.61508  1.0000
  H   H277      1.0  0.21518  0.42548  0.70113  1.0000
  C   C337      1.0  0.29116  0.42174  0.72302  1.0000
  P   P11       1.0  0.43519  0.41428  0.53587  1.0000
  H   H278      1.0  0.48352  0.35490  0.61764  1.0000
  C   C338      1.0  0.18775  0.44854  0.61444  1.0000
  C   C339      1.0  0.14568  0.48664  0.68203  1.0000
  C   C340      1.0  0.48100  0.46254  0.55031  1.0000
  H   H279      1.0  0.42542  0.32321  0.51296  1.0000
  C   C341      1.0  0.23583  0.46279  0.62535  1.0000
  H   H280      1.0  0.16485  0.40653  0.60263  1.0000
  C   C342      1.0  0.47264  0.09027  0.63457  1.0000
  H   H281      1.0  0.34384  0.40836  0.51197  1.0000
  C   C343      1.0  0.46460  0.26951  0.60965  1.0000
  C   C344      1.0  0.46965  0.26676  0.63366  1.0000
  C   C345      1.0  0.43605  0.38235  0.70491  1.0000
  H   H282      1.0  0.34083  0.36486  0.70377  1.0000
  C   C346      1.0  0.29841  0.28894  0.72493  1.0000
  H   H283      1.0  0.43526  0.25682  0.68306  1.0000
  H   H284      1.0  0.42089  0.25336  0.72485  1.0000
  C   C347      1.0  0.44907  0.33296  0.59381  1.0000
  H   H285      1.0  0.42514  0.37201  0.57315  1.0000
  C   C348      1.0  0.30880  0.27964  0.66147  1.0000
  C   C349      1.0  0.30126  0.29182  0.64249  1.0000
  C   C350      1.0  0.32168  0.31099  0.62785  1.0000
  C   C351      1.0  0.34967  0.31833  0.63241  1.0000
  C   C352      1.0  0.35754  0.30622  0.65150  1.0000
  C   C353      1.0  0.33677  0.28683  0.66604  1.0000
  P   P12       1.0  0.39397  0.31875  0.65922  1.0000
  C   C354      1.0  0.39980  0.29525  0.67905  1.0000
  C   C355      1.0  0.41530  0.32442  0.63338  1.0000
  H   H286      1.0  0.38136  0.29974  0.60951  1.0000
  C   C356      1.0  0.39796  0.38912  0.68846  1.0000
  C   C357      1.0  0.44430  0.33968  0.63535  1.0000
  C   C358      1.0  0.41513  0.28162  0.67191  1.0000
  C   C359      1.0  0.42264  0.26650  0.68838  1.0000
  C   C360      1.0  0.45802  0.22766  0.54391  1.0000
  C   C361      1.0  0.34144  0.33136  0.72498  1.0000
  C   C362      1.0  0.39155  0.29285  0.70271  1.0000
  C   C363      1.0  0.40528  0.35052  0.67549  1.0000
  C   C364      1.0  0.39005  0.36571  0.67454  1.0000
  C   C365      1.0  0.42843  0.35917  0.69077  1.0000
  H   H287      1.0  0.29298  0.26520  0.67312  1.0000
  H   H288      1.0  0.27964  0.28686  0.63944  1.0000
  H   H289      1.0  0.31581  0.32077  0.61334  1.0000
  H   H290      1.0  0.36513  0.33414  0.62145  1.0000
  H   H291      1.0  0.34189  0.27761  0.68128  1.0000
  C   C366      1.0  0.47765  0.33091  0.71778  1.0000
  H   H292      1.0  0.36480  0.23391  0.58745  1.0000
  H   H293      1.0  0.45407  0.34803  0.65214  1.0000
  H   H294      1.0  0.42196  0.28312  0.65388  1.0000
  C   C367      1.0  0.41297  0.48208  0.67271  1.0000
  C   C368      1.0  0.41463  0.38701  0.60410  1.0000
  H   H295      1.0  0.28644  0.45838  0.72816  1.0000
  H   H296      1.0  0.38011  0.30349  0.70882  1.0000
  H   H297      1.0  0.37159  0.35922  0.66369  1.0000
  H   H298      1.0  0.44003  0.34745  0.69235  1.0000
  H   H299      1.0  0.28221  0.41841  0.70535  1.0000
  H   H300      1.0  0.46508  0.34008  0.72420  1.0000
  H   H301      1.0  0.37794  0.48309  0.65457  1.0000
  H   H302      1.0  0.00175  0.44166  0.64692  1.0000
  H   H303      1.0  0.44124  0.05965  0.65665  1.0000
  H   H304      1.0  0.45194  0.42812  0.64886  1.0000
  H   H305      1.0  0.43597  0.27843  0.52572  1.0000
  H   H306      1.0  0.38122  0.41583  0.54037  1.0000
  C   C369      1.0  0.21345  0.46909  0.62255  1.0000
  C   C370      1.0  0.40649  0.24403  0.57681  1.0000
  C   C371      1.0  0.28616  0.30126  0.70999  1.0000
  H   H307      1.0  0.45915  0.28563  0.60406  1.0000
  C   C372      1.0  0.39523  0.26900  0.53722  1.0000
  C   C373      1.0  0.38065  0.24401  0.57428  1.0000
  H   H308      1.0  0.41096  0.30907  0.57472  1.0000
  C   C374      1.0  0.42164  0.38845  0.58031  1.0000
  C   C375      1.0  0.40348  0.31268  0.61148  1.0000
  C   C376      1.0  0.43961  0.34345  0.51943  1.0000
  H   H309      1.0  0.28642  0.26770  0.73066  1.0000
  C   C377      1.0  0.46073  0.07842  0.65623  1.0000
  C   C378      1.0  0.07744  0.48808  0.70678  1.0000
  C   C379      1.0  0.18494  0.47967  0.67062  1.0000
  H   H310      1.0  0.01279  0.46296  0.50118  1.0000
  C   C380      1.0  0.47400  0.09073  0.67736  1.0000
  H   H311      1.0  0.46235  0.08069  0.61819  1.0000
  H   H312      1.0  0.08404  0.48346  0.69025  1.0000
  H   H313      1.0  0.48381  0.21197  0.63097  1.0000
  C   C381      1.0  0.46621  0.46253  0.50955  1.0000
  H   H314      1.0  0.29952  0.38658  0.72215  1.0000
  S   S49       1.0  0.35492  0.24608  0.48424  1.0000
  C   C382      1.0  0.46953  0.42924  0.65917  1.0000
  H   H315      1.0  0.45259  0.45259  0.49472  1.0000
  C   C383      1.0  0.99143  0.45509  0.49512  1.0000
  C   C384      1.0  0.47824  0.22791  0.62501  1.0000
  C   C385      1.0  0.36204  0.40671  0.50619  1.0000
  C   C386      1.0  0.47645  0.24597  0.64136  1.0000
  H   H316      1.0  0.44829  0.48658  0.69394  1.0000
  H   H317      1.0  0.48092  0.24427  0.65993  1.0000
  C   C387      1.0  0.40834  0.40107  0.49183  1.0000
  C   C388      1.0  0.47795  0.44549  0.67932  1.0000
  H   H318      1.0  0.17000  0.45272  0.61269  1.0000
  Fe  Fe24      1.0  0.35780  0.28890  0.48308  1.0000
  C   C389      1.0  0.16399  0.47540  0.68663  1.0000
  H   H319      1.0  0.13003  0.48391  0.69486  1.0000
  C   C390      1.0  0.48164  0.22341  0.54180  1.0000
  H   H320      1.0  0.22713  0.36376  0.73218  1.0000
  C   C391      1.0  0.36342  0.39908  0.48302  1.0000
  C   C392      1.0  0.48209  0.44992  0.84845  1.0000
  H   H321      1.0  0.32918  0.34172  0.77839  1.0000
  H   H322      1.0  0.36012  0.20709  0.81745  1.0000
  C   C393      1.0  0.30309  0.26693  0.80195  1.0000
  H   H323      1.0  0.38500  0.42059  0.80661  1.0000
  H   H324      1.0  0.32444  0.15797  0.81806  1.0000
  Fe  Fe25      1.0  0.43804  0.31667  0.77655  1.0000
  S   S50       1.0  0.44424  0.33732  0.81192  1.0000
  H   H325      1.0  0.22867  0.37896  0.77347  1.0000
  Fe  Fe26      1.0  0.37921  0.30828  0.77191  1.0000
  S   S51       1.0  0.38015  0.32775  0.80661  1.0000
  H   H326      1.0  0.40373  0.14940  0.88770  1.0000
  Fe  Fe27      1.0  0.42223  0.35997  0.79515  1.0000
  S   S52       1.0  0.42976  0.40271  0.80641  1.0000
  Fe  Fe28      1.0  0.40170  0.30376  0.82115  1.0000
  S   S53       1.0  0.39542  0.28563  0.85870  1.0000
  S   S54       1.0  0.41938  0.34215  0.75891  1.0000
  S   S55       1.0  0.39739  0.28146  0.78732  1.0000
  C   C394      1.0  0.29357  0.44434  0.73602  1.0000
  S   S56       1.0  0.24081  0.15106  0.96078  1.0000
  Fe  Fe29      1.0  0.28343  0.17710  0.94581  1.0000
  S   S57       1.0  0.28848  0.18886  0.90643  1.0000
  C   C395      1.0  0.06893  0.47876  0.74869  1.0000
  C   C396      1.0  0.46890  0.43685  0.77417  1.0000
  C   C397      1.0  0.36502  0.25924  0.87160  1.0000
  C   C398      1.0  0.34090  0.24382  0.85835  1.0000
  C   C399      1.0  0.31755  0.22255  0.86932  1.0000
  C   C400      1.0  0.31785  0.21682  0.89369  1.0000
  C   C401      1.0  0.34166  0.23289  0.90704  1.0000
  C   C402      1.0  0.36526  0.25358  0.89595  1.0000
  H   H327      1.0  0.34052  0.24773  0.83958  1.0000
  H   H328      1.0  0.29925  0.21024  0.85883  1.0000
  H   H329      1.0  0.34202  0.22907  0.92586  1.0000
  H   H330      1.0  0.38384  0.26531  0.90633  1.0000
  H   H331      1.0  0.36561  0.39273  0.94997  1.0000
  H   H332      1.0  0.31918  0.12877  0.85361  1.0000
  C   C403      1.0  0.44846  0.45820  0.79907  1.0000
  H   H333      1.0  0.43437  0.45666  0.81296  1.0000
  H   H334      1.0  0.13246  0.99951  0.98190  1.0000
  C   C404      1.0  0.45011  0.43444  0.79176  1.0000
  C   C405      1.0  0.37321  0.19706  0.95154  1.0000
  H   H335      1.0  0.32190  0.09688  0.93532  1.0000
  C   C406      1.0  0.38477  0.15408  0.93821  1.0000
  H   H336      1.0  0.38542  0.19838  0.88805  1.0000
  C   C407      1.0  0.35082  0.32026  0.86823  1.0000
  C   C408      1.0  0.35552  0.34761  0.86519  1.0000
  C   C409      1.0  0.34681  0.35993  0.88242  1.0000
  C   C410      1.0  0.33322  0.34483  0.90257  1.0000
  C   C411      1.0  0.32833  0.31725  0.90572  1.0000
  C   C412      1.0  0.33739  0.30520  0.88838  1.0000
  P   P13       1.0  0.31055  0.29733  0.93165  1.0000
  C   C413      1.0  0.33391  0.29041  0.95100  1.0000
  C   C414      1.0  0.29733  0.31668  0.94837  1.0000
  C   C415      1.0  0.32601  0.30381  0.73246  1.0000
  C   C416      1.0  0.04175  0.02250  0.97156  1.0000
  P   P14       1.0  0.31096  0.47981  0.77448  1.0000
  C   C417      1.0  0.25949  0.32663  0.95898  1.0000
  C   C418      1.0  0.26928  0.31097  0.94647  1.0000
  P   P15       1.0  0.42271  0.41102  0.93292  1.0000
  H   H337      1.0  0.32754  0.40244  0.93609  1.0000
  H   H338      1.0  0.41396  0.40422  0.88118  1.0000
  H   H339      1.0  0.43753  0.34068  0.86726  1.0000
  C   C419      1.0  0.35870  0.29156  0.94256  1.0000
  C   C420      1.0  0.28156  0.26466  0.92367  1.0000
  C   C421      1.0  0.24395  0.22047  0.93573  1.0000
  H   H340      1.0  0.23779  0.32205  0.95768  1.0000
  H   H341      1.0  0.08007  0.01763  0.93566  1.0000
  H   H342      1.0  0.00193  0.03706  0.97745  1.0000
  C   C422      1.0  0.26612  0.24590  0.94152  1.0000
  H   H343      1.0  0.35781  0.31067  0.85509  1.0000
  H   H344      1.0  0.36608  0.35926  0.84955  1.0000
  H   H345      1.0  0.35062  0.38121  0.88015  1.0000
  H   H346      1.0  0.32638  0.35470  0.91547  1.0000
  H   H347      1.0  0.33382  0.28398  0.89038  1.0000
  S   S58       1.0  0.30137  0.15293  0.96646  1.0000
  H   H348      1.0  0.44693  0.33712  0.90984  1.0000
  H   H349      1.0  0.27437  0.07399  0.95132  1.0000
  C   C423      1.0  0.24841  0.33934  0.74059  1.0000
  H   H350      1.0  0.25488  0.29444  0.93543  1.0000
  H   H351      1.0  0.24226  0.23411  0.77132  1.0000
  H   H352      1.0  0.33425  0.43435  0.90206  1.0000
  C   C424      1.0  0.39876  0.36720  0.96532  1.0000
  C   C425      1.0  0.42621  0.38786  0.91218  1.0000
  H   H353      1.0  0.36498  0.29737  0.92449  1.0000
  H   H354      1.0  0.27137  0.31829  0.75346  1.0000
  C   C426      1.0  0.27354  0.25788  0.89990  1.0000
  C   C427      1.0  0.43442  0.35384  0.87976  1.0000
  H   H355      1.0  0.38030  0.45792  0.88287  1.0000
  H   H356      1.0  0.27107  0.25060  0.96001  1.0000
  S   S59       1.0  0.36344  0.47827  0.94623  1.0000
  C   C428      1.0  0.25786  0.27485  0.78595  1.0000
  C   C429      1.0  0.27994  0.29614  0.79797  1.0000
  C   C430      1.0  0.30209  0.29161  0.80667  1.0000
  P   P16       1.0  0.27832  0.32764  0.80481  1.0000
  C   C431      1.0  0.26114  0.33812  0.78191  1.0000
  C   C432      1.0  0.26082  0.32088  0.83276  1.0000
  C   C433      1.0  0.23209  0.31213  0.83358  1.0000
  C   C434      1.0  0.21849  0.30576  0.85530  1.0000
  C   C435      1.0  0.23339  0.30765  0.87627  1.0000
  C   C436      1.0  0.26188  0.31575  0.87552  1.0000
  C   C437      1.0  0.27551  0.32211  0.85383  1.0000
  C   C438      1.0  0.24971  0.35598  0.78722  1.0000
  C   C439      1.0  0.26118  0.33059  0.75832  1.0000
  C   C440      1.0  0.35546  0.07101  0.88064  1.0000
  H   H357      1.0  0.23253  0.20591  0.94964  1.0000
  H   H358      1.0  0.23993  0.27734  0.78003  1.0000
  C   C441      1.0  0.31260  0.35626  0.80653  1.0000
  C   C442      1.0  0.33323  0.35799  0.79095  1.0000
  C   C443      1.0  0.34425  0.40130  0.82200  1.0000
  C   C444      1.0  0.31815  0.37823  0.82186  1.0000
  H   H359      1.0  0.23823  0.08606  0.93550  1.0000
  S   S60       1.0  0.34003  0.28633  0.75050  1.0000
  H   H360      1.0  0.31880  0.30722  0.81684  1.0000
  H   H361      1.0  0.22006  0.30980  0.81747  1.0000
  H   H362      1.0  0.19630  0.29904  0.85585  1.0000
  H   H363      1.0  0.22277  0.30249  0.89306  1.0000
  H   H364      1.0  0.27329  0.31678  0.89173  1.0000
  H   H365      1.0  0.29741  0.32761  0.85343  1.0000
  H   H366      1.0  0.25062  0.36314  0.80508  1.0000
  H   H367      1.0  0.30769  0.45888  0.82301  1.0000
  C   C445      1.0  0.32701  0.28315  0.97484  1.0000
  H   H368      1.0  0.47029  0.41869  0.76856  1.0000
  C   C446      1.0  0.45524  0.46733  0.94058  1.0000
  C   C447      1.0  0.42517  0.37278  0.87180  1.0000
  H   H369      1.0  0.34855  0.41827  0.83378  1.0000
  H   H370      1.0  0.30222  0.37775  0.83343  1.0000
  H   H371      1.0  0.39063  0.22684  0.85238  1.0000
  H   H372      1.0  0.37523  0.38232  0.77917  1.0000
  C   C448      1.0  0.36478  0.40271  0.80664  1.0000
  S   S61       1.0  0.46937  0.30423  0.76140  1.0000
  H   H373      1.0  0.28411  0.27195  0.88561  1.0000
  C   C449      1.0  0.31536  0.33819  0.96299  1.0000
  H   H374      1.0  0.32482  0.43390  0.78562  1.0000
  H   H375      1.0  0.22028  0.19340  0.90769  1.0000
  H   H376      1.0  0.38887  0.13701  0.93383  1.0000
  C   C450      1.0  0.36176  0.11672  0.89096  1.0000
  C   C451      1.0  0.45498  0.44255  0.93372  1.0000
  H   H377      1.0  0.39243  0.06823  0.87081  1.0000
  H   H378      1.0  0.32039  0.39428  0.76235  1.0000
  C   C452      1.0  0.08957  0.99427  0.91027  1.0000
  C   C453      1.0  0.48457  0.48670  0.77163  1.0000
  P   P17       1.0  0.34791  0.13982  0.89937  1.0000
  C   C454      1.0  0.31246  0.12119  0.90911  1.0000
  C   C455      1.0  0.36617  0.16020  0.92458  1.0000
  C   C456      1.0  0.36014  0.18145  0.93163  1.0000
  H   H379      1.0  0.06943  0.46753  0.76462  1.0000
  C   C457      1.0  0.29183  0.12802  0.90037  1.0000
  C   C458      1.0  0.26506  0.11513  0.90964  1.0000
  C   C459      1.0  0.25870  0.09536  0.92773  1.0000
  C   C460      1.0  0.27915  0.08853  0.93663  1.0000
  C   C461      1.0  0.30600  0.10155  0.92753  1.0000
  C   C462      1.0  0.35133  0.16151  0.87374  1.0000
  C   C463      1.0  0.33466  0.15021  0.85360  1.0000
  C   C464      1.0  0.33770  0.16663  0.83340  1.0000
  C   C465      1.0  0.35782  0.19424  0.83300  1.0000
  C   C466      1.0  0.37501  0.20540  0.85273  1.0000
  C   C467      1.0  0.37180  0.18917  0.87305  1.0000
  H   H380      1.0  0.24959  0.12137  0.90345  1.0000
  H   H381      1.0  0.34475  0.18542  0.92200  1.0000
  H   H382      1.0  0.33704  0.34292  0.96478  1.0000
  H   H383      1.0  0.29651  0.14418  0.88718  1.0000
  H   H384      1.0  0.44118  0.36781  0.93838  1.0000
  C   C468      1.0  0.34435  0.08844  0.88773  1.0000
  C   C469      1.0  0.39015  0.12748  0.88602  1.0000
  C   C470      1.0  0.35926  0.38109  0.79113  1.0000
  C   C471      1.0  0.43975  0.35189  0.90381  1.0000
  H   H385      1.0  0.21155  0.47408  0.81233  1.0000
  C   C472      1.0  0.31513  0.43072  0.76830  1.0000
  C   C473      1.0  0.46542  0.48416  0.78892  1.0000
  C   C474      1.0  0.23734  0.36506  0.76936  1.0000
  C   C475      1.0  0.37563  0.28455  0.95743  1.0000
  H   H386      1.0  0.42316  0.11841  0.87530  1.0000
  C   C476      1.0  0.25892  0.25017  0.78123  1.0000
  H   H387      1.0  0.38956  0.35414  0.95017  1.0000
  H   H388      1.0  0.20924  0.44694  0.77686  1.0000
  C   C477      1.0  0.28167  0.24634  0.78902  1.0000
  H   H389      1.0  0.46787  0.42829  0.84592  1.0000
  C   C478      1.0  0.34711  0.41155  0.92683  1.0000
  H   H390      1.0  0.34198  0.04916  0.87836  1.0000
  C   C479      1.0  0.35090  0.42953  0.90766  1.0000
  C   C480      1.0  0.23647  0.35654  0.74609  1.0000
  C   C481      1.0  0.31275  0.40819  0.75517  1.0000
  C   C482      1.0  0.30574  0.44915  0.75872  1.0000
  C   C483      1.0  0.37675  0.44273  0.89681  1.0000
  H   H391      1.0  0.25182  0.44868  0.76058  1.0000
  C   C484      1.0  0.23027  0.47420  0.80564  1.0000
  C   C485      1.0  0.22901  0.45888  0.78573  1.0000
  H   H392      1.0  0.41865  0.44853  0.89654  1.0000
  H   H393      1.0  0.03603  0.03027  0.95564  1.0000
  C   C486      1.0  0.27766  0.34819  0.97324  1.0000
  H   H394      1.0  0.24612  0.22674  0.87585  1.0000
  C   C487      1.0  0.25331  0.45989  0.77655  1.0000
  C   C488      1.0  0.39860  0.43747  0.90476  1.0000
  H   H395      1.0  0.39431  0.28472  0.95063  1.0000
  H   H396      1.0  0.43615  0.46782  0.94541  1.0000
  H   H397      1.0  0.08253  0.05726  0.97358  1.0000
  C   C489      1.0  0.32918  0.47312  0.81955  1.0000
  H   H398      1.0  0.32222  0.07975  0.89049  1.0000
  H   H399      1.0  0.42120  0.37427  0.85308  1.0000
  C   C490      1.0  0.30554  0.35395  0.97531  1.0000
  H   H400      1.0  0.28289  0.22754  0.78487  1.0000
  C   C491      1.0  0.36891  0.40619  0.93475  1.0000
  C   C492      1.0  0.34913  0.47808  0.83740  1.0000
  H   H401      1.0  0.32086  0.26407  0.80771  1.0000
  C   C493      1.0  0.38387  0.08176  0.87633  1.0000
  C   C494      1.0  0.41562  0.39573  0.96232  1.0000
  C   C495      1.0  0.42100  0.38969  0.88791  1.0000
  C   C496      1.0  0.39478  0.41887  0.92359  1.0000
  C   C497      1.0  0.39774  0.16967  0.95823  1.0000
  C   C498      1.0  0.40118  0.11001  0.87891  1.0000
  C   C499      1.0  0.25152  0.23229  0.89419  1.0000
  C   C500      1.0  0.47829  0.46430  0.86703  1.0000
  C   C501      1.0  0.43603  0.36905  0.91994  1.0000
  C   C502      1.0  0.39199  0.19118  0.96485  1.0000
  C   C503      1.0  0.23688  0.21351  0.91209  1.0000
  S   S62       1.0  0.29534  0.20999  0.97293  1.0000
  H   H402      1.0  0.46126  0.45380  0.87905  1.0000
  C   C504      1.0  0.27911  0.47616  0.78741  1.0000
  H   H403      1.0  0.36801  0.21309  0.95717  1.0000
  C   C505      1.0  0.48010  0.44256  0.92770  1.0000
  C   C506      1.0  0.33689  0.48670  0.79750  1.0000
  H   H404      1.0  0.08910  0.00688  0.89532  1.0000
  H   H405      1.0  0.43823  0.43440  0.98081  1.0000
  H   H406      1.0  0.41183  0.16477  0.96892  1.0000
  H   H407      1.0  0.34300  0.46820  0.85459  1.0000
  H   H408      1.0  0.48061  0.42374  0.92251  1.0000
  C   C507      1.0  0.08452  0.00036  0.93301  1.0000
  C   C508      1.0  0.48296  0.31279  0.73249  1.0000
  H   H409      1.0  0.39214  0.27559  0.73709  1.0000
  H   H410      1.0  0.48259  0.38149  0.76849  1.0000
  H   H411      1.0  0.40141  0.20283  0.98071  1.0000
  C   C509      1.0  0.25582  0.49038  0.81657  1.0000
  C   C510      1.0  0.36815  0.27660  0.98088  1.0000
  H   H412      1.0  0.30827  0.28238  0.98200  1.0000
  C   C511      1.0  0.02268  0.99771  0.98227  1.0000
  C   C512      1.0  0.06821  0.03768  0.98146  1.0000
  C   C513      1.0  0.30097  0.40382  0.73248  1.0000
  H   H413      1.0  0.08953  0.94921  0.15131  1.0000
  H   H414      1.0  0.04512  0.72437  0.14511  1.0000
  H   H415      1.0  0.09536  0.78610  0.20514  1.0000
  H   H416      1.0  0.02512  0.83368  0.08704  1.0000
  H   H417      1.0  0.99051  0.62331  0.10777  1.0000
  H   H418      1.0  0.11476  0.60651  0.06560  1.0000
  H   H419      1.0  0.04947  0.76604  0.18528  1.0000
  H   H420      1.0  0.00996  0.68819  0.00243  1.0000
  C   C514      1.0  0.05688  0.80355  0.16646  1.0000
  H   H421      1.0  0.02904  0.83280  0.00600  1.0000
  C   C515      1.0  0.12559  0.98932  0.99886  1.0000
  H   H422      1.0  0.03695  0.56843  0.00739  1.0000
  C   C516      1.0  0.44527  0.49790  0.08824  1.0000
  Fe  Fe30      1.0  0.46601  0.74831  0.99122  1.0000
  C   C517      1.0  0.04829  0.57909  0.04409  1.0000
  C   C518      1.0  0.30690  0.53531  0.98386  1.0000
  H   H423      1.0  0.06631  0.97066  0.06433  1.0000
  H   H424      1.0  0.04609  0.92292  0.05047  1.0000
  C   C519      1.0  0.99721  0.68203  0.06145  1.0000
  P   P18       1.0  0.00214  0.77486  0.10050  1.0000
  Fe  Fe31      1.0  0.07367  0.65053  0.15071  1.0000
  S   S63       1.0  0.08434  0.63400  0.11816  1.0000
  S   S64       1.0  0.04527  0.62945  0.18256  1.0000
  Fe  Fe32      1.0  0.10329  0.71091  0.13173  1.0000
  S   S65       1.0  0.11637  0.69928  0.09814  1.0000
  S   S66       1.0  0.10524  0.75218  0.14181  1.0000
  Fe  Fe33      1.0  0.07371  0.66364  0.09721  1.0000
  S   S67       1.0  0.05417  0.65275  0.06090  1.0000
  Fe  Fe34      1.0  0.12656  0.67058  0.12065  1.0000
  S   S68       1.0  0.16523  0.66597  0.11234  1.0000
  S   S69       1.0  0.05939  0.67720  0.12896  1.0000
  S   S70       1.0  0.11716  0.68518  0.15511  1.0000
  Fe  Fe35      1.0  0.16108  0.90857  0.10759  1.0000
  S   S71       1.0  0.11933  0.89547  0.12352  1.0000
  S   S72       1.0  0.17827  0.87700  0.10739  1.0000
  Fe  Fe36      1.0  0.16808  0.96771  0.09474  1.0000
  S   S73       1.0  0.12609  0.95702  0.10971  1.0000
  S   S74       1.0  0.36178  0.50342  0.99794  1.0000
  Fe  Fe37      1.0  0.13791  0.93713  0.14008  1.0000
  S   S75       1.0  0.13363  0.94630  0.17835  1.0000
  Fe  Fe38      1.0  0.11213  0.91646  0.09159  1.0000
  S   S76       1.0  0.07118  0.89526  0.07241  1.0000
  S   S77       1.0  0.18070  0.94959  0.12629  1.0000
  S   S78       1.0  0.15314  0.92817  0.07444  1.0000
  C   C520      1.0  0.01862  0.56943  0.10288  1.0000
  C   C521      1.0  0.07128  0.87411  0.04936  1.0000
  C   C522      1.0  0.04750  0.86042  0.03519  1.0000
  C   C523      1.0  0.04741  0.84327  0.01691  1.0000
  C   C524      1.0  0.07120  0.84003  0.01263  1.0000
  C   C525      1.0  0.09520  0.85448  0.02628  1.0000
  C   C526      1.0  0.09505  0.87105  0.04485  1.0000
  H   H425      1.0  0.02907  0.86284  0.03844  1.0000
  H   H426      1.0  0.04191  0.66910  0.01554  1.0000
  C   C527      1.0  0.27930  0.56048  0.98474  1.0000
  H   H427      1.0  0.11315  0.88075  0.05602  1.0000
  H   H428      1.0  0.09296  0.79991  0.03916  1.0000
  S   S79       1.0  0.18469  0.64628  0.00470  1.0000
  H   H429      1.0  0.23040  0.83304  0.20250  1.0000
  C   C528      1.0  0.12553  0.78575  0.12971  1.0000
  C   C529      1.0  0.15295  0.79502  0.12238  1.0000
  C   C530      1.0  0.16890  0.82295  0.11541  1.0000
  C   C531      1.0  0.15744  0.84165  0.11527  1.0000
  C   C532      1.0  0.12976  0.83190  0.12182  1.0000
  C   C533      1.0  0.11408  0.80431  0.12916  1.0000
  H   H430      1.0  0.16210  0.78096  0.12269  1.0000
  H   H431      1.0  0.19025  0.83013  0.11026  1.0000
  H   H432      1.0  0.12033  0.84558  0.12138  1.0000
  H   H433      1.0  0.09283  0.79723  0.13440  1.0000
  C   C534      1.0  0.03174  0.66685  0.05234  1.0000
  C   C535      1.0  0.99510  0.68801  0.03746  1.0000
  C   C536      1.0  0.01592  0.67197  0.06895  1.0000
  H   H434      1.0  0.13889  0.72560  0.21269  1.0000
  H   H435      1.0  0.47773  0.92517  0.03129  1.0000
  C   C537      1.0  0.03399  0.59778  0.19898  1.0000
  C   C538      1.0  0.04516  0.57933  0.19586  1.0000
  C   C539      1.0  0.00593  0.56821  0.23156  1.0000
  H   H436      1.0  0.04602  0.76064  0.11814  1.0000
  H   H437      1.0  0.18051  0.94247  0.20980  1.0000
  H   H438      1.0  0.06050  0.58350  0.18237  1.0000
  C   C540      1.0  0.03084  0.78341  0.08072  1.0000
  C   C541      1.0  0.34548  0.62860  0.99084  1.0000
  H   H439      1.0  0.10643  0.95270  0.06009  1.0000
  C   C542      1.0  0.07749  0.95879  0.15820  1.0000
  Fe  Fe39      1.0  0.40587  0.53485  0.99057  1.0000
  C   C543      1.0  0.39570  0.72856  0.99511  1.0000
  C   C544      1.0  0.04982  0.77353  0.04564  1.0000
  C   C545      1.0  0.00402  0.91510  0.05567  1.0000
  C   C546      1.0  0.10571  0.96144  0.00032  1.0000
  H   H440      1.0  0.03679  0.79463  0.15779  1.0000
  C   C547      1.0  0.17895  0.88208  0.17338  1.0000
  H   H441      1.0  0.00261  0.96544  0.11503  1.0000
  S   S80       1.0  0.26103  0.64689  0.99998  1.0000
  H   H442      1.0  0.29692  0.55012  0.01556  1.0000
  Fe  Fe40      1.0  0.21831  0.63864  0.98703  1.0000
  H   H443      1.0  0.33437  0.50908  0.06919  1.0000
  H   H444      1.0  0.10558  0.98449  0.21534  1.0000
  H   H445      1.0  0.44584  0.53502  0.07296  1.0000
  C   C548      1.0  0.19305  0.71431  0.99692  1.0000
  C   C549      1.0  0.98652  0.92621  0.06222  1.0000
  C   C550      1.0  0.99762  0.95365  0.06951  1.0000
  C   C551      1.0  0.16380  0.89830  0.20711  1.0000
  C   C552      1.0  0.01164  0.68380  0.02097  1.0000
  C   C553      1.0  0.18052  0.65220  0.03481  1.0000
  C   C554      1.0  0.15846  0.65788  0.04056  1.0000
  C   C555      1.0  0.15377  0.66233  0.06412  1.0000
  C   C556      1.0  0.17113  0.66114  0.08235  1.0000
  C   C557      1.0  0.19349  0.65585  0.07660  1.0000
  C   C558      1.0  0.19818  0.65138  0.05294  1.0000
  H   H446      1.0  0.14484  0.65878  0.02667  1.0000
  H   H447      1.0  0.13650  0.66638  0.06816  1.0000
  H   H448      1.0  0.20709  0.65495  0.09054  1.0000
  H   H449      1.0  0.21529  0.64710  0.04877  1.0000
  C   C559      1.0  0.06795  0.87650  0.20217  1.0000
  C   C560      1.0  0.08746  0.89657  0.18713  1.0000
  C   C561      1.0  0.10896  0.92041  0.19662  1.0000
  H   H450      1.0  0.09172  0.88805  0.98645  1.0000
  C   C562      1.0  0.44144  0.51375  0.07001  1.0000
  H   H451      1.0  0.05137  0.85810  0.19471  1.0000
  H   H452      1.0  0.08574  0.89370  0.16821  1.0000
  C   C563      1.0  0.13997  0.76660  0.98656  1.0000
  C   C564      1.0  0.07585  0.79502  0.05103  1.0000
  C   C565      1.0  0.09770  0.59825  0.05291  1.0000
  C   C566      1.0  0.02953  0.67277  0.02838  1.0000
  C   C567      1.0  0.10214  0.84233  0.17265  1.0000
  C   C568      1.0  0.08074  0.65550  0.99260  1.0000
  H   H453      1.0  0.07795  0.63585  0.99996  1.0000
  H   H454      1.0  0.07025  0.84351  0.14976  1.0000
  C   C569      1.0  0.01172  0.89900  0.99528  1.0000
  H   H455      1.0  0.99798  0.90217  0.00710  1.0000
  C   C570      1.0  0.01743  0.83112  0.10495  1.0000
  C   C571      1.0  0.16319  0.87634  0.19402  1.0000
  C   C572      1.0  0.11013  0.63738  0.21779  1.0000
  C   C573      1.0  0.44358  0.68184  0.02673  1.0000
  C   C574      1.0  0.45899  0.67642  0.04436  1.0000
  C   C575      1.0  0.44601  0.65337  0.05922  1.0000
  C   C576      1.0  0.41765  0.63571  0.05636  1.0000
  C   C577      1.0  0.40238  0.64043  0.03793  1.0000
  C   C578      1.0  0.41544  0.66399  0.02348  1.0000
  P   P19       1.0  0.36567  0.61841  0.03415  1.0000
  C   C579      1.0  0.35611  0.58425  0.04654  1.0000
  C   C580      1.0  0.34653  0.63461  0.04726  1.0000
  C   C581      1.0  0.31794  0.62416  0.04280  1.0000
  C   C582      1.0  0.30322  0.63752  0.05139  1.0000
  C   C583      1.0  0.31697  0.66158  0.06452  1.0000
  C   C584      1.0  0.34543  0.67211  0.06923  1.0000
  C   C585      1.0  0.36019  0.65867  0.06071  1.0000
  C   C586      1.0  0.37380  0.57193  0.04393  1.0000
  C   C587      1.0  0.36608  0.54503  0.05216  1.0000
  C   C588      1.0  0.34053  0.53008  0.06313  1.0000
  C   C589      1.0  0.32286  0.54219  0.06610  1.0000
  C   C590      1.0  0.33062  0.56917  0.05794  1.0000
  C   C591      1.0  0.35853  0.61451  0.00264  1.0000
  H   H456      1.0  0.00119  0.69134  0.16379  1.0000
  C   C592      1.0  0.00027  0.59841  0.08422  1.0000
  C   C593      1.0  0.01920  0.85427  0.11671  1.0000
  C   C594      1.0  0.10087  0.67999  0.00239  1.0000
  H   H457      1.0  0.45343  0.69989  0.01550  1.0000
  C   C595      1.0  0.29451  0.54868  0.99656  1.0000
  C   C596      1.0  0.20843  0.82302  0.19816  1.0000
  H   H458      1.0  0.40783  0.61843  0.06848  1.0000
  H   H459      1.0  0.40386  0.66891  0.00992  1.0000
  H   H460      1.0  0.30715  0.60597  0.03214  1.0000
  H   H461      1.0  0.28120  0.62939  0.04743  1.0000
  H   H462      1.0  0.30560  0.67220  0.07080  1.0000
  H   H463      1.0  0.35619  0.69100  0.07912  1.0000
  H   H464      1.0  0.38230  0.66756  0.06421  1.0000
  H   H465      1.0  0.39358  0.58307  0.03529  1.0000
  C   C597      1.0  0.99531  0.98982  0.14049  1.0000
  P   P20       1.0  0.14280  0.84096  0.20347  1.0000
  H   H466      1.0  0.30293  0.53058  0.07443  1.0000
  H   H467      1.0  0.31636  0.57779  0.06026  1.0000
  H   H468      1.0  0.02670  0.55453  0.10181  1.0000
  C   C598      1.0  0.01644  0.57917  0.12505  1.0000
  C   C599      1.0  0.45408  0.59966  0.01200  1.0000
  H   H469      1.0  0.01775  0.66776  0.08748  1.0000
  H   H470      1.0  0.20988  0.78849  0.18121  1.0000
  C   C600      1.0  0.08104  0.58541  0.01283  1.0000
  S   S81       1.0  0.26419  0.57719  0.00126  1.0000
  C   C601      1.0  0.36589  0.59715  0.98960  1.0000
  C   C602      1.0  0.37125  0.70610  0.00290  1.0000
  C   C603      1.0  0.06406  0.78743  0.18199  1.0000
  H   H471      1.0  0.04687  0.76161  0.02977  1.0000
  C   C604      1.0  0.00142  0.70762  0.15224  1.0000
  H   H472      1.0  0.02843  0.87431  0.10794  1.0000
  H   H473      1.0  0.12413  0.60240  0.02352  1.0000
  C   C605      1.0  0.03310  0.95811  0.16434  1.0000
  H   H474      1.0  0.34009  0.64266  0.00009  1.0000
  H   H475      1.0  0.32714  0.68155  0.99692  1.0000
  C   C606      1.0  0.19692  0.79797  0.18617  1.0000
  H   H476      1.0  0.42620  0.60740  0.98866  1.0000
  C   C607      1.0  0.00879  0.85153  0.13953  1.0000
  C   C608      1.0  0.13838  0.65567  0.21947  1.0000
  H   H477      1.0  0.19995  0.70551  0.98301  1.0000
  C   C609      1.0  0.04636  0.98331  0.17609  1.0000
  Fe  Fe41      1.0  0.02814  0.78541  0.98261  1.0000
  H   H478      1.0  0.00495  0.60635  0.14396  1.0000
  S   S82       1.0  0.07144  0.81811  0.99035  1.0000
  H   H479      1.0  0.02734  0.52340  0.03490  1.0000
  H   H480      1.0  0.00485  0.60553  0.21895  1.0000
  C   C610      1.0  0.02657  0.74683  0.12630  1.0000
  H   H481      1.0  0.13075  0.78835  0.17988  1.0000
  C   C611      1.0  0.18069  0.92558  0.20005  1.0000
  C   C612      1.0  0.05379  0.57696  0.02022  1.0000
  H   H482      1.0  0.22252  0.71286  0.02244  1.0000
  C   C613      1.0  0.01075  0.57914  0.08223  1.0000
  C   C614      1.0  0.00206  0.74911  0.12133  1.0000
  C   C615      1.0  0.00593  0.60048  0.02019  1.0000
  C   C616      1.0  0.09921  0.94829  0.02255  1.0000
  C   C617      1.0  0.05737  0.80449  0.08641  1.0000
  P   P21       1.0  0.01273  0.56556  0.05375  1.0000
  C   C618      1.0  0.43182  0.50219  0.04782  1.0000
  H   H483      1.0  0.04579  0.54161  0.20810  1.0000
  S   S83       1.0  0.42681  0.73804  0.01129  1.0000
  H   H484      1.0  0.45261  0.50714  0.10538  1.0000
  H   H485      1.0  0.10099  0.76802  0.99205  1.0000
  H   H486      1.0  0.11330  0.67883  0.01728  1.0000
  H   H487      1.0  0.37184  0.69442  0.01843  1.0000
  P   P22       1.0  0.13138  0.73706  0.00596  1.0000
  C   C619      1.0  0.16110  0.73070  0.01127  1.0000
  C   C620      1.0  0.12038  0.74534  0.03325  1.0000
  C   C621      1.0  0.09642  0.72603  0.04450  1.0000
  C   C622      1.0  0.08733  0.73294  0.06510  1.0000
  C   C623      1.0  0.10241  0.75900  0.07484  1.0000
  H   H488      1.0  0.17808  0.86551  0.16250  1.0000
  C   C624      1.0  0.13554  0.77160  0.04315  1.0000
  C   C625      1.0  0.17383  0.73446  0.03374  1.0000
  C   C626      1.0  0.19616  0.72840  0.03762  1.0000
  H   H489      1.0  0.99537  0.89364  0.05058  1.0000
  C   C627      1.0  0.11134  0.96309  0.04304  1.0000
  C   C628      1.0  0.11077  0.92404  0.22121  1.0000
  C   C629      1.0  0.98701  0.90418  0.22656  1.0000
  C   C630      1.0  0.00540  0.80498  0.11607  1.0000
  H   H490      1.0  0.01711  0.96827  0.01076  1.0000
  H   H491      1.0  0.12747  0.94233  0.22863  1.0000
  H   H492      1.0  0.10046  0.63038  0.20059  1.0000
  H   H493      1.0  0.37608  0.58609  0.99794  1.0000
  C   C631      1.0  0.19180  0.83565  0.20380  1.0000
  H   H494      1.0  0.31891  0.52666  0.99310  1.0000
  C   C632      1.0  0.03684  0.55559  0.21059  1.0000
  C   C633      1.0  0.20585  0.71847  0.01920  1.0000
  H   H495      1.0  0.08477  0.70563  0.03746  1.0000
  H   H496      1.0  0.06872  0.71799  0.07370  1.0000
  H   H497      1.0  0.09492  0.76425  0.09057  1.0000
  C   C634      1.0  0.12663  0.77832  0.06399  1.0000
  H   H498      1.0  0.16627  0.74135  0.04849  1.0000
  H   H499      1.0  0.20536  0.73045  0.05514  1.0000
  C   C635      1.0  0.03609  0.95373  0.23092  1.0000
  C   C636      1.0  0.98694  0.92959  0.22162  1.0000
  H   H500      1.0  0.15060  0.66280  0.20353  1.0000
  C   C637      1.0  0.99420  0.80228  0.13873  1.0000
  H   H501      1.0  0.15418  0.78686  0.03478  1.0000
  H   H502      1.0  0.00761  0.75075  0.05584  1.0000
  C   C638      1.0  0.99615  0.82553  0.15048  1.0000
  H   H503      1.0  0.04628  0.93834  0.00232  1.0000
  C   C639      1.0  0.10967  0.82616  0.18806  1.0000
  H   H504      1.0  0.15987  0.76646  0.17002  1.0000
  C   C640      1.0  0.00797  0.98623  0.12040  1.0000
  H   H505      1.0  0.02305  0.57209  0.14092  1.0000
  H   H506      1.0  0.06713  0.59222  0.07873  1.0000
  H   H507      1.0  0.01015  0.86950  0.14855  1.0000
  H   H508      1.0  0.45797  0.64922  0.07291  1.0000
  H   H509      1.0  0.48429  0.79525  0.05188  1.0000
  C   C641      1.0  0.19689  0.93113  0.17987  1.0000
  C   C642      1.0  0.19589  0.90938  0.16646  1.0000
  C   C643      1.0  0.17070  0.72028  0.99296  1.0000
  H   H510      1.0  0.20952  0.95231  0.17420  1.0000
  H   H511      1.0  0.20773  0.91359  0.15033  1.0000
  C   C644      1.0  0.03266  0.93153  0.05596  1.0000
  C   C645      1.0  0.04396  0.95876  0.06372  1.0000
  C   C646      1.0  0.02653  0.97019  0.07056  1.0000
  C   C647      1.0  0.16878  0.78551  0.17994  1.0000
  C   C648      1.0  0.46476  0.64456  0.99400  1.0000
  H   H512      1.0  0.37986  0.53576  0.04969  1.0000
  C   C649      1.0  0.03913  0.91935  0.99257  1.0000
  H   H513      1.0  0.03845  0.92632  0.14631  1.0000
  H   H514      1.0  0.20126  0.85555  0.21235  1.0000
  H   H515      1.0  0.06095  0.81640  0.10233  1.0000
  H   H516      1.0  0.09933  0.84735  0.22817  1.0000
  C   C650      1.0  0.04866  0.94582  0.15543  1.0000
  C   C651      1.0  0.03108  0.98759  0.00235  1.0000
  H   H517      1.0  0.99431  0.60655  0.06869  1.0000
  C   C652      1.0  0.10298  0.59595  0.02919  1.0000
  S   S84       1.0  0.99507  0.77336  0.00977  1.0000
  C   C653      1.0  0.00933  0.51327  0.04596  1.0000
  C   C654      1.0  0.02744  0.76762  0.06047  1.0000
  C   C655      1.0  0.15213  0.79805  0.18565  1.0000
  H   H518      1.0  0.46219  0.80176  0.01515  1.0000
  H   H519      1.0  0.08538  0.92637  0.02407  1.0000
  H   H520      1.0  0.11362  0.85202  0.02314  1.0000
  S   S85       1.0  0.43146  0.56482  0.01867  1.0000
  H   H521      1.0  0.13820  0.79863  0.07155  1.0000
  H   H522      1.0  0.11647  0.86367  0.16890  1.0000
  C   C656      1.0  0.07974  0.81027  0.07156  1.0000
  H   H523      1.0  0.10006  0.82684  0.07577  1.0000
  C   C657      1.0  0.07583  0.83101  0.16185  1.0000
  C   C658      1.0  0.02618  0.72619  0.14169  1.0000
  C   C659      1.0  0.34596  0.69878  0.99074  1.0000
  C   C660      1.0  0.07053  0.58997  0.06034  1.0000
  C   C661      1.0  0.06977  0.88016  0.22676  1.0000
  C   C662      1.0  0.44635  0.61623  0.99724  1.0000
  H   H524      1.0  0.02742  0.61474  0.02385  1.0000
  C   C663      1.0  0.09083  0.98389  0.17008  1.0000
  H   H525      1.0  0.01071  0.94812  0.16214  1.0000
  C   C664      1.0  0.01404  0.59176  0.21668  1.0000
  C   C665      1.0  0.10447  0.70571  0.99343  1.0000
  C   C666      1.0  0.16341  0.82318  0.19770  1.0000
  C   C667      1.0  0.09020  0.79878  0.19299  1.0000
  H   H526      1.0  0.42872  0.51437  0.03376  1.0000
  H   H527      1.0  0.08524  0.58368  0.99445  1.0000
  C   C668      1.0  0.00624  0.59852  0.12681  1.0000
  C   C669      1.0  0.99324  0.57482  0.03200  1.0000
  C   C670      1.0  0.13058  0.99091  0.04152  1.0000
  C   C671      1.0  0.99778  0.52843  0.05719  1.0000
  H   H528      1.0  0.01100  0.97378  0.22034  1.0000
  H   H529      1.0  0.48103  0.69003  0.04631  1.0000
  C   C672      1.0  0.12087  0.77736  0.98321  1.0000
  C   C673      1.0  0.99811  0.60807  0.10642  1.0000
  C   C674      1.0  0.01136  0.95427  0.22391  1.0000
  C   C675      1.0  0.01728  0.54988  0.22862  1.0000
  H   H530      1.0  0.00051  0.62835  0.99532  1.0000
  C   C676      1.0  0.48224  0.81786  0.02083  1.0000
  H   H531      1.0  0.15109  0.89464  0.22255  1.0000
  C   C677      1.0  0.48008  0.61140  0.02325  1.0000
  C   C678      1.0  0.99076  0.60827  0.00399  1.0000
  H   H532      1.0  0.98759  0.82340  0.16798  1.0000
  H   H533      1.0  0.15901  0.77262  0.22960  1.0000
  C   C679      1.0  0.12979  0.72953  0.22820  1.0000
  H   H534      1.0  0.98543  0.79997  0.23197  1.0000
  H   H535      1.0  0.09774  0.68772  0.23089  1.0000
  H   H536      1.0  0.45884  0.65738  0.98271  1.0000
  C   C680      1.0  0.00202  0.87427  0.98296  1.0000
  Fe  Fe42      1.0  0.04128  0.83257  0.33224  1.0000
  S   S86       1.0  0.01000  0.82481  0.30312  1.0000
  S   S87       1.0  0.04665  0.79518  0.34510  1.0000
  Fe  Fe43      1.0  0.05971  0.89468  0.32895  1.0000
  S   S88       1.0  0.02970  0.89142  0.29951  1.0000
  H   H537      1.0  0.01001  0.76920  0.29810  1.0000
  C   C681      1.0  0.04396  0.69622  0.30138  1.0000
  Fe  Fe44      1.0  0.04289  0.86132  0.28421  1.0000
  C   C682      1.0  0.14137  0.77379  0.31409  1.0000
  S   S89       1.0  0.02836  0.86041  0.35145  1.0000
  S   S90       1.0  0.07534  0.86728  0.31215  1.0000
  C   C683      1.0  0.01967  0.94097  0.40703  1.0000
  Fe  Fe45      1.0  0.02628  0.69744  0.45330  1.0000
  C   C684      1.0  0.99508  0.70512  0.35517  1.0000
  S   S91       1.0  0.02604  0.73886  0.44760  1.0000
  Fe  Fe46      1.0  0.03392  0.65162  0.43108  1.0000
  C   C685      1.0  0.04348  0.75843  0.29477  1.0000
  S   S92       1.0  0.04256  0.64009  0.39512  1.0000
  C   C686      1.0  0.00260  0.60212  0.29398  1.0000
  C   C687      1.0  0.06257  0.54243  0.29145  1.0000
  H   H538      1.0  0.99475  0.67088  0.37540  1.0000
  S   S93       1.0  0.99765  0.66115  0.43174  1.0000
  S   S94       1.0  0.06368  0.68964  0.45076  1.0000
  H   H539      1.0  0.01470  0.91574  0.43822  1.0000
  H   H540      1.0  0.07263  0.61307  0.23667  1.0000
  H   H541      1.0  0.99121  0.73942  0.33885  1.0000
  C   C688      1.0  0.02797  0.60465  0.38860  1.0000
  C   C689      1.0  0.02368  0.59640  0.36491  1.0000
  C   C690      1.0  0.02780  0.67326  0.31550  1.0000
  C   C691      1.0  0.02625  0.76987  0.28680  1.0000
  C   C692      1.0  0.05262  0.78540  0.25083  1.0000
  H   H542      1.0  0.02902  0.61174  0.35093  1.0000
  S   S95       1.0  0.04521  0.85421  0.24502  1.0000
  C   C693      1.0  0.14008  0.97088  0.34273  1.0000
  C   C694      1.0  0.15300  0.83792  0.25204  1.0000
  Fe  Fe47      1.0  0.98717  0.63722  0.46587  1.0000
  C   C695      1.0  0.09443  0.71323  0.25832  1.0000
  S   S96       1.0  0.02137  0.62489  0.46365  1.0000
  H   H543      1.0  0.02355  0.65350  0.34968  1.0000
  C   C696      1.0  0.06568  0.76062  0.28091  1.0000
  C   C697      1.0  0.11265  0.96322  0.33548  1.0000
  H   H544      1.0  0.14476  0.95674  0.35345  1.0000
  C   C698      1.0  0.14752  0.83894  0.27600  1.0000
  H   H545      1.0  0.14660  0.75967  0.30469  1.0000
  C   C699      1.0  0.04100  0.78031  0.37389  1.0000
  C   C700      1.0  0.04693  0.75796  0.37840  1.0000
  C   C701      1.0  0.04192  0.74476  0.40073  1.0000
  C   C702      1.0  0.03158  0.75428  0.41900  1.0000
  C   C703      1.0  0.02596  0.77685  0.41459  1.0000
  C   C704      1.0  0.03042  0.78970  0.39207  1.0000
  H   H546      1.0  0.05532  0.75071  0.36450  1.0000
  H   H547      1.0  0.04643  0.72748  0.40393  1.0000
  H   H548      1.0  0.01809  0.78441  0.42867  1.0000
  H   H549      1.0  0.02587  0.80694  0.38884  1.0000
  H   H550      1.0  0.16108  0.83708  0.28953  1.0000
  S   S97       1.0  0.08591  0.93378  0.34875  1.0000
  C   C705      1.0  0.01851  0.63459  0.26114  1.0000
  C   C706      1.0  0.12424  0.69393  0.32798  1.0000
  C   C707      1.0  0.12875  0.76122  0.25716  1.0000
  H   H551      1.0  0.14526  0.66083  0.27927  1.0000
  C   C708      1.0  0.02928  0.60434  0.29690  1.0000
  C   C709      1.0  0.11278  0.84455  0.24129  1.0000
  H   H552      1.0  0.02465  0.59080  0.42486  1.0000
  C   C710      1.0  0.01547  0.94135  0.38246  1.0000
  H   H553      1.0  0.03826  0.94634  0.32899  1.0000
  H   H554      1.0  0.03694  0.69766  0.28355  1.0000
  H   H555      1.0  0.09504  0.73165  0.34181  1.0000
  H   H556      1.0  0.03321  0.59255  0.31082  1.0000
  C   C711      1.0  0.06882  0.71730  0.31033  1.0000
  C   C712      1.0  0.13505  0.65474  0.26222  1.0000
  C   C713      1.0  0.12832  0.80977  0.33963  1.0000
  C   C714      1.0  0.06024  0.69252  0.34801  1.0000
  H   H557      1.0  0.12212  0.61001  0.31567  1.0000
  S   S98       1.0  0.00815  0.51987  0.24699  1.0000
  S   S99       1.0  0.99276  0.51311  0.37047  1.0000
  C   C715      1.0  0.11520  0.77311  0.31095  1.0000
  C   C716      1.0  0.08422  0.59238  0.29462  1.0000
  C   C717      1.0  0.06330  0.56784  0.28538  1.0000
  H   H558      1.0  0.17300  0.67767  0.24298  1.0000
  P   P23       1.0  0.08901  0.74750  0.29226  1.0000
  C   C718      1.0  0.03634  0.92855  0.23579  1.0000
  C   C719      1.0  0.01111  0.91587  0.41933  1.0000
  H   H559      1.0  0.01353  0.70890  0.34550  1.0000
  H   H560      1.0  0.01834  0.79343  0.25920  1.0000
  H   H561      1.0  0.07773  0.61547  0.33773  1.0000
  H   H562      1.0  0.09303  0.90685  0.25522  1.0000
  H   H563      1.0  0.98617  0.58862  0.30564  1.0000
  C   C720      1.0  0.03608  0.67126  0.33870  1.0000
  H   H564      1.0  0.18109  0.79301  0.33211  1.0000
  H   H565      1.0  0.06120  0.65009  0.25213  1.0000
  C   C721      1.0  0.10550  0.73983  0.26786  1.0000
  H   H566      1.0  0.12473  0.69634  0.36607  1.0000
  C   C722      1.0  0.04517  0.63677  0.26404  1.0000
  C   C723      1.0  0.05070  0.62145  0.28182  1.0000
  C   C724      1.0  0.10057  0.65469  0.35420  1.0000
  C   C725      1.0  0.15091  0.66413  0.24170  1.0000
  C   C726      1.0  0.02110  0.58464  0.40658  1.0000
  H   H567      1.0  0.13690  0.71590  0.32547  1.0000
  C   C727      1.0  0.07657  0.71546  0.33395  1.0000
  C   C728      1.0  0.09830  0.64805  0.31168  1.0000
  P   P24       1.0  0.08537  0.62524  0.28674  1.0000
  C   C729      1.0  0.08296  0.54137  0.30641  1.0000
  H   H568      1.0  0.12291  0.82337  0.34975  1.0000
  H   H569      1.0  0.12056  0.84403  0.30102  1.0000
  C   C730      1.0  0.10737  0.84550  0.26516  1.0000
  C   C731      1.0  0.16094  0.79257  0.32970  1.0000
  H   H570      1.0  0.08888  0.79102  0.32200  1.0000
  H   H571      1.0  0.08969  0.84849  0.27007  1.0000
  C   C732      1.0  0.10522  0.59126  0.30901  1.0000
  H   H572      1.0  0.04019  0.74903  0.31225  1.0000
  C   C733      1.0  0.01042  0.55658  0.40085  1.0000
  C   C734      1.0  0.11424  0.67665  0.30840  1.0000
  C   C735      1.0  0.11746  0.68295  0.35087  1.0000
  C   C736      1.0  0.09100  0.63730  0.33472  1.0000
  H   H573      1.0  0.16937  0.82485  0.35485  1.0000
  C   C737      1.0  0.10888  0.79122  0.32388  1.0000
  C   C738      1.0  0.10440  0.56580  0.31508  1.0000
  H   H574      1.0  0.11890  0.68564  0.29081  1.0000
  C   C739      1.0  0.10638  0.63729  0.26056  1.0000
  C   C740      1.0  0.12473  0.84281  0.28253  1.0000
  H   H575      1.0  0.09456  0.64624  0.37191  1.0000
  H   H576      1.0  0.04747  0.56822  0.27351  1.0000
  C   C741      1.0  0.10653  0.70814  0.23855  1.0000
  H   H577      1.0  0.13546  0.98455  0.24868  1.0000
  C   C742      1.0  0.15439  0.81052  0.34251  1.0000
  C   C743      1.0  0.00591  0.54835  0.37716  1.0000
  C   C744      1.0  0.09131  0.90395  0.23627  1.0000
  C   C745      1.0  0.00685  0.98962  0.38154  1.0000
  H   H578      1.0  0.04621  0.52350  0.28442  1.0000
  C   C746      1.0  0.13558  0.84065  0.23450  1.0000
  H   H579      1.0  0.13727  0.78202  0.26379  1.0000
  H   H580      1.0  0.17092  0.83528  0.24737  1.0000
  C   C747      1.0  0.09431  0.62786  0.23826  1.0000
  H   H581      1.0  0.00327  0.96860  0.26828  1.0000
  H   H582      1.0  0.08218  0.52158  0.31112  1.0000
  H   H583      1.0  0.08726  0.77663  0.24793  1.0000
  H   H584      1.0  0.07212  0.96519  0.38775  1.0000
  H   H585      1.0  0.99094  0.56422  0.24530  1.0000
  C   C748      1.0  0.01729  0.97113  0.33610  1.0000
  C   C749      1.0  0.01233  0.56829  0.35923  1.0000
  Fe  Fe48      1.0  0.99957  0.85536  0.32074  1.0000
  C   C750      1.0  0.00205  0.91623  0.37051  1.0000
  H   H586      1.0  0.00894  0.56194  0.34103  1.0000
  C   C751      1.0  0.07006  0.77410  0.25879  1.0000
  C   C752      1.0  0.00742  0.96942  0.28708  1.0000
  C   C753      1.0  0.08031  0.98588  0.38037  1.0000
  H   H587      1.0  0.00571  0.54122  0.41477  1.0000
  C   C754      1.0  0.02154  0.95558  0.29709  1.0000
  C   C755      1.0  0.99718  0.61707  0.27594  1.0000
  C   C756      1.0  0.02674  0.95667  0.32149  1.0000
  H   H588      1.0  0.02868  0.94421  0.28594  1.0000
  H   H589      1.0  0.06627  0.69115  0.36623  1.0000
  H   H590      1.0  0.01260  0.88466  0.23795  1.0000
  H   H591      1.0  0.07641  0.69644  0.26591  1.0000
  H   H592      1.0  0.12037  0.56495  0.32648  1.0000
  C   C757      1.0  0.03094  0.78352  0.26493  1.0000
  H   H593      1.0  0.05546  0.92813  0.24133  1.0000
  C   C758      1.0  0.14100  0.75602  0.23762  1.0000
  P   P25       1.0  0.02583  0.97412  0.36731  1.0000
  C   C759      1.0  0.99790  0.89096  0.40722  1.0000
  H   H594      1.0  0.01428  0.64595  0.24695  1.0000
  C   C760      1.0  0.00381  0.98564  0.32575  1.0000
  H   H595      1.0  0.00873  0.65707  0.30862  1.0000
  H   H596      1.0  0.99818  0.49285  0.47693  1.0000
  H   H597      1.0  0.02968  0.96015  0.41662  1.0000
  H   H598      1.0  0.05509  0.97275  0.23260  1.0000
  H   H599      1.0  0.05645  0.79658  0.23412  1.0000
  C   C761      1.0  0.01189  0.90383  0.23374  1.0000
  H   H600      1.0  0.99817  0.91575  0.35175  1.0000
  C   C762      1.0  0.99323  0.89116  0.38286  1.0000
  H   H601      1.0  0.08551  0.97682  0.31722  1.0000
  C   C763      1.0  0.10667  0.98212  0.32230  1.0000
  H   H602      1.0  0.99128  0.87149  0.41667  1.0000
  C   C764      1.0  0.99894  0.98475  0.30135  1.0000
  C   C765      1.0  0.02223  0.56214  0.55183  1.0000
  Fe  Fe49      1.0  0.19675  0.70894  0.61134  1.0000
  S   S100      1.0  0.20097  0.72812  0.64735  1.0000
  S   S101      1.0  0.18036  0.72226  0.57827  1.0000
  Fe  Fe50      1.0  0.22450  0.67366  0.62900  1.0000
  S   S102      1.0  0.23116  0.69011  0.66565  1.0000
  S   S103      1.0  0.23496  0.63885  0.62205  1.0000
  Fe  Fe51      1.0  0.18768  0.68491  0.66163  1.0000
  S   S104      1.0  0.15929  0.65789  0.69015  1.0000
  Fe  Fe52      1.0  0.24432  0.73158  0.64854  1.0000
  S   S105      1.0  0.28466  0.76953  0.65806  1.0000
  S   S106      1.0  0.18018  0.66577  0.62574  1.0000
  S   S107      1.0  0.24112  0.71544  0.61161  1.0000
  H   H603      1.0  0.45727  0.80006  0.64313  1.0000
  C   C766      1.0  0.43602  0.52006  0.61374  1.0000
  C   C767      1.0  0.01674  0.63137  0.65657  1.0000
  S   S108      1.0  0.42383  0.56146  0.70738  1.0000
  H   H604      1.0  0.01732  0.70526  0.70251  1.0000
  C   C768      1.0  0.41986  0.53109  0.69391  1.0000
  H   H605      1.0  0.36195  0.53337  0.70457  1.0000
  S   S109      1.0  0.06799  0.65668  0.51833  1.0000
  C   C769      1.0  0.43775  0.51965  0.69988  1.0000
  H   H606      1.0  0.38477  0.52682  0.67232  1.0000
  C   C770      1.0  0.06968  0.50945  0.70789  1.0000
  H   H607      1.0  0.45404  0.52935  0.71292  1.0000
  H   H608      1.0  0.46988  0.62925  0.69820  1.0000
  C   C771      1.0  0.24965  0.53493  0.66760  1.0000
  C   C772      1.0  0.48401  0.84980  0.59813  1.0000
  C   C773      1.0  0.29075  0.75556  0.70463  1.0000
  C   C774      1.0  0.30275  0.77342  0.68540  1.0000
  C   C775      1.0  0.33018  0.79443  0.68761  1.0000
  C   C776      1.0  0.34555  0.79752  0.70876  1.0000
  H   H609      1.0  0.36643  0.81407  0.71043  1.0000
  H   H610      1.0  0.26966  0.73933  0.70320  1.0000
  H   H611      1.0  0.33952  0.80841  0.67288  1.0000
  Fe  Fe53      1.0  0.04801  0.66362  0.48407  1.0000
  C   C777      1.0  0.13635  0.66631  0.70552  1.0000
  C   C778      1.0  0.22153  0.55013  0.60790  1.0000
  H   H612      1.0  0.43011  0.49869  0.58093  1.0000
  H   H613      1.0  0.98541  0.65194  0.61873  1.0000
  C   C779      1.0  0.13437  0.69076  0.70088  1.0000
  P   P26       1.0  0.40487  0.65444  0.72470  1.0000
  C   C780      1.0  0.16914  0.50635  0.64521  1.0000
  H   H614      1.0  0.14793  0.70555  0.68809  1.0000
  C   C781      1.0  0.24613  0.62995  0.64881  1.0000
  C   C782      1.0  0.23324  0.60276  0.65737  1.0000
  C   C783      1.0  0.24214  0.59581  0.67885  1.0000
  C   C784      1.0  0.26435  0.61584  0.69163  1.0000
  C   C785      1.0  0.27762  0.64292  0.68273  1.0000
  C   C786      1.0  0.26794  0.65007  0.66174  1.0000
  H   H615      1.0  0.21573  0.58732  0.64785  1.0000
  H   H616      1.0  0.23182  0.57493  0.68540  1.0000
  H   H617      1.0  0.27736  0.67110  0.65536  1.0000
  C   C787      1.0  0.10001  0.67510  0.53396  1.0000
  C   C788      1.0  0.10546  0.66259  0.55412  1.0000
  C   C789      1.0  0.12988  0.67661  0.56785  1.0000
  C   C790      1.0  0.14932  0.70339  0.56149  1.0000
  C   C791      1.0  0.14394  0.71586  0.54125  1.0000
  C   C792      1.0  0.11952  0.70181  0.52749  1.0000
  H   H618      1.0  0.09069  0.64187  0.55909  1.0000
  H   H619      1.0  0.13368  0.66673  0.58334  1.0000
  H   H620      1.0  0.15880  0.73657  0.53615  1.0000
  H   H621      1.0  0.11574  0.71175  0.51203  1.0000
  C   C793      1.0  0.47067  0.53370  0.58326  1.0000
  C   C794      1.0  0.32151  0.72190  0.66799  1.0000
  C   C795      1.0  0.33759  0.71883  0.68634  1.0000
  C   C796      1.0  0.35661  0.70881  0.68154  1.0000
  H   H622      1.0  0.29796  0.74149  0.54434  1.0000
  H   H623      1.0  0.30595  0.72855  0.67166  1.0000
  H   H624      1.0  0.33505  0.72403  0.70424  1.0000
  H   H625      1.0  0.36900  0.70625  0.69569  1.0000
  C   C797      1.0  0.33627  0.74434  0.55926  1.0000
  C   C798      1.0  0.40463  0.88054  0.70035  1.0000
  H   H626      1.0  0.28724  0.60045  0.64114  1.0000
  H   H627      1.0  0.05564  0.53169  0.73114  1.0000
  C   C799      1.0  0.99705  0.57311  0.51199  1.0000
  C   C800      1.0  0.02289  0.53690  0.68084  1.0000
  C   C801      1.0  0.30590  0.61698  0.58369  1.0000
  C   C802      1.0  0.34455  0.79646  0.59588  1.0000
  H   H628      1.0  0.32369  0.76634  0.62315  1.0000
  H   H629      1.0  0.98623  0.54304  0.68024  1.0000
  C   C803      1.0  0.34838  0.73309  0.57553  1.0000
  H   H630      1.0  0.42899  0.74327  0.70139  1.0000
  C   C804      1.0  0.30606  0.75875  0.72580  1.0000
  C   C805      1.0  0.38883  0.87291  0.67947  1.0000
  H   H631      1.0  0.06802  0.72253  0.70764  1.0000
  P   P27       1.0  0.07074  0.52941  0.68161  1.0000
  C   C806      1.0  0.02082  0.57715  0.69605  1.0000
  C   C807      1.0  0.06445  0.51297  0.63436  1.0000
  C   C808      1.0  0.32222  0.64548  0.58591  1.0000
  H   H632      1.0  0.26693  0.51171  0.71288  1.0000
  C   C809      1.0  0.99192  0.64478  0.60346  1.0000
  C   C810      1.0  0.40243  0.73334  0.61190  1.0000
  H   H633      1.0  0.45023  0.65017  0.66850  1.0000
  H   H634      1.0  0.31872  0.55483  0.63514  1.0000
  C   C811      1.0  0.26297  0.49279  0.70407  1.0000
  C   C812      1.0  0.29944  0.54968  0.64406  1.0000
  H   H635      1.0  0.41159  0.84586  0.59849  1.0000
  C   C813      1.0  0.34330  0.78289  0.61739  1.0000
  H   H636      1.0  0.37862  0.66754  0.59188  1.0000
  H   H637      1.0  0.02413  0.58965  0.61858  1.0000
  C   C814      1.0  0.39858  0.51806  0.67723  1.0000
  C   C815      1.0  0.16835  0.76713  0.61908  1.0000
  C   C816      1.0  0.17169  0.79112  0.63029  1.0000
  C   C817      1.0  0.14857  0.79282  0.63918  1.0000
  C   C818      1.0  0.12215  0.77041  0.63702  1.0000
  C   C819      1.0  0.11883  0.74589  0.62650  1.0000
  C   C820      1.0  0.14202  0.74463  0.61708  1.0000
  P   P28       1.0  0.08472  0.71745  0.62268  1.0000
  C   C821      1.0  0.07177  0.72428  0.59485  1.0000
  C   C822      1.0  0.08707  0.68531  0.62304  1.0000
  C   C823      1.0  0.10395  0.68082  0.64005  1.0000
  C   C824      1.0  0.10565  0.65589  0.64078  1.0000
  C   C825      1.0  0.09053  0.63525  0.62454  1.0000
  C   C826      1.0  0.07332  0.63936  0.60781  1.0000
  C   C827      1.0  0.07134  0.66415  0.60722  1.0000
  C   C828      1.0  0.05562  0.73855  0.59415  1.0000
  C   C829      1.0  0.04594  0.74402  0.57248  1.0000
  C   C830      1.0  0.05278  0.73578  0.55137  1.0000
  C   C831      1.0  0.06976  0.72259  0.55188  1.0000
  C   C832      1.0  0.07964  0.71730  0.57348  1.0000
  C   C833      1.0  0.06334  0.71469  0.64770  1.0000
  C   C834      1.0  0.07529  0.72110  0.67044  1.0000
  C   C835      1.0  0.05873  0.71790  0.69006  1.0000
  C   C836      1.0  0.03009  0.70806  0.68717  1.0000
  C   C837      1.0  0.01793  0.70110  0.66467  1.0000
  C   C838      1.0  0.03445  0.70415  0.64502  1.0000
  H   H638      1.0  0.18617  0.76594  0.61174  1.0000
  H   H639      1.0  0.19218  0.80845  0.63187  1.0000
  H   H640      1.0  0.15113  0.81157  0.64758  1.0000
  H   H641      1.0  0.10438  0.77226  0.64357  1.0000
  H   H642      1.0  0.13980  0.72636  0.60804  1.0000
  H   H643      1.0  0.11600  0.69668  0.65266  1.0000
  H   H644      1.0  0.11900  0.65276  0.65382  1.0000
  H   H645      1.0  0.09244  0.61627  0.62480  1.0000
  H   H646      1.0  0.06187  0.62362  0.59494  1.0000
  H   H647      1.0  0.05773  0.66673  0.59425  1.0000
  H   H648      1.0  0.05080  0.74583  0.61025  1.0000
  H   H649      1.0  0.03343  0.75497  0.57199  1.0000
  H   H650      1.0  0.04539  0.74007  0.53454  1.0000
  H   H651      1.0  0.07549  0.71665  0.53547  1.0000
  H   H652      1.0  0.09355  0.70789  0.57343  1.0000
  H   H653      1.0  0.09737  0.72822  0.67313  1.0000
  H   H654      1.0  0.11551  0.57921  0.73217  1.0000
  H   H655      1.0  0.22737  0.55952  0.62511  1.0000
  H   H656      1.0  0.47596  0.81875  0.71784  1.0000
  H   H657      1.0  0.02467  0.69806  0.62785  1.0000
  C   C839      1.0  0.41534  0.84963  0.66648  1.0000
  C   C840      1.0  0.43112  0.85743  0.68751  1.0000
  C   C841      1.0  0.42584  0.87293  0.70429  1.0000
  C   C842      1.0  0.34831  0.53210  0.71876  1.0000
  C   C843      1.0  0.99627  0.60848  0.58261  1.0000
  C   C844      1.0  0.39419  0.85761  0.66253  1.0000
  H   H658      1.0  0.39055  0.79563  0.68653  1.0000
  H   H659      1.0  0.44732  0.85126  0.69110  1.0000
  H   H660      1.0  0.03198  0.55818  0.56736  1.0000
  C   C845      1.0  0.01333  0.54647  0.62108  1.0000
  H   H661      1.0  0.27504  0.56102  0.69551  1.0000
  H   H662      1.0  0.38139  0.85167  0.64667  1.0000
  H   H663      1.0  0.44266  0.81708  0.60217  1.0000
  H   H664      1.0  0.05051  0.65916  0.67878  1.0000
  H   H665      1.0  0.08600  0.58361  0.70231  1.0000
  C   C846      1.0  0.36687  0.79149  0.63199  1.0000
  H   H666      1.0  0.34928  0.76225  0.54865  1.0000
  C   C847      1.0  0.29359  0.60069  0.60362  1.0000
  C   C848      1.0  0.99340  0.54796  0.54870  1.0000
  C   C849      1.0  0.03850  0.58139  0.53485  1.0000
  C   C850      1.0  0.43975  0.67652  0.71512  1.0000
  C   C851      1.0  0.44433  0.69582  0.69672  1.0000
  H   H667      1.0  0.06086  0.59261  0.53713  1.0000
  C   C852      1.0  0.05172  0.49454  0.61587  1.0000
  H   H668      1.0  0.31906  0.57382  0.67490  1.0000
  H   H669      1.0  0.28061  0.57870  0.60183  1.0000
  C   C853      1.0  0.42290  0.80007  0.66239  1.0000
  C   C854      1.0  0.39032  0.63181  0.69985  1.0000
  C   C855      1.0  0.39999  0.61250  0.69487  1.0000
  C   C856      1.0  0.39189  0.59733  0.67403  1.0000
  C   C857      1.0  0.37475  0.60193  0.65760  1.0000
  C   C858      1.0  0.36538  0.62148  0.66217  1.0000
  C   C859      1.0  0.37306  0.63635  0.68322  1.0000
  H   H670      1.0  0.22521  0.58759  0.59106  1.0000
  C   C860      1.0  0.33356  0.77962  0.72794  1.0000
  C   C861      1.0  0.44241  0.79064  0.65707  1.0000
  H   H671      1.0  0.03871  0.60163  0.50187  1.0000
  C   C862      1.0  0.01209  0.64004  0.69767  1.0000
  H   H672      1.0  0.42726  0.69881  0.68926  1.0000
  H   H673      1.0  0.44740  0.54508  0.64479  1.0000
  C   C863      1.0  0.11924  0.64754  0.72253  1.0000
  H   H674      1.0  0.30236  0.60757  0.56644  1.0000
  H   H675      1.0  0.39547  0.74739  0.61924  1.0000
  H   H676      1.0  0.02122  0.65064  0.71405  1.0000
  H   H677      1.0  0.41446  0.60963  0.70682  1.0000
  H   H678      1.0  0.39952  0.58243  0.67043  1.0000
  H   H679      1.0  0.36891  0.59043  0.64130  1.0000
  H   H680      1.0  0.35225  0.62514  0.64934  1.0000
  H   H681      1.0  0.36611  0.65186  0.68608  1.0000
  C   C864      1.0  0.00781  0.62650  0.56339  1.0000
  C   C865      1.0  0.30255  0.69816  0.58660  1.0000
  C   C866      1.0  0.47447  0.87149  0.63938  1.0000
  C   C867      1.0  0.05124  0.54831  0.68671  1.0000
  C   C868      1.0  0.10578  0.55397  0.67413  1.0000
  C   C869      1.0  0.11029  0.57692  0.65969  1.0000
  C   C870      1.0  0.13723  0.59630  0.65401  1.0000
  C   C871      1.0  0.15996  0.59296  0.66257  1.0000
  C   C872      1.0  0.15570  0.57011  0.67687  1.0000
  C   C873      1.0  0.12869  0.55070  0.68265  1.0000
  H   H682      1.0  0.33106  0.65797  0.57022  1.0000
  C   C874      1.0  0.02857  0.64486  0.67773  1.0000
  C   C875      1.0  0.30738  0.73265  0.55679  1.0000
  C   C876      1.0  0.06423  0.57441  0.69728  1.0000
  C   C877      1.0  0.27420  0.53195  0.63333  1.0000
  C   C878      1.0  0.43088  0.74229  0.60886  1.0000
  C   C879      1.0  0.44393  0.76957  0.67066  1.0000
  H   H683      1.0  0.26813  0.70054  0.56865  1.0000
  C   C880      1.0  0.27484  0.55305  0.67807  1.0000
  C   C881      1.0  0.45838  0.83623  0.60938  1.0000
  H   H684      1.0  0.30067  0.51116  0.68385  1.0000
  H   H685      1.0  0.09300  0.58012  0.65314  1.0000
  H   H686      1.0  0.14055  0.61435  0.64351  1.0000
  H   H687      1.0  0.18085  0.60843  0.65845  1.0000
  H   H688      1.0  0.17331  0.56781  0.68409  1.0000
  H   H689      1.0  0.12591  0.53346  0.69404  1.0000
  H   H690      1.0  0.21007  0.62447  0.69480  1.0000
  H   H691      1.0  0.21249  0.56680  0.55116  1.0000
  C   C882      1.0  0.38315  0.70640  0.60560  1.0000
  H   H692      1.0  0.03390  0.54946  0.61658  1.0000
  H   H693      1.0  0.42872  0.68370  0.58661  1.0000
  C   C883      1.0  0.47081  0.62588  0.67951  1.0000
  C   C884      1.0  0.00792  0.55154  0.68517  1.0000
  C   C885      1.0  0.24912  0.52402  0.64522  1.0000
  H   H694      1.0  0.29468  0.65861  0.69254  1.0000
  H   H695      1.0  0.36493  0.78121  0.64893  1.0000
  C   C886      1.0  0.29970  0.56029  0.66640  1.0000
  C   C887      1.0  0.02592  0.58662  0.51490  1.0000
  C   C888      1.0  0.39294  0.82771  0.60366  1.0000
  H   H696      1.0  0.37016  0.82963  0.57247  1.0000
  H   H697      1.0  0.39446  0.75986  0.71102  1.0000
  C   C889      1.0  0.98890  0.61772  0.60306  1.0000
  C   C890      1.0  0.39283  0.68850  0.59656  1.0000
  H   H698      1.0  0.46241  0.73139  0.59751  1.0000
  H   H699      1.0  0.31671  0.65018  0.64544  1.0000
  C   C891      1.0  0.04903  0.58878  0.70180  1.0000
  C   C892      1.0  0.21516  0.52227  0.60508  1.0000
  C   C893      1.0  0.31423  0.64129  0.62811  1.0000
  C   C894      1.0  0.38575  0.67330  0.73134  1.0000
  H   H700      1.0  0.34470  0.56831  0.70732  1.0000
  C   C895      1.0  0.35971  0.70213  0.65844  1.0000
  H   H701      1.0  0.99563  0.69291  0.66259  1.0000
  C   C896      1.0  0.32460  0.71541  0.64487  1.0000
  C   C897      1.0  0.14794  0.50167  0.66111  1.0000
  H   H702      1.0  0.32601  0.79003  0.58491  1.0000
  C   C898      1.0  0.22047  0.56610  0.58857  1.0000
  H   H703      1.0  0.37442  0.69421  0.65508  1.0000
  H   H704      1.0  0.28907  0.68037  0.59719  1.0000
  H   H705      1.0  0.37210  0.87849  0.67658  1.0000
  P   P29       1.0  0.42109  0.82796  0.64570  1.0000
  C   C899      1.0  0.40534  0.78837  0.68172  1.0000
  C   C900      1.0  0.34360  0.70529  0.63993  1.0000
  H   H706      1.0  0.31131  0.71747  0.63123  1.0000
  C   C901      1.0  0.11479  0.69601  0.71295  1.0000
  C   C902      1.0  0.42132  0.69753  0.59365  1.0000
  C   C903      1.0  0.29056  0.70957  0.57044  1.0000
  C   C904      1.0  0.40738  0.76782  0.69560  1.0000
  C   C905      1.0  0.33158  0.70992  0.58935  1.0000
  C   C906      1.0  0.47276  0.61620  0.63142  1.0000
  H   H707      1.0  0.02978  0.63553  0.64130  1.0000
  C   C907      1.0  0.36940  0.81875  0.58894  1.0000
  P   P30       1.0  0.34656  0.69491  0.61050  1.0000
  C   C908      1.0  0.39198  0.81393  0.62520  1.0000
  C   C909      1.0  0.45344  0.84690  0.63020  1.0000
  C   C910      1.0  0.29758  0.61287  0.62578  1.0000
  C   C911      1.0  0.32666  0.65785  0.60818  1.0000
  H   H708      1.0  0.37074  0.74256  0.57718  1.0000
  C   C912      1.0  0.42659  0.75833  0.69004  1.0000
  C   C913      1.0  0.00775  0.56919  0.62219  1.0000
  P   P31       1.0  0.21656  0.50240  0.63063  1.0000
  H   H709      1.0  0.44572  0.76309  0.61357  1.0000
  C   C914      1.0  0.46017  0.63225  0.63876  1.0000
  C   C915      1.0  0.05466  0.50579  0.65755  1.0000
  H   H710      1.0  0.23077  0.52954  0.67716  1.0000
  H   H711      1.0  0.00879  0.58771  0.70040  1.0000
  H   H712      1.0  0.99997  0.50279  0.72675  1.0000
  H   H713      1.0  0.34522  0.63764  0.72905  1.0000
  H   H714      1.0  0.98760  0.57826  0.49681  1.0000
  H   H715      1.0  0.11339  0.71499  0.70956  1.0000
  H   H716      1.0  0.12107  0.62883  0.72643  1.0000
  C   C916      1.0  0.00290  0.66255  0.58397  1.0000
  H   H717      1.0  0.01981  0.66721  0.54893  1.0000
  C   C917      1.0  0.44032  0.72440  0.59978  1.0000
  C   C918      1.0  0.21333  0.55440  0.56615  1.0000
  C   C919      1.0  0.20733  0.52675  0.56309  1.0000
  H   H718      1.0  0.40028  0.89210  0.71363  1.0000
  C   C920      1.0  0.20826  0.51069  0.58248  1.0000
  C   C921      1.0  0.33856  0.55180  0.72031  1.0000
  H   H719      1.0  0.05903  0.60881  0.71008  1.0000
  H   H720      1.0  0.43792  0.87868  0.72059  1.0000
  C   C922      1.0  0.18801  0.49561  0.65002  1.0000
  S   S110      1.0  0.01271  0.67432  0.48805  1.0000
  H   H721      1.0  0.20195  0.51774  0.54567  1.0000
  C   C923      1.0  0.45413  0.54217  0.62759  1.0000
  H   H722      1.0  0.00506  0.68336  0.58423  1.0000
  H   H723      1.0  0.17072  0.51845  0.62938  1.0000
  H   H724      1.0  0.01402  0.61961  0.54775  1.0000
  C   C924      1.0  0.44427  0.51580  0.59161  1.0000
  H   H725      1.0  0.08199  0.53264  0.63046  1.0000
  C   C925      1.0  0.01104  0.65346  0.56402  1.0000
  H   H726      1.0  0.05952  0.50009  0.59804  1.0000
  C   C926      1.0  0.99245  0.51993  0.62613  1.0000
  C   C927      1.0  0.48087  0.56001  0.61953  1.0000
  H   H727      1.0  0.45981  0.76324  0.66707  1.0000
  H   H728      1.0  0.47694  0.53049  0.56600  1.0000
  C   C928      1.0  0.46204  0.67224  0.72380  1.0000
  C   C929      1.0  0.47095  0.71092  0.68745  1.0000
  H   H729      1.0  0.41559  0.50609  0.62027  1.0000
  C   C930      1.0  0.18848  0.61744  0.72771  1.0000
  H   H730      1.0  0.47462  0.72594  0.67335  1.0000
  H   H731      1.0  0.27425  0.52412  0.61589  1.0000
  C   C931      1.0  0.28211  0.49240  0.68772  1.0000
  H   H732      1.0  0.25162  0.66553  0.70902  1.0000
  C   C932      1.0  0.06119  0.51502  0.72956  1.0000
  S   S111      1.0  0.20490  0.53773  0.72042  1.0000
  H   H733      1.0  0.47362  0.61279  0.61273  1.0000
  C   C933      1.0  0.23441  0.65450  0.72074  1.0000
  C   C934      1.0  0.21094  0.63137  0.71271  1.0000
  S   S112      1.0  0.27561  0.60768  0.71880  1.0000
  H   H734      1.0  0.17015  0.59970  0.72141  1.0000
  H   H735      1.0  0.47147  0.88024  0.65536  1.0000
  H   H736      1.0  0.01213  0.51670  0.67311  1.0000
  C   C935      1.0  0.45956  0.63741  0.66279  1.0000
  H   H737      1.0  0.45128  0.64103  0.62582  1.0000
  H   H738      1.0  0.13350  0.51003  0.65733  1.0000
  H   H739      1.0  0.99282  0.58736  0.58128  1.0000
  C   C936      1.0  0.98843  0.61244  0.65534  1.0000
  C   C937      1.0  0.09716  0.67681  0.72952  1.0000
  C   C938      1.0  0.39480  0.49329  0.66703  1.0000
  C   C939      1.0  0.48347  0.60995  0.67220  1.0000
  C   C940      1.0  0.43452  0.49536  0.68908  1.0000
  H   H740      1.0  0.99670  0.50230  0.62539  1.0000
  H   H741      1.0  0.48463  0.53194  0.66063  1.0000
  S   S113      1.0  0.27066  0.62690  0.94699  1.0000
  Fe  Fe54      1.0  0.22750  0.62027  0.93777  1.0000
  S   S114      1.0  0.20666  0.60920  0.90151  1.0000
  H   H742      1.0  0.16983  0.89848  0.96057  1.0000
  S   S115      1.0  0.39788  0.54544  0.95362  1.0000
  P   P32       1.0  0.44154  0.64460  0.90153  1.0000
  H   H743      1.0  0.42241  0.71207  0.73734  1.0000
  H   H744      1.0  0.45329  0.62609  0.85659  1.0000
  H   H745      1.0  0.31026  0.74151  0.78513  1.0000
  H   H746      1.0  0.08931  0.67833  0.84678  1.0000
  C   C941      1.0  0.24361  0.56895  0.86817  1.0000
  S   S116      1.0  0.41247  0.77830  0.78430  1.0000
  Fe  Fe55      1.0  0.43743  0.81539  0.80627  1.0000
  S   S117      1.0  0.43701  0.81384  0.84620  1.0000
  Fe  Fe56      1.0  0.45743  0.85367  0.76362  1.0000
  S   S118      1.0  0.42077  0.84190  0.78753  1.0000
  C   C942      1.0  0.46588  0.78299  0.85079  1.0000
  H   H747      1.0  0.16606  0.68888  0.88028  1.0000
  S   S119      1.0  0.21796  0.57681  0.76739  1.0000
  Fe  Fe57      1.0  0.04405  0.64752  0.76737  1.0000
  S   S120      1.0  0.05786  0.63900  0.80297  1.0000
  H   H748      1.0  0.09863  0.96685  0.88915  1.0000
  Fe  Fe58      1.0  0.03734  0.59485  0.79141  1.0000
  S   S121      1.0  0.05677  0.56658  0.80148  1.0000
  H   H749      1.0  0.40655  0.52312  0.80789  1.0000
  H   H750      1.0  0.19081  0.70887  0.84320  1.0000
  H   H751      1.0  0.45840  0.51376  0.86739  1.0000
  C   C943      1.0  0.12329  0.55576  0.75987  1.0000
  C   C944      1.0  0.11722  0.54589  0.78313  1.0000
  C   C945      1.0  0.09750  0.55026  0.79594  1.0000
  C   C946      1.0  0.08404  0.56489  0.78580  1.0000
  C   C947      1.0  0.09135  0.57621  0.76305  1.0000
  H   H752      1.0  0.12653  0.53357  0.79078  1.0000
  H   H753      1.0  0.09209  0.54155  0.81358  1.0000
  H   H754      1.0  0.08129  0.58767  0.75509  1.0000
  H   H755      1.0  0.02249  0.53331  0.76095  1.0000
  C   C948      1.0  0.45088  0.54330  0.84646  1.0000
  H   H756      1.0  0.16536  0.71445  0.80809  1.0000
  C   C949      1.0  0.40652  0.69625  0.93866  1.0000
  C   C950      1.0  0.00507  0.66783  0.86833  1.0000
  C   C951      1.0  0.45345  0.79730  0.88702  1.0000
  C   C952      1.0  0.45313  0.79674  0.86222  1.0000
  Fe  Fe59      1.0  0.46474  0.58002  0.78943  1.0000
  C   C953      1.0  0.30361  0.53319  0.95927  1.0000
  H   H757      1.0  0.45953  0.57260  0.94262  1.0000
  H   H758      1.0  0.44346  0.80777  0.89594  1.0000
  S   S122      1.0  0.99003  0.73427  0.90680  1.0000
  H   H759      1.0  0.39634  0.73701  0.74872  1.0000
  H   H760      1.0  0.16318  0.62864  0.95859  1.0000
  H   H761      1.0  0.33561  0.56514  0.86775  1.0000
  C   C954      1.0  0.21561  0.59082  0.88072  1.0000
  C   C955      1.0  0.20212  0.58502  0.85853  1.0000
  C   C956      1.0  0.20955  0.57155  0.84110  1.0000
  H   H762      1.0  0.18606  0.59126  0.85473  1.0000
  H   H763      1.0  0.19920  0.56745  0.82402  1.0000
  H   H764      1.0  0.11461  0.69912  0.81003  1.0000
  H   H765      1.0  0.28521  0.54282  0.92848  1.0000
  H   H766      1.0  0.26404  0.56712  0.95096  1.0000
  C   C957      1.0  0.42011  0.70558  0.91718  1.0000
  C   C958      1.0  0.41921  0.54421  0.88478  1.0000
  C   C959      1.0  0.33801  0.61388  0.78964  1.0000
  C   C960      1.0  0.31831  0.59200  0.80284  1.0000
  C   C961      1.0  0.31121  0.59681  0.82525  1.0000
  C   C962      1.0  0.32329  0.62347  0.83433  1.0000
  C   C963      1.0  0.34377  0.64544  0.82154  1.0000
  C   C964      1.0  0.35084  0.64050  0.79898  1.0000
  P   P33       1.0  0.35883  0.68022  0.83269  1.0000
  C   C965      1.0  0.34335  0.69951  0.81745  1.0000
  C   C966      1.0  0.35339  0.67950  0.86430  1.0000
  C   C967      1.0  0.34311  0.69645  0.87434  1.0000
  C   C968      1.0  0.33813  0.69500  0.89860  1.0000
  C   C969      1.0  0.34313  0.67655  0.91305  1.0000
  C   C970      1.0  0.35321  0.65954  0.90327  1.0000
  C   C971      1.0  0.35834  0.66100  0.87907  1.0000
  C   C972      1.0  0.35524  0.72833  0.81976  1.0000
  C   C973      1.0  0.34319  0.74333  0.80821  1.0000
  C   C974      1.0  0.31934  0.72974  0.79423  1.0000
  C   C975      1.0  0.30764  0.70117  0.79156  1.0000
  C   C976      1.0  0.31968  0.68609  0.80300  1.0000
  C   C977      1.0  0.39554  0.69624  0.82632  1.0000
  C   C978      1.0  0.40523  0.71124  0.80514  1.0000
  C   C979      1.0  0.41467  0.69362  0.84205  1.0000
  H   H767      1.0  0.34306  0.61025  0.77206  1.0000
  H   H768      1.0  0.30805  0.57138  0.79562  1.0000
  H   H769      1.0  0.29579  0.57995  0.83546  1.0000
  H   H770      1.0  0.31619  0.62669  0.85119  1.0000
  H   H771      1.0  0.36581  0.65728  0.78840  1.0000
  H   H772      1.0  0.33858  0.71068  0.86370  1.0000
  H   H773      1.0  0.33019  0.70811  0.90631  1.0000
  H   H774      1.0  0.33918  0.67556  0.93185  1.0000
  H   H775      1.0  0.35729  0.64541  0.91452  1.0000
  H   H776      1.0  0.36571  0.64731  0.87186  1.0000
  H   H777      1.0  0.37379  0.73924  0.83054  1.0000
  H   H778      1.0  0.35256  0.76562  0.80984  1.0000
  H   H779      1.0  0.28933  0.69074  0.78052  1.0000
  H   H780      1.0  0.31049  0.66406  0.80044  1.0000
  H   H781      1.0  0.39098  0.71360  0.79269  1.0000
  H   H782      1.0  0.40798  0.68231  0.85847  1.0000
  C   C980      1.0  0.00635  0.95660  0.89457  1.0000
  H   H783      1.0  0.39610  0.59650  0.92371  1.0000
  H   H784      1.0  0.32748  0.63429  0.95822  1.0000
  C   C981      1.0  0.18928  0.62676  0.75068  1.0000
  C   C982      1.0  0.21254  0.65046  0.75862  1.0000
  C   C983      1.0  0.23536  0.66387  0.74366  1.0000
  P   P34       1.0  0.21294  0.66477  0.78719  1.0000
  C   C984      1.0  0.17744  0.65137  0.79681  1.0000
  C   C985      1.0  0.23265  0.65536  0.80861  1.0000
  C   C986      1.0  0.23335  0.66231  0.83250  1.0000
  C   C987      1.0  0.24772  0.65425  0.84930  1.0000
  C   C988      1.0  0.26095  0.63867  0.84249  1.0000
  C   C989      1.0  0.25958  0.63089  0.81893  1.0000
  C   C990      1.0  0.24585  0.63953  0.80197  1.0000
  C   C991      1.0  0.16701  0.63033  0.81418  1.0000
  C   C992      1.0  0.13923  0.61912  0.82085  1.0000
  C   C993      1.0  0.12154  0.62844  0.81000  1.0000
  C   C994      1.0  0.13146  0.64868  0.79222  1.0000
  C   C995      1.0  0.15927  0.66010  0.78560  1.0000
  C   C996      1.0  0.22787  0.70185  0.78258  1.0000
  C   C997      1.0  0.22133  0.71250  0.76177  1.0000
  H   H785      1.0  0.18108  0.94618  0.94710  1.0000
  C   C998      1.0  0.45918  0.63197  0.92219  1.0000
  C   C999      1.0  0.26086  0.74864  0.79340  1.0000
  C   C1000     1.0  0.24780  0.72025  0.79836  1.0000
  C   C1001     1.0  0.44297  0.70617  0.83683  1.0000
  C   C1002     1.0  0.36425  0.57843  0.89727  1.0000
  H   H786      1.0  0.40657  0.54425  0.89933  1.0000
  H   H787      1.0  0.17149  0.61568  0.76189  1.0000
  H   H788      1.0  0.25352  0.68215  0.74937  1.0000
  H   H789      1.0  0.22225  0.67341  0.83827  1.0000
  H   H790      1.0  0.24759  0.65898  0.86784  1.0000
  H   H791      1.0  0.27107  0.63153  0.85575  1.0000
  H   H792      1.0  0.26854  0.61752  0.81392  1.0000
  H   H793      1.0  0.24512  0.63331  0.78385  1.0000
  H   H794      1.0  0.17995  0.62193  0.82224  1.0000
  H   H795      1.0  0.13118  0.60265  0.83400  1.0000
  H   H796      1.0  0.09995  0.61942  0.81494  1.0000
  H   H797      1.0  0.11751  0.65542  0.78349  1.0000
  H   H798      1.0  0.16622  0.67526  0.77142  1.0000
  C   C1003     1.0  0.32242  0.50855  0.75374  1.0000
  H   H799      1.0  0.46658  0.78484  0.91949  1.0000
  C   C1004     1.0  0.99777  0.70897  0.86783  1.0000
  H   H800      1.0  0.27649  0.76268  0.80548  1.0000
  H   H801      1.0  0.25396  0.71293  0.81422  1.0000
  H   H802      1.0  0.43485  0.58874  0.91417  1.0000
  C   C1005     1.0  0.38520  0.71539  0.74422  1.0000
  H   H803      1.0  0.01003  0.60014  0.90965  1.0000
  C   C1006     1.0  0.01332  0.95785  0.93703  1.0000
  H   H804      1.0  0.29948  0.52794  0.76945  1.0000
  H   H805      1.0  0.39686  0.70741  0.94682  1.0000
  H   H806      1.0  0.42727  0.65316  0.80948  1.0000
  C   C1007     1.0  0.11077  0.57146  0.75011  1.0000
  Fe  Fe60      1.0  0.39792  0.80535  0.76371  1.0000
  C   C1008     1.0  0.08516  0.98413  0.95234  1.0000
  C   C1009     1.0  0.45172  0.60373  0.92446  1.0000
  C   C1010     1.0  0.37698  0.49611  0.83318  1.0000
  C   C1011     1.0  0.40885  0.61827  0.89018  1.0000
  C   C1012     1.0  0.06069  0.49964  0.74983  1.0000
  C   C1013     1.0  0.06699  0.68191  0.96507  1.0000
  Fe  Fe61      1.0  0.24212  0.57117  0.73801  1.0000
  C   C1014     1.0  0.46616  0.59454  0.94021  1.0000
  H   H807      1.0  0.26504  0.78085  0.76849  1.0000
  S   S123      1.0  0.43265  0.81969  0.73800  1.0000
  C   C1015     1.0  0.48013  0.49180  0.94115  1.0000
  H   H808      1.0  0.42827  0.67570  0.77088  1.0000
  C   C1016     1.0  0.09144  0.96204  0.94908  1.0000
  C   C1017     1.0  0.09574  0.95557  0.92612  1.0000
  S   S124      1.0  0.07175  0.68283  0.74361  1.0000
  C   C1018     1.0  0.09498  0.97176  0.90681  1.0000
  C   C1019     1.0  0.41815  0.65336  0.77220  1.0000
  H   H809      1.0  0.03150  0.94064  0.91296  1.0000
  C   C1020     1.0  0.40421  0.61194  0.79622  1.0000
  S   S125      1.0  0.01182  0.64242  0.85422  1.0000
  H   H810      1.0  0.44228  0.69833  0.88968  1.0000
  H   H811      1.0  0.08084  0.98883  0.96980  1.0000
  S   S126      1.0  0.99595  0.58659  0.80647  1.0000
  H   H812      1.0  0.41309  0.63667  0.85515  1.0000
  H   H813      1.0  0.06007  0.88672  0.95254  1.0000
  S   S127      1.0  0.46713  0.60877  0.75949  1.0000
  P   P35       1.0  0.09252  0.94123  0.97397  1.0000
  C   C1021     1.0  0.17239  0.80315  0.96109  1.0000
  C   C1022     1.0  0.46777  0.64768  0.85876  1.0000
  S   S128      1.0  0.14212  0.54475  0.74114  1.0000
  C   C1023     1.0  0.36501  0.50444  0.79328  1.0000
  C   C1024     1.0  0.35626  0.70167  0.74554  1.0000
  C   C1025     1.0  0.34513  0.60616  0.95424  1.0000
  H   H814      1.0  0.41651  0.63942  0.94776  1.0000
  H   H815      1.0  0.40363  0.60209  0.81318  1.0000
  H   H816      1.0  0.01019  0.95099  0.87724  1.0000
  S   S129      1.0  0.46846  0.71781  0.96637  1.0000
  H   H817      1.0  0.45774  0.70473  0.84924  1.0000
  H   H818      1.0  0.31947  0.66287  0.74097  1.0000
  H   H819      1.0  0.15800  0.83141  0.94635  1.0000
  C   C1026     1.0  0.34027  0.51050  0.73532  1.0000
  H   H820      1.0  0.47447  0.73184  0.81233  1.0000
  H   H821      1.0  0.05493  0.50464  0.76665  1.0000
  C   C1027     1.0  0.43083  0.66670  0.91709  1.0000
  C   C1028     1.0  0.31320  0.52884  0.75548  1.0000
  C   C1029     1.0  0.01838  0.95080  0.91466  1.0000
  C   C1030     1.0  0.39258  0.60839  0.75444  1.0000
  C   C1031     1.0  0.15497  0.90650  0.96279  1.0000
  C   C1032     1.0  0.01954  0.87006  0.96756  1.0000
  C   C1033     1.0  0.35665  0.65946  0.73294  1.0000
  H   H822      1.0  0.14018  0.65572  0.97316  1.0000
  C   C1034     1.0  0.41747  0.64071  0.79412  1.0000
  C   C1035     1.0  0.14210  0.94369  0.95827  1.0000
  C   C1036     1.0  0.41766  0.65784  0.93899  1.0000
  C   C1037     1.0  0.15173  0.63066  0.92225  1.0000
  C   C1038     1.0  0.15262  0.63638  0.94627  1.0000
  C   C1039     1.0  0.13966  0.65172  0.95439  1.0000
  C   C1040     1.0  0.12598  0.66156  0.93838  1.0000
  C   C1041     1.0  0.12589  0.65673  0.91403  1.0000
  C   C1042     1.0  0.13821  0.64055  0.90620  1.0000
  P   P36       1.0  0.10701  0.66770  0.89316  1.0000
  C   C1043     1.0  0.07493  0.63726  0.88737  1.0000
  C   C1044     1.0  0.10126  0.69577  0.90376  1.0000
  C   C1045     1.0  0.12231  0.71739  0.91636  1.0000
  C   C1046     1.0  0.11869  0.74018  0.92308  1.0000
  C   C1047     1.0  0.09423  0.74174  0.91701  1.0000
  C   C1048     1.0  0.07357  0.72072  0.90386  1.0000
  C   C1049     1.0  0.07712  0.69792  0.89708  1.0000
  C   C1050     1.0  0.07271  0.62039  0.86816  1.0000
  C   C1051     1.0  0.04795  0.59658  0.86381  1.0000
  C   C1052     1.0  0.02539  0.58928  0.87879  1.0000
  C   C1053     1.0  0.02771  0.60556  0.89834  1.0000
  C   C1054     1.0  0.05247  0.62939  0.90273  1.0000
  C   C1055     1.0  0.12565  0.68130  0.86605  1.0000
  C   C1056     1.0  0.11146  0.68472  0.84615  1.0000
  C   C1057     1.0  0.12577  0.69667  0.82535  1.0000
  C   C1058     1.0  0.15435  0.70534  0.82428  1.0000
  C   C1059     1.0  0.16866  0.70211  0.84404  1.0000
  C   C1060     1.0  0.15445  0.69043  0.86497  1.0000
  H   H823      1.0  0.16144  0.61838  0.91611  1.0000
  C   C1061     1.0  0.12972  0.89019  0.97379  1.0000
  H   H824      1.0  0.37174  0.51471  0.77633  1.0000
  H   H825      1.0  0.11535  0.67265  0.94510  1.0000
  H   H826      1.0  0.13729  0.63540  0.88769  1.0000
  H   H827      1.0  0.14171  0.71687  0.92064  1.0000
  H   H828      1.0  0.13495  0.75678  0.93275  1.0000
  H   H829      1.0  0.09135  0.75938  0.92219  1.0000
  H   H830      1.0  0.05495  0.72235  0.89853  1.0000
  H   H831      1.0  0.06127  0.68234  0.88615  1.0000
  H   H832      1.0  0.08998  0.62561  0.85644  1.0000
  H   H833      1.0  0.04611  0.58400  0.84861  1.0000
  H   H834      1.0  0.00596  0.57130  0.87499  1.0000
  C   C1062     1.0  0.09969  0.65275  0.73448  1.0000
  H   H835      1.0  0.05389  0.64193  0.91780  1.0000
  C   C1063     1.0  0.45244  0.72143  0.81593  1.0000
  Fe  Fe62      1.0  0.18117  0.54112  0.75141  1.0000
  H   H836      1.0  0.09968  0.93803  0.92312  1.0000
  S   S130      1.0  0.23405  0.66093  0.95235  1.0000
  Fe  Fe63      1.0  0.01585  0.63185  0.81575  1.0000
  H   H837      1.0  0.01193  0.85074  0.95815  1.0000
  H   H838      1.0  0.29647  0.74497  0.74061  1.0000
  C   C1064     1.0  0.23039  0.56353  0.84587  1.0000
  S   S131      1.0  0.20839  0.59727  0.97146  1.0000
  H   H839      1.0  0.34500  0.71280  0.75096  1.0000
  C   C1065     1.0  0.23633  0.58263  0.88553  1.0000
  H   H840      1.0  0.24671  0.58682  0.90261  1.0000
  H   H841      1.0  0.46320  0.54293  0.83176  1.0000
  H   H842      1.0  0.38274  0.59546  0.73949  1.0000
  Fe  Fe64      1.0  0.35468  0.51190  0.95991  1.0000
  S   S132      1.0  0.31924  0.51697  0.94276  1.0000
  C   C1066     1.0  0.00287  0.66695  0.89317  1.0000
  C   C1067     1.0  0.28795  0.54452  0.94748  1.0000
  C   C1068     1.0  0.27606  0.55840  0.96015  1.0000
  C   C1069     1.0  0.34197  0.67367  0.73990  1.0000
  H   H843      1.0  0.19249  0.81337  0.95277  1.0000
  C   C1070     1.0  0.43354  0.72389  0.80006  1.0000
  H   H844      1.0  0.35025  0.56240  0.90912  1.0000
  Fe  Fe65      1.0  0.22517  0.54400  0.78657  1.0000
  H   H845      1.0  0.33855  0.60166  0.93596  1.0000
  H   H846      1.0  0.25955  0.56258  0.87209  1.0000
  S   S133      1.0  0.25308  0.54171  0.75865  1.0000
  H   H847      1.0  0.11237  0.80855  0.96608  1.0000
  H   H848      1.0  0.04807  0.63741  0.96649  1.0000
  S   S134      1.0  0.24072  0.54702  0.82434  1.0000
  S   S135      1.0  0.44834  0.54222  0.76699  1.0000
  H   H849      1.0  0.44090  0.73612  0.78404  1.0000
  H   H850      1.0  0.36862  0.74902  0.94817  1.0000
  C   C1071     1.0  0.04689  0.89042  0.96464  1.0000
  S   S136      1.0  0.02635  0.60380  0.75478  1.0000
  C   C1072     1.0  0.44823  0.52686  0.86667  1.0000
  S   S137      1.0  0.18682  0.50816  0.77232  1.0000
  C   C1073     1.0  0.15303  0.81336  0.95751  1.0000
  C   C1074     1.0  0.40002  0.62016  0.86694  1.0000
  H   H851      1.0  0.08656  0.63808  0.74752  1.0000
  C   C1075     1.0  0.39202  0.59578  0.77637  1.0000
  H   H852      1.0  0.20660  0.69884  0.74890  1.0000
  C   C1076     1.0  0.35598  0.57999  0.87395  1.0000
  C   C1077     1.0  0.99571  0.97030  0.93953  1.0000
  C   C1078     1.0  0.35916  0.59298  0.96555  1.0000
  H   H853      1.0  0.14751  0.96472  0.95276  1.0000
  H   H854      1.0  0.36717  0.60231  0.84085  1.0000
  C   C1079     1.0  0.39041  0.59764  0.90542  1.0000
  H   H855      1.0  0.38224  0.57344  0.77800  1.0000
  C   C1080     1.0  0.43851  0.56099  0.84581  1.0000
  H   H856      1.0  0.39554  0.66590  0.96662  1.0000
  S   S138      1.0  0.46558  0.76857  0.74388  1.0000
  Fe  Fe66      1.0  0.27595  0.66589  0.96416  1.0000
  C   C1081     1.0  0.11070  0.90063  0.97713  1.0000
  C   C1082     1.0  0.16123  0.93331  0.95514  1.0000
  C   C1083     1.0  0.43312  0.52795  0.88614  1.0000
  Fe  Fe67      1.0  0.21445  0.50839  0.74273  1.0000
  S   S139      1.0  0.00367  0.64406  0.78072  1.0000
  C   C1084     1.0  0.37382  0.60089  0.85881  1.0000
  S   S140      1.0  0.31354  0.70613  0.95564  1.0000
  C   C1085     1.0  0.11643  0.92718  0.96887  1.0000
  Fe  Fe68      1.0  0.44882  0.79529  0.76006  1.0000
  Fe  Fe69      1.0  0.40718  0.51101  0.94275  1.0000
  C   C1086     1.0  0.42216  0.56094  0.86474  1.0000
  H   H857      1.0  0.41186  0.57393  0.86394  1.0000
  S   S141      1.0  0.43292  0.50971  0.91220  1.0000
  S   S142      1.0  0.44352  0.58388  0.82194  1.0000
  H   H858      1.0  0.41342  0.76157  0.96942  1.0000
  C   C1087     1.0  0.38491  0.50915  0.81112  1.0000
  C   C1088     1.0  0.40564  0.63728  0.75219  1.0000
  H   H859      1.0  0.08883  0.72582  0.96791  1.0000
  H   H860      1.0  0.02263  0.95302  0.95247  1.0000
  H   H861      1.0  0.36342  0.57827  0.95605  1.0000
  S   S143      1.0  0.35153  0.78288  0.75520  1.0000
  C   C1089     1.0  0.43214  0.69081  0.90637  1.0000
  H   H862      1.0  0.42126  0.72427  0.90891  1.0000
  C   C1090     1.0  0.34493  0.71429  0.97103  1.0000
  H   H863      1.0  0.12491  0.86951  0.98005  1.0000
  C   C1091     1.0  0.05713  0.91494  0.97761  1.0000
  H   H864      1.0  0.05360  0.68271  0.95082  1.0000
  H   H865      1.0  0.31346  0.56554  0.73987  1.0000
  C   C1092     1.0  0.12731  0.80047  0.96858  1.0000
  C   C1093     1.0  0.40549  0.67257  0.94967  1.0000
  H   H866      1.0  0.00480  0.65068  0.90313  1.0000
  C   C1094     1.0  0.39472  0.74400  0.97533  1.0000
  C   C1095     1.0  0.39993  0.70123  0.73744  1.0000
  S   S144      1.0  0.00222  0.79013  0.95324  1.0000
  H   H867      1.0  0.99577  0.72521  0.85786  1.0000
  C   C1096     1.0  0.46676  0.66202  0.87878  1.0000
  C   C1097     1.0  0.23459  0.74086  0.75681  1.0000
  S   S145      1.0  0.01889  0.74193  0.97374  1.0000
  C   C1098     1.0  0.99825  0.68697  0.90528  1.0000
  C   C1099     1.0  0.36935  0.73691  0.96337  1.0000
  H   H868      1.0  0.99661  0.68600  0.92434  1.0000
  Fe  Fe70      1.0  0.25231  0.60710  0.98183  1.0000
  C   C1100     1.0  0.33858  0.62421  0.96683  1.0000
  C   C1101     1.0  0.28017  0.49156  0.80743  1.0000
  S   S146      1.0  0.41925  0.50331  0.97931  1.0000
  C   C1102     1.0  0.00250  0.68901  0.85574  1.0000
  C   C1103     1.0  0.25441  0.75892  0.77258  1.0000
  H   H869      1.0  0.46558  0.78235  0.83168  1.0000
  H   H870      1.0  0.46416  0.50232  0.79495  1.0000
  C   C1104     1.0  0.46660  0.78439  0.90039  1.0000
  H   H871      1.0  0.29983  0.50515  0.81565  1.0000
  C   C1105     1.0  0.00060  0.51881  0.76131  1.0000
  C   C1106     1.0  0.47967  0.77098  0.88899  1.0000
  C   C1107     1.0  0.32116  0.55031  0.73874  1.0000
  H   H872      1.0  0.25674  0.50263  0.83177  1.0000
  H   H873      1.0  0.39242  0.50007  0.84703  1.0000
  S   S147      1.0  0.47549  0.82975  0.78407  1.0000
  H   H874      1.0  0.99506  0.53062  0.79608  1.0000
  H   H875      1.0  0.48480  0.87056  0.84111  1.0000
  C   C1108     1.0  0.47916  0.77019  0.86418  1.0000
  Fe  Fe71      1.0  0.99009  0.74524  0.94586  1.0000
  H   H876      1.0  0.00415  0.69005  0.83668  1.0000
  Fe  Fe72      1.0  0.45510  0.57178  0.73682  1.0000
  C   C1109     1.0  0.98920  0.96943  0.89685  1.0000
  C   C1110     1.0  0.99568  0.70819  0.89266  1.0000
  H   H877      1.0  0.22985  0.74876  0.74047  1.0000
  C   C1111     1.0  0.98789  0.50164  0.74211  1.0000
  H   H878      1.0  0.47990  0.51087  0.94615  1.0000
  C   C1112     1.0  0.08713  0.70646  0.97485  1.0000
  H   H879      1.0  0.45894  0.65665  0.73721  1.0000
  C   C1113     1.0  0.48239  0.65100  0.93482  1.0000
  P   P37       1.0  0.98881  0.97828  0.96874  1.0000
  H   H880      1.0  0.47778  0.72260  0.76217  1.0000
  Fe  Fe73      1.0  0.98669  0.59930  0.77049  1.0000
  C   C1114     1.0  0.16594  0.77986  0.97558  1.0000
  C   C1115     1.0  0.98505  0.51740  0.78114  1.0000
  H   H881      1.0  0.16063  0.71638  0.97573  1.0000
  C   C1116     1.0  0.06387  0.65642  0.97387  1.0000
  H   H882      1.0  0.34785  0.49527  0.73358  1.0000
  H   H883      1.0  0.18143  0.77263  0.97834  1.0000
  C   C1117     1.0  0.50571  0.43520  0.21529  1.0000
  H   H884      1.0  0.87274  0.06388  0.13612  1.0000
  S   S148      1.0  0.86808  0.04396  0.01029  1.0000
  H   H885      1.0  0.82595  0.01359  0.04584  1.0000
  H   H886      1.0  0.68866  0.05109  0.19256  1.0000
  C   C1118     1.0  0.96830  0.02439  0.09470  1.0000
  Fe  Fe74      1.0  0.83448  0.05655  0.00281  1.0000
  S   S149      1.0  0.81427  0.06370  0.03478  1.0000
  C   C1119     1.0  0.96032  0.10812  0.01006  1.0000
  C   C1120     1.0  0.94953  0.11349  0.03049  1.0000
  H   H887      1.0  0.92798  0.10926  0.03075  1.0000
  H   H888      1.0  0.65170  0.00565  0.05477  1.0000
  H   H889      1.0  0.84746  0.00491  0.13380  1.0000
  P   P38       1.0  0.90259  0.03628  0.11499  1.0000
  H   H890      1.0  0.92913  0.01273  0.03289  1.0000
  H   H891      1.0  0.66971  0.26529  0.19823  1.0000
  C   C1121     1.0  0.69596  0.25619  0.22242  1.0000
  H   H892      1.0  0.84976  0.08947  0.22651  1.0000
  C   C1122     1.0  0.92705  0.06376  0.18237  1.0000
  C   C1123     1.0  0.89372  0.06725  0.07921  1.0000
  C   C1124     1.0  0.76263  0.02248  0.02227  1.0000
  C   C1125     1.0  0.78014  0.03829  0.04052  1.0000
  C   C1126     1.0  0.77034  0.03381  0.06377  1.0000
  C   C1127     1.0  0.74368  0.01278  0.06891  1.0000
  H   H893      1.0  0.92804  0.99943  0.10900  1.0000
  H   H894      1.0  0.78373  0.04612  0.07791  1.0000
  C   C1128     1.0  0.67277  0.00752  0.18565  1.0000
  H   H895      1.0  0.54123  0.44529  0.19304  1.0000
  C   C1129     1.0  0.98085  0.07270  0.08829  1.0000
  H   H896      1.0  0.76971  0.02629  0.00424  1.0000
  C   C1130     1.0  0.88104  0.08253  0.06925  1.0000
  H   H897      1.0  0.50352  0.48311  0.18028  1.0000
  C   C1131     1.0  0.67492  0.03039  0.19860  1.0000
  C   C1132     1.0  0.93533  0.04181  0.10323  1.0000
  H   H898      1.0  0.90441  0.05955  0.06772  1.0000
  H   H899      1.0  0.85113  0.09156  0.11836  1.0000
  C   C1133     1.0  0.51880  0.43493  0.19417  1.0000
  C   C1134     1.0  0.90212  0.01297  0.15945  1.0000
  H   H900      1.0  0.81171  0.00619  0.23182  1.0000
  C   C1135     1.0  0.64592  0.22993  0.22039  1.0000
  S   S150      1.0  0.93982  0.09560  0.98383  1.0000
  C   C1136     1.0  0.86586  0.09141  0.08339  1.0000
  H   H901      1.0  0.68511  0.01072  0.17002  1.0000
  H   H902      1.0  0.55082  0.02004  0.07533  1.0000
  C   C1137     1.0  0.64156  0.99979  0.22669  1.0000
  H   H903      1.0  0.62059  0.03685  0.18507  1.0000
  H   H904      1.0  0.73653  0.00905  0.08694  1.0000
  H   H905      1.0  0.51325  0.41975  0.15855  1.0000
  H   H906      1.0  0.69051  0.01330  0.12295  1.0000
  C   C1138     1.0  0.87460  0.00370  0.10674  1.0000
  C   C1139     1.0  0.94247  0.01997  0.10301  1.0000
  C   C1140     1.0  0.90833  0.01396  0.18366  1.0000
  C   C1141     1.0  0.72623  0.99698  0.05063  1.0000
  H   H907      1.0  0.92683  0.08198  0.14826  1.0000
  H   H908      1.0  0.62254  0.08587  0.23158  1.0000
  C   C1142     1.0  0.96309  0.48577  0.07483  1.0000
  C   C1143     1.0  0.49957  0.49094  0.11213  1.0000
  C   C1144     1.0  0.60552  0.01619  0.18011  1.0000
  C   C1145     1.0  0.89154  0.06097  0.10354  1.0000
  H   H909      1.0  0.89647  0.01431  0.00239  1.0000
  C   C1146     1.0  0.90799  0.03740  0.14659  1.0000
  H   H910      1.0  0.80599  0.01005  0.08533  1.0000
  H   H911      1.0  0.93739  0.08349  0.19112  1.0000
  H   H912      1.0  0.49199  0.43685  0.10293  1.0000
  H   H913      1.0  0.62615  0.22630  0.21240  1.0000
  H   H914      1.0  0.58623  0.00666  0.21421  1.0000
  C   C1147     1.0  0.65941  0.02667  0.21924  1.0000
  C   C1148     1.0  0.84963  0.99367  0.11906  1.0000
  C   C1149     1.0  0.86344  0.08513  0.10758  1.0000
  H   H915      1.0  0.62113  0.02010  0.14507  1.0000
  C   C1150     1.0  0.83322  0.99220  0.20815  1.0000
  H   H916      1.0  0.98142  0.02442  0.02206  1.0000
  H   H917      1.0  0.92590  0.04002  0.21383  1.0000
  C   C1151     1.0  0.92090  0.06284  0.15813  1.0000
  H   H918      1.0  0.94530  0.47514  0.08614  1.0000
  C   C1152     1.0  0.67387  0.01207  0.08785  1.0000
  C   C1153     1.0  0.96699  0.12558  0.05024  1.0000
  H   H919      1.0  0.97329  0.00727  0.09384  1.0000
  H   H920      1.0  0.49474  0.39625  0.08708  1.0000
  H   H921      1.0  0.88215  0.08677  0.05038  1.0000
  H   H922      1.0  0.69411  0.02230  0.07970  1.0000
  C   C1154     1.0  0.65693  0.12671  0.23013  1.0000
  C   C1155     1.0  0.87599  0.06972  0.11762  1.0000
  C   C1156     1.0  0.95486  0.06835  0.09613  1.0000
  H   H923      1.0  0.66740  0.12146  0.21644  1.0000
  H   H924      1.0  0.90406  0.99505  0.19341  1.0000
  H   H925      1.0  0.85539  0.10252  0.07535  1.0000
  H   H926      1.0  0.95857  0.13039  0.06564  1.0000
  C   C1157     1.0  0.67184  0.00698  0.11221  1.0000
  C   C1158     1.0  0.92070  0.03932  0.19514  1.0000
  H   H927      1.0  0.95032  0.08581  0.09685  1.0000
  H   H928      1.0  0.89340  0.99317  0.15071  1.0000
  C   C1159     1.0  0.50303  0.42080  0.17449  1.0000
  H   H929      1.0  0.58739  0.01378  0.09768  1.0000
  H   H930      1.0  0.85056  0.01247  0.20568  1.0000
  C   C1160     1.0  0.73557  0.00224  0.02728  1.0000
  C   C1161     1.0  0.58610  0.99915  0.19657  1.0000
  C   C1162     1.0  0.79695  0.99266  0.07350  1.0000
  H   H931      1.0  0.54337  0.41307  0.22462  1.0000
  C   C1163     1.0  0.67045  0.25189  0.21242  1.0000
  H   H932      1.0  0.71503  0.27286  0.21589  1.0000
  H   H933      1.0  0.69724  0.99906  0.23167  1.0000
  H   H934      1.0  0.89485  0.99762  0.07625  1.0000
  H   H935      1.0  0.96595  0.44869  0.06619  1.0000
  C   C1164     1.0  0.56710  0.99631  0.09538  1.0000
  C   C1165     1.0  0.89295  0.99474  0.01014  1.0000
  C   C1166     1.0  0.60601  0.00641  0.15754  1.0000
  C   C1167     1.0  0.97472  0.47087  0.06361  1.0000
  C   C1168     1.0  0.64576  0.99297  0.12257  1.0000
  C   C1169     1.0  0.64984  0.00274  0.07378  1.0000
  C   C1170     1.0  0.91180  0.99377  0.02711  1.0000
  C   C1171     1.0  0.80827  0.99464  0.05118  1.0000
  C   C1172     1.0  0.54639  0.99995  0.08281  1.0000
  C   C1173     1.0  0.50240  0.48542  0.16126  1.0000
  Fe  Fe75      1.0  0.65318  0.05807  0.27334  1.0000
  S   S151      1.0  0.61318  0.04130  0.29353  1.0000
  H   H936      1.0  0.50284  0.22776  0.46421  1.0000
  Fe  Fe76      1.0  0.68729  0.08513  0.31732  1.0000
  S   S152      1.0  0.65112  0.07001  0.34182  1.0000
  S   S153      1.0  0.73155  0.11133  0.32795  1.0000
  Fe  Fe77      1.0  0.63670  0.03060  0.32185  1.0000
  H   H937      1.0  0.72725  0.30804  0.39636  1.0000
  Fe  Fe78      1.0  0.63011  0.08197  0.31240  1.0000
  S   S154      1.0  0.60435  0.10461  0.31919  1.0000
  S   S155      1.0  0.67528  0.04418  0.30045  1.0000
  S   S156      1.0  0.66784  0.10029  0.28921  1.0000
  Fe  Fe79      1.0  0.57749  0.21102  0.46210  1.0000
  Fe  Fe80      1.0  0.57492  0.22116  0.40941  1.0000
  S   S157      1.0  0.59717  0.25395  0.38206  1.0000
  C   C1174     1.0  0.53549  0.27241  0.40978  1.0000
  S   S158      1.0  0.59933  0.20472  0.43124  1.0000
  Fe  Fe81      1.0  0.94505  0.44593  0.30605  1.0000
  S   S159      1.0  0.93598  0.46801  0.27534  1.0000
  S   S160      1.0  0.92411  0.39871  0.30518  1.0000
  H   H938      1.0  0.49094  0.40075  0.26043  1.0000
  C   C1175     1.0  0.57624  0.46599  0.26307  1.0000
  S   S161      1.0  0.55613  0.23098  0.44055  1.0000
  S   S162      1.0  0.93204  0.46673  0.33336  1.0000
  Fe  Fe82      1.0  0.79843  0.24118  0.38956  1.0000
  S   S163      1.0  0.83870  0.24200  0.37889  1.0000
  S   S164      1.0  0.76071  0.23010  0.36600  1.0000
  Fe  Fe83      1.0  0.81613  0.25248  0.44104  1.0000
  S   S165      1.0  0.85746  0.25328  0.43466  1.0000
  Fe  Fe84      1.0  0.85925  0.27902  0.40217  1.0000
  S   S166      1.0  0.89915  0.31879  0.39564  1.0000
  Fe  Fe85      1.0  0.83317  0.21604  0.41192  1.0000
  S   S167      1.0  0.83788  0.17667  0.40801  1.0000
  S   S168      1.0  0.81924  0.28030  0.41010  1.0000
  S   S169      1.0  0.79184  0.21340  0.42109  1.0000
  Fe  Fe86      1.0  0.52446  0.32688  0.31706  1.0000
  S   S170      1.0  0.54741  0.36090  0.34260  1.0000
  S   S171      1.0  0.51218  0.28216  0.32447  1.0000
  Fe  Fe87      1.0  0.51938  0.36433  0.27854  1.0000
  S   S172      1.0  0.54311  0.40248  0.30071  1.0000
  C   C1176     1.0  0.65637  0.15940  0.25859  1.0000
  Fe  Fe88      1.0  0.57223  0.38453  0.31131  1.0000
  S   S173      1.0  0.61980  0.40611  0.31222  1.0000
  Fe  Fe89      1.0  0.51679  0.37624  0.33070  1.0000
  S   S174      1.0  0.55110  0.34891  0.28636  1.0000
  C   C1177     1.0  0.55891  0.42700  0.23671  1.0000
  H   H939      1.0  0.59868  0.05090  0.46009  1.0000
  C   C1178     1.0  0.64050  0.42049  0.33799  1.0000
  C   C1179     1.0  0.66921  0.42852  0.33755  1.0000
  H   H940      1.0  0.67828  0.42571  0.32160  1.0000
  C   C1180     1.0  0.84225  0.43776  0.34781  1.0000
  C   C1181     1.0  0.81736  0.14742  0.42575  1.0000
  C   C1182     1.0  0.81291  0.12099  0.41884  1.0000
  C   C1183     1.0  0.79645  0.09740  0.43260  1.0000
  C   C1184     1.0  0.78535  0.10025  0.45393  1.0000
  C   C1185     1.0  0.78990  0.12671  0.46079  1.0000
  C   C1186     1.0  0.80547  0.15011  0.44664  1.0000
  H   H941      1.0  0.82213  0.11879  0.40276  1.0000
  H   H942      1.0  0.79282  0.07715  0.42699  1.0000
  H   H943      1.0  0.88823  0.47009  0.38163  1.0000
  H   H944      1.0  0.80875  0.17032  0.45217  1.0000
  C   C1187     1.0  0.91850  0.37652  0.33022  1.0000
  C   C1188     1.0  0.93425  0.38551  0.35108  1.0000
  C   C1189     1.0  0.92860  0.36739  0.37075  1.0000
  C   C1190     1.0  0.90685  0.34031  0.36994  1.0000
  C   C1191     1.0  0.89180  0.33108  0.34885  1.0000
  C   C1192     1.0  0.89763  0.34902  0.32907  1.0000
  H   H945      1.0  0.77196  0.29258  0.34199  1.0000
  C   C1193     1.0  0.61814  0.11304  0.25654  1.0000
  H   H946      1.0  0.87596  0.30997  0.34780  1.0000
  H   H947      1.0  0.88571  0.34166  0.31290  1.0000
  H   H948      1.0  0.64321  0.12052  0.45913  1.0000
  C   C1194     1.0  0.73062  0.03235  0.24993  1.0000
  S   S175      1.0  0.97942  0.04487  0.28636  1.0000
  H   H949      1.0  0.53955  0.25667  0.40201  1.0000
  H   H950      1.0  0.94968  0.47502  0.46307  1.0000
  C   C1195     1.0  0.57408  0.26142  0.36491  1.0000
  C   C1196     1.0  0.58191  0.28863  0.35750  1.0000
  C   C1197     1.0  0.56277  0.29541  0.34554  1.0000
  C   C1198     1.0  0.53615  0.27469  0.34026  1.0000
  C   C1199     1.0  0.52855  0.24734  0.34720  1.0000
  C   C1200     1.0  0.54747  0.24071  0.35963  1.0000
  H   H951      1.0  0.60263  0.30445  0.36135  1.0000
  H   H952      1.0  0.56872  0.31650  0.34001  1.0000
  H   H953      1.0  0.50792  0.23132  0.34314  1.0000
  H   H954      1.0  0.54137  0.21962  0.36522  1.0000
  C   C1201     1.0  0.59465  0.10981  0.34776  1.0000
  C   C1202     1.0  0.58018  0.12560  0.34987  1.0000
  C   C1203     1.0  0.57337  0.13155  0.37224  1.0000
  C   C1204     1.0  0.58013  0.12096  0.39277  1.0000
  C   C1205     1.0  0.59415  0.10472  0.39069  1.0000
  C   C1206     1.0  0.60167  0.09944  0.36832  1.0000
  H   H955      1.0  0.57456  0.13363  0.33409  1.0000
  H   H956      1.0  0.56234  0.14383  0.37355  1.0000
  H   H957      1.0  0.59942  0.09640  0.40645  1.0000
  H   H958      1.0  0.61267  0.08716  0.36697  1.0000
  H   H959      1.0  0.95063  0.40647  0.35211  1.0000
  C   C1207     1.0  0.73827  0.14387  0.33867  1.0000
  C   C1208     1.0  0.71737  0.15229  0.34050  1.0000
  C   C1209     1.0  0.72403  0.17890  0.34880  1.0000
  C   C1210     1.0  0.75139  0.19664  0.35577  1.0000
  C   C1211     1.0  0.77188  0.18785  0.35412  1.0000
  C   C1212     1.0  0.76549  0.16184  0.34526  1.0000
  H   H960      1.0  0.69626  0.13847  0.33530  1.0000
  H   H961      1.0  0.70811  0.18567  0.34979  1.0000
  H   H962      1.0  0.79293  0.20124  0.35920  1.0000
  H   H963      1.0  0.78172  0.15556  0.34376  1.0000
  H   H964      1.0  0.80596  0.06299  0.24740  1.0000
  P   P39       1.0  0.57989  0.35257  0.43111  1.0000
  C   C1213     1.0  0.61698  0.33344  0.30158  1.0000
  H   H965      1.0  0.51959  0.32752  0.43863  1.0000
  Fe  Fe90      1.0  0.94010  0.01215  0.30233  1.0000
  C   C1214     1.0  0.69765  0.32064  0.43070  1.0000
  C   C1215     1.0  0.83295  0.02450  0.45175  1.0000
  Fe  Fe91      1.0  0.74065  0.46833  0.41129  1.0000
  H   H966      1.0  0.87953  0.02403  0.43114  1.0000
  H   H967      1.0  0.68607  0.36645  0.45822  1.0000
  C   C1216     1.0  0.69125  0.29544  0.44261  1.0000
  Fe  Fe92      1.0  0.74878  0.02591  0.46622  1.0000
  C   C1217     1.0  0.66375  0.27444  0.44175  1.0000
  C   C1218     1.0  0.81350  0.05921  0.33335  1.0000
  C   C1219     1.0  0.90415  0.12363  0.42061  1.0000
  C   C1220     1.0  0.88897  0.09504  0.42344  1.0000
  C   C1221     1.0  0.87915  0.07829  0.40360  1.0000
  H   H968      1.0  0.91106  0.13671  0.43601  1.0000
  H   H969      1.0  0.88454  0.08594  0.44102  1.0000
  H   H970      1.0  0.86705  0.05617  0.40581  1.0000
  C   C1222     1.0  0.61736  0.03892  0.41035  1.0000
  H   H971      1.0  0.54995  0.37364  0.46084  1.0000
  C   C1223     1.0  0.65516  0.07115  0.43503  1.0000
  C   C1224     1.0  0.63726  0.06585  0.41531  1.0000
  P   P40       1.0  0.68357  0.10538  0.43858  1.0000
  C   C1225     1.0  0.67079  0.12976  0.42952  1.0000
  C   C1226     1.0  0.67886  0.14431  0.40790  1.0000
  C   C1227     1.0  0.66762  0.16187  0.40040  1.0000
  C   C1228     1.0  0.64825  0.16506  0.41433  1.0000
  C   C1229     1.0  0.71128  0.10896  0.41950  1.0000
  C   C1230     1.0  0.70869  0.08726  0.40494  1.0000
  C   C1231     1.0  0.72997  0.09097  0.38955  1.0000
  C   C1232     1.0  0.75382  0.11629  0.38851  1.0000
  C   C1233     1.0  0.75659  0.13783  0.40304  1.0000
  C   C1234     1.0  0.73561  0.13411  0.41877  1.0000
  C   C1235     1.0  0.76831  0.05410  0.32090  1.0000
  C   C1236     1.0  0.67233  0.21687  0.24893  1.0000
  H   H972      1.0  0.63933  0.08238  0.40320  1.0000
  S   S176      1.0  0.79917  0.42719  0.37707  1.0000
  H   H973      1.0  0.69328  0.14175  0.39641  1.0000
  H   H974      1.0  0.67372  0.17267  0.38360  1.0000
  H   H975      1.0  0.63899  0.17812  0.40831  1.0000
  H   H976      1.0  0.69032  0.06752  0.40515  1.0000
  H   H977      1.0  0.72762  0.07437  0.37810  1.0000
  H   H978      1.0  0.77001  0.11958  0.37613  1.0000
  H   H979      1.0  0.77508  0.15744  0.40200  1.0000
  H   H980      1.0  0.73816  0.15099  0.43006  1.0000
  H   H981      1.0  0.68204  0.34414  0.40949  1.0000
  H   H982      1.0  0.76862  0.29859  0.43101  1.0000
  H   H983      1.0  0.83124  0.05530  0.33119  1.0000
  C   C1237     1.0  0.94318  0.11883  0.29097  1.0000
  C   C1238     1.0  0.65070  0.13247  0.44302  1.0000
  H   H984      1.0  0.94394  0.06809  0.32672  1.0000
  H   H985      1.0  0.94561  0.23595  0.34298  1.0000
  S   S177      1.0  0.73322  0.00603  0.43091  1.0000
  H   H986      1.0  0.85015  0.04052  0.30144  1.0000
  C   C1239     1.0  0.65295  0.37455  0.38022  1.0000
  C   C1240     1.0  0.65836  0.38156  0.40405  1.0000
  C   C1241     1.0  0.63642  0.37421  0.41977  1.0000
  H   H987      1.0  0.73522  0.27543  0.37132  1.0000
  H   H988      1.0  0.66985  0.38124  0.36785  1.0000
  H   H989      1.0  0.67957  0.39390  0.41009  1.0000
  H   H990      1.0  0.64131  0.38049  0.43794  1.0000
  C   C1242     1.0  0.63038  0.13939  0.26639  1.0000
  H   H991      1.0  0.57835  0.30187  0.41135  1.0000
  C   C1243     1.0  0.63992  0.15045  0.43569  1.0000
  C   C1244     1.0  0.65436  0.19397  0.29763  1.0000
  C   C1245     1.0  0.70767  0.20174  0.28212  1.0000
  C   C1246     1.0  0.71806  0.18225  0.28179  1.0000
  C   C1247     1.0  0.74471  0.18900  0.29057  1.0000
  C   C1248     1.0  0.76090  0.21493  0.30030  1.0000
  C   C1249     1.0  0.75045  0.23416  0.30138  1.0000
  C   C1250     1.0  0.65411  0.17785  0.31745  1.0000
  C   C1251     1.0  0.63932  0.17735  0.33755  1.0000
  C   C1252     1.0  0.62429  0.19255  0.33796  1.0000
  C   C1253     1.0  0.62483  0.20907  0.31851  1.0000
  C   C1254     1.0  0.64005  0.21005  0.29847  1.0000
  H   H992      1.0  0.70554  0.16152  0.27551  1.0000
  H   H993      1.0  0.75230  0.17361  0.29082  1.0000
  H   H994      1.0  0.78101  0.21958  0.30808  1.0000
  H   H995      1.0  0.62914  0.99667  0.24225  1.0000
  H   H996      1.0  0.66463  0.16493  0.31711  1.0000
  H   H997      1.0  0.63852  0.16416  0.35245  1.0000
  H   H998      1.0  0.61213  0.19144  0.35333  1.0000
  H   H999      1.0  0.61319  0.22087  0.31905  1.0000
  H   H1000     1.0  0.76571  0.06141  0.26962  1.0000
  C   C1255     1.0  0.66194  0.26053  0.37124  1.0000
  C   C1256     1.0  0.67356  0.24387  0.36362  1.0000
  C   C1257     1.0  0.68925  0.25084  0.34306  1.0000
  C   C1258     1.0  0.69334  0.27458  0.33009  1.0000
  C   C1259     1.0  0.68152  0.29145  0.33757  1.0000
  C   C1260     1.0  0.66547  0.28397  0.35811  1.0000
  P   P41       1.0  0.68446  0.32086  0.31995  1.0000
  C   C1261     1.0  0.64981  0.31552  0.31179  1.0000
  C   C1262     1.0  0.59625  0.30663  0.29763  1.0000
  C   C1263     1.0  0.60204  0.28421  0.30105  1.0000
  C   C1264     1.0  0.62872  0.28861  0.30801  1.0000
  C   C1265     1.0  0.70318  0.35336  0.33500  1.0000
  C   C1266     1.0  0.71341  0.37819  0.32183  1.0000
  C   C1267     1.0  0.72767  0.40357  0.33307  1.0000
  C   C1268     1.0  0.73214  0.40439  0.35747  1.0000
  C   C1269     1.0  0.72256  0.37985  0.37066  1.0000
  C   C1270     1.0  0.70809  0.35438  0.35951  1.0000
  H   H1001     1.0  0.64933  0.25469  0.38695  1.0000
  H   H1002     1.0  0.66962  0.22507  0.37329  1.0000
  H   H1003     1.0  0.69810  0.23768  0.33717  1.0000
  H   H1004     1.0  0.70531  0.27928  0.31412  1.0000
  H   H1005     1.0  0.65507  0.29584  0.36370  1.0000
  H   H1006     1.0  0.57540  0.30316  0.29267  1.0000
  H   H1007     1.0  0.58560  0.26339  0.29880  1.0000
  H   H1008     1.0  0.63277  0.27097  0.31057  1.0000
  H   H1009     1.0  0.89343  0.06661  0.28005  1.0000
  H   H1010     1.0  0.73534  0.42269  0.32291  1.0000
  H   H1011     1.0  0.74341  0.42411  0.36613  1.0000
  H   H1012     1.0  0.72667  0.38076  0.38952  1.0000
  H   H1013     1.0  0.70112  0.33573  0.37006  1.0000
  C   C1271     1.0  0.71369  0.23020  0.41120  1.0000
  H   H1014     1.0  0.75030  0.07312  0.34311  1.0000
  C   C1272     1.0  0.72651  0.21670  0.42384  1.0000
  C   C1273     1.0  0.55739  0.29817  0.41512  1.0000
  C   C1274     1.0  0.64303  0.27905  0.43022  1.0000
  C   C1275     1.0  0.70981  0.25129  0.42171  1.0000
  S   S178      1.0  0.92744  0.00435  0.34040  1.0000
  H   H1015     1.0  0.75016  0.04577  0.30951  1.0000
  S   S179      1.0  0.49138  0.33984  0.30793  1.0000
  C   C1276     1.0  0.58999  0.35428  0.46199  1.0000
  C   C1277     1.0  0.64966  0.30397  0.41833  1.0000
  H   H1016     1.0  0.74675  0.21472  0.45648  1.0000
  C   C1278     1.0  0.73534  0.32793  0.25347  1.0000
  S   S180      1.0  0.54187  0.16828  0.45988  1.0000
  H   H1017     1.0  0.89472  0.01249  0.39396  1.0000
  H   H1018     1.0  0.78917  0.08954  0.37232  1.0000
  C   C1279     1.0  0.94815  0.09677  0.29847  1.0000
  H   H1019     1.0  0.70761  0.22464  0.39300  1.0000
  H   H1020     1.0  0.79373  0.01387  0.40182  1.0000
  C   C1280     1.0  0.87439  0.06619  0.27313  1.0000
  H   H1021     1.0  0.70006  0.26161  0.41149  1.0000
  H   H1022     1.0  0.95868  0.08880  0.28703  1.0000
  C   C1281     1.0  0.86361  0.47817  0.32226  1.0000
  H   H1023     1.0  0.63353  0.30709  0.40895  1.0000
  H   H1024     1.0  0.52203  0.48562  0.28099  1.0000
  C   C1282     1.0  0.65288  0.04894  0.44960  1.0000
  H   H1025     1.0  0.57414  0.48267  0.27146  1.0000
  H   H1026     1.0  0.71589  0.24249  0.29363  1.0000
  H   H1027     1.0  0.78397  0.38833  0.46445  1.0000
  H   H1028     1.0  0.74314  0.33805  0.31281  1.0000
  C   C1283     1.0  0.79146  0.04953  0.31682  1.0000
  C   C1284     1.0  0.82578  0.47234  0.34785  1.0000
  H   H1029     1.0  0.70833  0.44644  0.35696  1.0000
  H   H1030     1.0  0.81430  0.04845  0.43569  1.0000
  H   H1031     1.0  0.66880  0.30908  0.26941  1.0000
  P   P42       1.0  0.79251  0.02965  0.29191  1.0000
  H   H1032     1.0  0.82764  0.32423  0.47040  1.0000
  C   C1285     1.0  0.61526  0.01700  0.42493  1.0000
  H   H1033     1.0  0.52769  0.40378  0.45209  1.0000
  H   H1034     1.0  0.94069  0.37463  0.38686  1.0000
  Fe  Fe93      1.0  0.52176  0.18803  0.43597  1.0000
  H   H1035     1.0  0.65820  0.25445  0.44998  1.0000
  H   H1036     1.0  0.61226  0.35077  0.29940  1.0000
  H   H1037     1.0  0.60719  0.41871  0.35916  1.0000
  C   C1286     1.0  0.65056  0.00176  0.37734  1.0000
  C   C1287     1.0  0.52449  0.31249  0.43049  1.0000
  Fe  Fe94      1.0  0.77628  0.45923  0.45015  1.0000
  C   C1288     1.0  0.69816  0.11114  0.46829  1.0000
  H   H1038     1.0  0.71612  0.08286  0.46464  1.0000
  C   C1289     1.0  0.89348  0.34545  0.45124  1.0000
  H   H1039     1.0  0.66681  0.05200  0.46445  1.0000
  C   C1290     1.0  0.90105  0.11865  0.37785  1.0000
  H   H1040     1.0  0.61963  0.14371  0.28039  1.0000
  H   H1041     1.0  0.85839  0.30546  0.45569  1.0000
  H   H1042     1.0  0.81085  0.34076  0.42163  1.0000
  C   C1291     1.0  0.84806  0.02152  0.47108  1.0000
  S   S181      1.0  0.69539  0.45888  0.40411  1.0000
  C   C1292     1.0  0.88828  0.39979  0.37157  1.0000
  C   C1293     1.0  0.88493  0.38553  0.39300  1.0000
  C   C1294     1.0  0.86210  0.35982  0.39617  1.0000
  C   C1295     1.0  0.84242  0.34852  0.37804  1.0000
  C   C1296     1.0  0.84557  0.36267  0.35636  1.0000
  C   C1297     1.0  0.86899  0.38829  0.35320  1.0000
  P   P43       1.0  0.81854  0.34849  0.33391  1.0000
  C   C1298     1.0  0.82186  0.37552  0.31294  1.0000
  C   C1299     1.0  0.82066  0.32035  0.31895  1.0000
  C   C1300     1.0  0.81805  0.31821  0.29419  1.0000
  C   C1301     1.0  0.82010  0.29665  0.28273  1.0000
  C   C1302     1.0  0.82421  0.27672  0.29589  1.0000
  C   C1303     1.0  0.82577  0.27807  0.32053  1.0000
  C   C1304     1.0  0.82403  0.29976  0.33202  1.0000
  C   C1305     1.0  0.80294  0.38672  0.31241  1.0000
  C   C1306     1.0  0.80682  0.40854  0.29688  1.0000
  C   C1307     1.0  0.82957  0.41939  0.28179  1.0000
  C   C1308     1.0  0.84825  0.40813  0.28195  1.0000
  C   C1309     1.0  0.84437  0.38624  0.29733  1.0000
  C   C1310     1.0  0.78711  0.33581  0.35092  1.0000
  C   C1311     1.0  0.78329  0.35396  0.36601  1.0000
  C   C1312     1.0  0.76152  0.34406  0.38205  1.0000
  C   C1313     1.0  0.74372  0.31580  0.38358  1.0000
  C   C1314     1.0  0.74784  0.29748  0.36916  1.0000
  C   C1315     1.0  0.76906  0.30740  0.35256  1.0000
  H   H1043     1.0  0.90654  0.41924  0.36872  1.0000
  H   H1044     1.0  0.90066  0.39383  0.40670  1.0000
  H   H1045     1.0  0.86006  0.34823  0.41239  1.0000
  H   H1046     1.0  0.82470  0.32875  0.38106  1.0000
  H   H1047     1.0  0.87279  0.39970  0.33674  1.0000
  H   H1048     1.0  0.81470  0.33322  0.28356  1.0000
  H   H1049     1.0  0.81883  0.29555  0.26362  1.0000
  H   H1050     1.0  0.82612  0.26019  0.28703  1.0000
  H   H1051     1.0  0.82865  0.26247  0.33081  1.0000
  H   H1052     1.0  0.82553  0.30040  0.35110  1.0000
  H   H1053     1.0  0.78572  0.37950  0.32440  1.0000
  H   H1054     1.0  0.79289  0.41791  0.29731  1.0000
  H   H1055     1.0  0.83333  0.43716  0.27060  1.0000
  H   H1056     1.0  0.86639  0.41705  0.27078  1.0000
  H   H1057     1.0  0.85962  0.37837  0.29768  1.0000
  H   H1058     1.0  0.79785  0.37572  0.36598  1.0000
  H   H1059     1.0  0.75923  0.35837  0.39381  1.0000
  C   C1316     1.0  0.68631  0.44023  0.35759  1.0000
  C   C1317     1.0  0.82411  0.44726  0.35629  1.0000
  H   H1060     1.0  0.89374  0.09144  0.24259  1.0000
  H   H1061     1.0  0.62138  0.35597  0.35336  1.0000
  H   H1062     1.0  0.71014  0.37798  0.30286  1.0000
  S   S182      1.0  0.76757  0.99788  0.47756  1.0000
  H   H1063     1.0  0.66329  0.02112  0.36846  1.0000
  H   H1064     1.0  0.77068  0.34236  0.27723  1.0000
  H   H1065     1.0  0.62428  0.15230  0.44613  1.0000
  Fe  Fe95      1.0  0.56212  0.16369  0.42689  1.0000
  S   S183      1.0  0.57079  0.12705  0.42116  1.0000
  S   S184      1.0  0.74889  0.43254  0.42127  1.0000
  S   S185      1.0  0.53904  0.17973  0.40272  1.0000
  C   C1318     1.0  0.87633  0.00312  0.42859  1.0000
  C   C1319     1.0  0.60061  0.43816  0.26013  1.0000
  C   C1320     1.0  0.65920  0.99520  0.39927  1.0000
  C   C1321     1.0  0.64365  0.33793  0.30867  1.0000
  C   C1322     1.0  0.73599  0.22459  0.44689  1.0000
  C   C1323     1.0  0.90364  0.37396  0.45370  1.0000
  C   C1324     1.0  0.65116  0.33263  0.47460  1.0000
  C   C1325     1.0  0.72392  0.22759  0.29236  1.0000
  C   C1326     1.0  0.55197  0.31871  0.42502  1.0000
  C   C1327     1.0  0.50825  0.26663  0.41475  1.0000
  H   H1066     1.0  0.74174  0.02946  0.37728  1.0000
  C   C1328     1.0  0.49187  0.41604  0.27279  1.0000
  C   C1329     1.0  0.89080  0.46121  0.39832  1.0000
  C   C1330     1.0  0.82515  0.01712  0.37726  1.0000
  C   C1331     1.0  0.86147  0.14354  0.35270  1.0000
  C   C1332     1.0  0.63153  0.10660  0.23859  1.0000
  C   C1333     1.0  0.62561  0.36036  0.37204  1.0000
  H   H1067     1.0  0.57552  0.07992  0.44894  1.0000
  C   C1334     1.0  0.82589  0.13388  0.32254  1.0000
  C   C1335     1.0  0.60878  0.35987  0.41171  1.0000
  H   H1068     1.0  0.87531  0.44523  0.32377  1.0000
  C   C1336     1.0  0.88475  0.09008  0.38089  1.0000
  P   P44       1.0  0.71824  0.28938  0.45743  1.0000
  C   C1337     1.0  0.62911  0.42442  0.35869  1.0000
  H   H1069     1.0  0.81774  0.99493  0.27580  1.0000
  C   C1338     1.0  0.71319  0.09702  0.47615  1.0000
  C   C1339     1.0  0.91571  0.46025  0.40363  1.0000
  S   S186      1.0  0.81474  0.47694  0.42843  1.0000
  C   C1340     1.0  0.91012  0.13544  0.39793  1.0000
  C   C1341     1.0  0.67696  0.32475  0.41858  1.0000
  C   C1342     1.0  0.59832  0.46047  0.26983  1.0000
  H   H1070     1.0  0.95001  0.12813  0.27367  1.0000
  C   C1343     1.0  0.82481  0.06378  0.25499  1.0000
  C   C1344     1.0  0.75142  0.31920  0.45311  1.0000
  C   C1345     1.0  0.60363  0.35295  0.38768  1.0000
  C   C1346     1.0  0.79999  0.36725  0.44217  1.0000
  H   H1071     1.0  0.82663  0.15226  0.35620  1.0000
  Fe  Fe96      1.0  0.78650  0.45332  0.39887  1.0000
  C   C1347     1.0  0.54102  0.41152  0.41594  1.0000
  H   H1072     1.0  0.56586  0.31036  0.46938  1.0000
  C   C1348     1.0  0.84887  0.33820  0.46578  1.0000
  C   C1349     1.0  0.53933  0.39996  0.43853  1.0000
  H   H1073     1.0  0.92171  0.08663  0.35354  1.0000
  C   C1350     1.0  0.56845  0.38942  0.40315  1.0000
  C   C1351     1.0  0.91866  0.44794  0.42479  1.0000
  H   H1074     1.0  0.71699  0.24203  0.24753  1.0000
  C   C1352     1.0  0.70665  0.31856  0.25139  1.0000
  H   H1075     1.0  0.53059  0.42410  0.41183  1.0000
  H   H1076     1.0  0.61547  0.39865  0.46125  1.0000
  C   C1353     1.0  0.70857  0.01023  0.35170  1.0000
  C   C1354     1.0  0.79567  0.34186  0.43315  1.0000
  H   H1077     1.0  0.92145  0.15769  0.39624  1.0000
  H   H1078     1.0  0.87652  0.07688  0.36567  1.0000
  C   C1355     1.0  0.56654  0.37732  0.42565  1.0000
  S   S187      1.0  0.90035  0.01202  0.28982  1.0000
  C   C1356     1.0  0.67488  0.44418  0.37830  1.0000
  H   H1079     1.0  0.92479  0.38747  0.44860  1.0000
  H   H1080     1.0  0.57918  0.38544  0.38902  1.0000
  C   C1357     1.0  0.50281  0.28651  0.42544  1.0000
  C   C1358     1.0  0.64620  0.43622  0.37868  1.0000
  C   C1359     1.0  0.71938  0.25947  0.44492  1.0000
  H   H1081     1.0  0.58255  0.34250  0.38082  1.0000
  H   H1082     1.0  0.93255  0.46846  0.39103  1.0000
  C   C1360     1.0  0.86893  0.45012  0.41428  1.0000
  H   H1083     1.0  0.96608  0.15712  0.36108  1.0000
  C   C1361     1.0  0.50703  0.44424  0.26734  1.0000
  H   H1084     1.0  0.84940  0.45034  0.40982  1.0000
  H   H1085     1.0  0.84087  0.41840  0.35433  1.0000
  H   H1086     1.0  0.70592  0.02863  0.34846  1.0000
  P   P45       1.0  0.67293  0.19326  0.27164  1.0000
  C   C1362     1.0  0.77156  0.31788  0.43860  1.0000
  H   H1087     1.0  0.49145  0.24650  0.41078  1.0000
  H   H1088     1.0  0.65908  0.35893  0.31173  1.0000
  H   H1089     1.0  0.64025  0.22313  0.28375  1.0000
  C   C1363     1.0  0.93434  0.16914  0.35034  1.0000
  C   C1364     1.0  0.50943  0.46377  0.28427  1.0000
  S   S188      1.0  0.66092  0.05602  0.23387  1.0000
  C   C1365     1.0  0.80396  0.00320  0.39361  1.0000
  H   H1090     1.0  0.62172  0.26318  0.43021  1.0000
  C   C1366     1.0  0.89722  0.43782  0.44147  1.0000
  C   C1367     1.0  0.60751  0.37994  0.47202  1.0000
  C   C1368     1.0  0.70400  0.32341  0.29373  1.0000
  H   H1091     1.0  0.76266  0.25377  0.30989  1.0000
  S   S189      1.0  0.76753  0.07197  0.47355  1.0000
  S   S190      1.0  0.86506  0.02218  0.34578  1.0000
  H   H1092     1.0  0.84523  0.37445  0.47496  1.0000
  C   C1369     1.0  0.63298  0.02200  0.44454  1.0000
  S   S191      1.0  0.50421  0.36092  0.23994  1.0000
  H   H1093     1.0  0.72983  0.20068  0.41548  1.0000
  C   C1370     1.0  0.72879  0.01075  0.36780  1.0000
  H   H1094     1.0  0.87356  0.11384  0.30458  1.0000
  C   C1371     1.0  0.96137  0.17418  0.35709  1.0000
  C   C1372     1.0  0.55209  0.38299  0.44342  1.0000
  C   C1373     1.0  0.98252  0.20126  0.35877  1.0000
  C   C1374     1.0  0.84971  0.07885  0.24297  1.0000
  C   C1375     1.0  0.82654  0.04670  0.45043  1.0000
  C   C1376     1.0  0.86620  0.32757  0.45749  1.0000
  C   C1377     1.0  0.83702  0.14408  0.34483  1.0000
  H   H1095     1.0  0.60418  0.03491  0.39471  1.0000
  H   H1096     1.0  0.83032  0.11475  0.29103  1.0000
  C   C1378     1.0  0.67742  0.35542  0.47457  1.0000
  C   C1379     1.0  0.78982  0.07853  0.35683  1.0000
  C   C1380     1.0  0.73299  0.24622  0.45719  1.0000
  C   C1381     1.0  0.69097  0.31624  0.27144  1.0000
  C   C1382     1.0  0.73281  0.33266  0.29570  1.0000
  C   C1383     1.0  0.87449  0.08002  0.25201  1.0000
  C   C1384     1.0  0.86385  0.12266  0.31589  1.0000
  H   H1097     1.0  0.83120  0.03846  0.37316  1.0000
  C   C1385     1.0  0.76267  0.02021  0.27228  1.0000
  H   H1098     1.0  0.90664  0.33712  0.44426  1.0000
  H   H1099     1.0  0.61314  0.47281  0.28323  1.0000
  C   C1386     1.0  0.83925  0.12309  0.30812  1.0000
  S   S192      1.0  0.49929  0.39256  0.35895  1.0000
  H   H1100     1.0  0.90839  0.18857  0.33954  1.0000
  C   C1387     1.0  0.97561  0.01304  0.40187  1.0000
  H   H1101     1.0  0.93760  0.44611  0.42783  1.0000
  C   C1388     1.0  0.55642  0.44937  0.24633  1.0000
  C   C1389     1.0  0.74841  0.33493  0.27563  1.0000
  H   H1102     1.0  0.74111  0.34619  0.47394  1.0000
  C   C1390     1.0  0.58599  0.08252  0.46599  1.0000
  P   P46       1.0  0.90752  0.13387  0.34848  1.0000
  C   C1391     1.0  0.87532  0.13320  0.33815  1.0000
  H   H1103     1.0  0.63713  0.43919  0.39456  1.0000
  H   H1104     1.0  0.49749  0.33507  0.37465  1.0000
  H   H1105     1.0  0.72378  0.04756  0.24428  1.0000
  C   C1392     1.0  0.83473  0.06584  0.46867  1.0000
  C   C1393     1.0  0.58092  0.42145  0.24358  1.0000
  H   H1106     1.0  0.76756  0.99565  0.33394  1.0000
  C   C1394     1.0  0.92681  0.09556  0.33602  1.0000
  C   C1395     1.0  0.97683  0.22350  0.35373  1.0000
  H   H1107     1.0  0.92685  0.14677  0.30005  1.0000
  H   H1108     1.0  0.68704  0.14356  0.47738  1.0000
  H   H1109     1.0  0.82962  0.08116  0.36594  1.0000
  H   H1110     1.0  0.74220  0.25294  0.47446  1.0000
  C   C1396     1.0  0.79272  0.99859  0.30373  1.0000
  C   C1397     1.0  0.95003  0.21867  0.34687  1.0000
  C   C1398     1.0  0.92885  0.19162  0.34506  1.0000
  H   H1111     1.0  0.86969  0.15156  0.37008  1.0000
  H   H1112     1.0  0.96347  0.02218  0.40939  1.0000
  C   C1399     1.0  0.92144  0.11760  0.32858  1.0000
  C   C1400     1.0  0.92992  0.12922  0.30593  1.0000
  C   C1401     1.0  0.55579  0.40644  0.39836  1.0000
  H   H1113     1.0  0.55680  0.41513  0.38074  1.0000
  H   H1114     1.0  0.80664  0.13388  0.31667  1.0000
  H   H1115     1.0  0.71855  0.33717  0.43025  1.0000
  C   C1402     1.0  0.81260  0.07361  0.35326  1.0000
  C   C1403     1.0  0.87209  0.43850  0.43577  1.0000
  H   H1116     1.0  0.81830  0.38585  0.43726  1.0000
  C   C1404     1.0  0.76794  0.06919  0.34045  1.0000
  P   P47       1.0  0.90064  0.42116  0.46860  1.0000
  H   H1117     1.0  0.63926  0.32591  0.45833  1.0000
  C   C1405     1.0  0.83863  0.00366  0.36636  1.0000
  C   C1406     1.0  0.84964  0.05134  0.28527  1.0000
  C   C1407     1.0  0.93983  0.08507  0.32091  1.0000
  C   C1408     1.0  0.82454  0.04983  0.27628  1.0000
  P   P48       1.0  0.52624  0.45472  0.24016  1.0000
  H   H1118     1.0  0.82519  0.00897  0.43820  1.0000
  Fe  Fe97      1.0  0.88621  0.00026  0.32731  1.0000
  H   H1119     1.0  0.61716  0.43330  0.26602  1.0000
  C   C1409     1.0  0.88666  0.38471  0.46292  1.0000
  H   H1120     1.0  0.67865  0.00948  0.40732  1.0000
  C   C1410     1.0  0.71551  0.00496  0.24288  1.0000
  C   C1411     1.0  0.75646  0.34463  0.46293  1.0000
  C   C1412     1.0  0.78061  0.36859  0.45738  1.0000
  C   C1413     1.0  0.86203  0.45320  0.33085  1.0000
  C   C1414     1.0  0.49627  0.45508  0.30610  1.0000
  H   H1121     1.0  0.85484  0.43000  0.44784  1.0000
  H   H1122     1.0  0.58207  0.40353  0.23671  1.0000
  H   H1123     1.0  0.63198  0.00477  0.45527  1.0000
  H   H1124     1.0  0.69654  0.31332  0.23419  1.0000
  H   H1125     1.0  0.59864  0.09737  0.26343  1.0000
  H   H1126     1.0  0.81177  0.47979  0.35419  1.0000
  C   C1415     1.0  0.75427  0.04005  0.26436  1.0000
  S   S193      1.0  0.80288  0.26474  0.47467  1.0000
  C   C1416     1.0  0.95575  0.46164  0.47334  1.0000
  Fe  Fe98      1.0  0.92597  0.49062  0.30314  1.0000
  C   C1417     1.0  0.88545  0.99681  0.40764  1.0000
  C   C1418     1.0  0.85896  0.36668  0.46834  1.0000
  H   H1127     1.0  0.60053  0.99599  0.42058  1.0000
  S   S194      1.0  0.77662  0.48738  0.38643  1.0000
  H   H1128     1.0  0.82892  0.08254  0.46802  1.0000
  C   C1419     1.0  0.57954  0.33046  0.47648  1.0000
  H   H1129     1.0  0.49847  0.47010  0.31932  1.0000
  H   H1130     1.0  0.74751  0.32997  0.23789  1.0000
  H   H1131     1.0  0.78152  0.12920  0.47725  1.0000
  H   H1132     1.0  0.66293  0.21547  0.47640  1.0000
  H   H1133     1.0  0.79121  0.20696  0.48044  1.0000
  C   C1420     1.0  0.59922  0.06634  0.47220  1.0000
  H   H1134     1.0  0.57709  0.11547  0.47588  1.0000
  C   C1421     1.0  0.58676  0.10259  0.48146  1.0000
  H   H1135     1.0  0.90920  0.03499  0.47995  1.0000
  H   H1136     1.0  0.49425  0.48580  0.23838  1.0000
  C   C1422     1.0  0.84535  0.48763  0.33066  1.0000
  C   C1423     1.0  0.64686  0.21234  0.23842  1.0000
  C   C1424     1.0  0.66914  0.15315  0.23985  1.0000
  C   C1425     1.0  0.69696  0.23871  0.24055  1.0000
  C   C1426     1.0  0.74742  0.99276  0.26486  1.0000
  H   H1137     1.0  0.48609  0.26048  0.47757  1.0000
  C   C1427     1.0  0.93634  0.43437  0.47857  1.0000
  H   H1138     1.0  0.62770  0.19508  0.24416  1.0000
  H   H1139     1.0  0.88255  0.46358  0.47932  1.0000
  C   C1428     1.0  0.98322  0.47190  0.48143  1.0000
  H   H1140     1.0  0.68893  0.16845  0.23322  1.0000
  C   C1429     1.0  0.53556  0.49022  0.23269  1.0000
  H   H1141     1.0  0.72178  0.00589  0.54059  1.0000
  S   S195      1.0  0.86240  0.46197  0.61344  1.0000
  Fe  Fe99      1.0  0.79846  0.44012  0.65242  1.0000
  S   S196      1.0  0.79454  0.42919  0.61416  1.0000
  S   S197      1.0  0.75988  0.42387  0.67444  1.0000
  Fe  Fe100     1.0  0.82985  0.41907  0.62174  1.0000
  S   S198      1.0  0.83215  0.38362  0.60334  1.0000
  Fe  Fe101     1.0  0.82728  0.47278  0.60905  1.0000
  S   S199      1.0  0.83134  0.42642  0.66066  1.0000
  Fe  Fe102     1.0  0.61119  0.35186  0.62519  1.0000
  S   S200      1.0  0.59400  0.33552  0.66114  1.0000
  S   S201      1.0  0.64778  0.39278  0.61669  1.0000
  Fe  Fe103     1.0  0.56721  0.30154  0.59967  1.0000
  S   S202      1.0  0.54614  0.28098  0.63345  1.0000
  S   S203      1.0  0.54895  0.28286  0.56431  1.0000
  Fe  Fe104     1.0  0.55191  0.32293  0.64427  1.0000
  S   S204      1.0  0.51833  0.33358  0.65740  1.0000
  Fe  Fe105     1.0  0.58964  0.29516  0.64727  1.0000
  S   S205      1.0  0.60343  0.26779  0.66808  1.0000
  S   S206      1.0  0.56959  0.34245  0.60913  1.0000
  S   S207      1.0  0.61021  0.31261  0.61266  1.0000
  Fe  Fe106     1.0  0.74736  0.22794  0.63282  1.0000
  S   S208      1.0  0.73318  0.23165  0.59598  1.0000
  S   S209      1.0  0.77973  0.26479  0.65213  1.0000
  Fe  Fe107     1.0  0.70576  0.16708  0.63888  1.0000
  S   S210      1.0  0.68868  0.16641  0.60210  1.0000
  S   S211      1.0  0.68226  0.12580  0.65824  1.0000
  Fe  Fe108     1.0  0.73276  0.19067  0.59062  1.0000
  S   S212      1.0  0.74559  0.17726  0.55728  1.0000
  Fe  Fe109     1.0  0.69053  0.20720  0.61053  1.0000
  S   S213      1.0  0.65546  0.21576  0.59759  1.0000
  S   S214      1.0  0.75012  0.18829  0.62671  1.0000
  S   S215      1.0  0.70436  0.20649  0.64801  1.0000
  C   C1430     1.0  0.54361  0.21739  0.71201  1.0000
  C   C1431     1.0  0.48902  0.33742  0.69497  1.0000
  C   C1432     1.0  0.76213  0.20191  0.53461  1.0000
  C   C1433     1.0  0.77152  0.19414  0.51445  1.0000
  C   C1434     1.0  0.78403  0.21315  0.49587  1.0000
  C   C1435     1.0  0.78752  0.24019  0.49750  1.0000
  C   C1436     1.0  0.77835  0.24802  0.51767  1.0000
  C   C1437     1.0  0.76559  0.22895  0.53611  1.0000
  H   H1142     1.0  0.76939  0.17344  0.51323  1.0000
  C   C1438     1.0  0.49990  0.30145  0.72425  1.0000
  H   H1143     1.0  0.78139  0.26901  0.51914  1.0000
  H   H1144     1.0  0.75869  0.23528  0.55154  1.0000
  C   C1439     1.0  0.68887  0.11582  0.68685  1.0000
  C   C1440     1.0  0.50043  0.44696  0.69296  1.0000
  C   C1441     1.0  0.70924  0.13428  0.70210  1.0000
  C   C1442     1.0  0.72303  0.12060  0.51357  1.0000
  H   H1145     1.0  0.72149  0.15555  0.69662  1.0000
  C   C1443     1.0  0.56485  0.26897  0.54546  1.0000
  C   C1444     1.0  0.55216  0.25869  0.52353  1.0000
  C   C1445     1.0  0.56374  0.24702  0.50804  1.0000
  C   C1446     1.0  0.58831  0.24575  0.51425  1.0000
  C   C1447     1.0  0.60108  0.25608  0.53620  1.0000
  C   C1448     1.0  0.58944  0.26774  0.55177  1.0000
  H   H1146     1.0  0.53338  0.25998  0.51835  1.0000
  H   H1147     1.0  0.72665  0.33998  0.51389  1.0000
  H   H1148     1.0  0.61983  0.25483  0.54138  1.0000
  H   H1149     1.0  0.59933  0.27547  0.56870  1.0000
  C   C1449     1.0  0.61762  0.25267  0.64897  1.0000
  C   C1450     1.0  0.63874  0.24618  0.65693  1.0000
  C   C1451     1.0  0.65095  0.23529  0.64122  1.0000
  C   C1452     1.0  0.64145  0.23009  0.61774  1.0000
  C   C1453     1.0  0.62006  0.23622  0.61000  1.0000
  C   C1454     1.0  0.60840  0.24775  0.62548  1.0000
  H   H1150     1.0  0.64608  0.25017  0.67506  1.0000
  H   H1151     1.0  0.66748  0.23076  0.64736  1.0000
  H   H1152     1.0  0.61285  0.23255  0.59182  1.0000
  H   H1153     1.0  0.59216  0.25275  0.61924  1.0000
  C   C1455     1.0  0.71255  0.28317  0.48898  1.0000
  C   C1456     1.0  0.51116  0.30784  0.70138  1.0000
  H   H1154     1.0  0.52403  0.29885  0.69519  1.0000
  C   C1457     1.0  0.67882  0.40098  0.63279  1.0000
  C   C1458     1.0  0.67847  0.38887  0.65492  1.0000
  C   C1459     1.0  0.70343  0.39603  0.66761  1.0000
  C   C1460     1.0  0.72889  0.41494  0.65806  1.0000
  C   C1461     1.0  0.72923  0.42692  0.63586  1.0000
  C   C1462     1.0  0.70425  0.42022  0.62341  1.0000
  H   H1155     1.0  0.65891  0.37447  0.66244  1.0000
  H   H1156     1.0  0.70307  0.38695  0.68487  1.0000
  H   H1157     1.0  0.74868  0.44194  0.62852  1.0000
  H   H1158     1.0  0.70474  0.42994  0.60644  1.0000
  C   C1463     1.0  0.81554  0.35066  0.61696  1.0000
  C   C1464     1.0  0.81237  0.34770  0.64150  1.0000
  C   C1465     1.0  0.80112  0.32125  0.65207  1.0000
  C   C1466     1.0  0.79215  0.29756  0.63817  1.0000
  C   C1467     1.0  0.79457  0.30051  0.61357  1.0000
  C   C1468     1.0  0.80657  0.32700  0.60304  1.0000
  H   H1159     1.0  0.81926  0.36578  0.65241  1.0000
  H   H1160     1.0  0.79951  0.31913  0.67108  1.0000
  H   H1161     1.0  0.78818  0.28243  0.60273  1.0000
  H   H1162     1.0  0.80910  0.32913  0.58407  1.0000
  H   H1163     1.0  0.95017  0.47029  0.72751  1.0000
  C   C1469     1.0  0.67944  0.34284  0.72501  1.0000
  S   S216      1.0  0.60307  0.23111  0.49489  1.0000
  C   C1470     1.0  0.80020  0.48344  0.51033  1.0000
  P   P49       1.0  0.69995  0.36407  0.54441  1.0000
  C   C1471     1.0  0.73445  0.36702  0.54362  1.0000
  C   C1472     1.0  0.70080  0.39728  0.54823  1.0000
  C   C1473     1.0  0.72331  0.42124  0.53978  1.0000
  C   C1474     1.0  0.72411  0.44708  0.54256  1.0000
  C   C1475     1.0  0.70211  0.44910  0.55341  1.0000
  C   C1476     1.0  0.67917  0.42519  0.56121  1.0000
  C   C1477     1.0  0.67841  0.39932  0.55850  1.0000
  C   C1478     1.0  0.75343  0.38141  0.56164  1.0000
  C   C1479     1.0  0.77918  0.38126  0.56307  1.0000
  C   C1480     1.0  0.78633  0.36700  0.54650  1.0000
  C   C1481     1.0  0.74150  0.35231  0.52719  1.0000
  C   C1482     1.0  0.68597  0.34147  0.56958  1.0000
  C   C1483     1.0  0.67852  0.31332  0.56745  1.0000
  C   C1484     1.0  0.67119  0.29602  0.58734  1.0000
  C   C1485     1.0  0.67165  0.30680  0.60963  1.0000
  C   C1486     1.0  0.67979  0.33497  0.61205  1.0000
  C   C1487     1.0  0.68711  0.35232  0.59212  1.0000
  C   C1488     1.0  0.51503  0.43237  0.68637  1.0000
  C   C1489     1.0  0.55849  0.16718  0.60719  1.0000
  H   H1164     1.0  0.74022  0.41996  0.53096  1.0000
  H   H1165     1.0  0.74191  0.46552  0.53636  1.0000
  H   H1166     1.0  0.70292  0.46917  0.55589  1.0000
  H   H1167     1.0  0.66228  0.42669  0.57000  1.0000
  H   H1168     1.0  0.66062  0.38104  0.56491  1.0000
  H   H1169     1.0  0.74819  0.39244  0.57481  1.0000
  H   H1170     1.0  0.79370  0.39242  0.57696  1.0000
  H   H1171     1.0  0.80931  0.44378  0.56502  1.0000
  H   H1172     1.0  0.67911  0.30489  0.55048  1.0000
  H   H1173     1.0  0.67759  0.02010  0.69801  1.0000
  H   H1174     1.0  0.66627  0.29340  0.62506  1.0000
  H   H1175     1.0  0.68074  0.34350  0.62938  1.0000
  H   H1176     1.0  0.69437  0.37422  0.59452  1.0000
  C   C1490     1.0  0.58230  0.40088  0.66285  1.0000
  C   C1491     1.0  0.60803  0.42300  0.65776  1.0000
  C   C1492     1.0  0.61486  0.44911  0.66670  1.0000
  C   C1493     1.0  0.59589  0.45317  0.68058  1.0000
  C   C1494     1.0  0.56983  0.43102  0.68563  1.0000
  C   C1495     1.0  0.56342  0.40477  0.67688  1.0000
  H   H1177     1.0  0.48528  0.35182  0.68386  1.0000
  S   S217      1.0  0.70881  0.99976  0.48509  1.0000
  C   C1496     1.0  0.60026  0.10620  0.50356  1.0000
  C   C1497     1.0  0.88031  0.99541  0.49460  1.0000
  H   H1178     1.0  0.62277  0.41980  0.64708  1.0000
  H   H1179     1.0  0.70544  0.22369  0.49988  1.0000
  H   H1180     1.0  0.91545  0.47519  0.59609  1.0000
  C   C1498     1.0  0.68586  0.27279  0.49863  1.0000
  H   H1181     1.0  0.55289  0.19052  0.52352  1.0000
  C   C1499     1.0  0.66139  0.01003  0.68481  1.0000
  C   C1500     1.0  0.62141  0.16240  0.65694  1.0000
  H   H1182     1.0  0.84873  0.43885  0.54870  1.0000
  H   H1183     1.0  0.51656  0.40399  0.66060  1.0000
  H   H1184     1.0  0.83142  0.39390  0.72944  1.0000
  C   C1501     1.0  0.48756  0.48935  0.50645  1.0000
  H   H1185     1.0  0.74314  0.32366  0.59065  1.0000
  C   C1502     1.0  0.56846  0.12584  0.67277  1.0000
  C   C1503     1.0  0.93503  0.48018  0.53005  1.0000
  C   C1504     1.0  0.92279  0.45453  0.56709  1.0000
  H   H1186     1.0  0.73852  0.10663  0.68383  1.0000
  C   C1505     1.0  0.80684  0.45492  0.54988  1.0000
  C   C1506     1.0  0.79629  0.44120  0.52853  1.0000
  H   H1187     1.0  0.53891  0.35001  0.56452  1.0000
  C   C1507     1.0  0.79248  0.38730  0.71336  1.0000
  Fe  Fe110     1.0  0.86164  0.47048  0.65206  1.0000
  C   C1508     1.0  0.94462  0.41780  0.49279  1.0000
  H   H1188     1.0  0.73316  0.12479  0.53082  1.0000
  H   H1189     1.0  0.75246  0.27788  0.68548  1.0000
  H   H1190     1.0  0.67896  0.31107  0.66418  1.0000
  H   H1191     1.0  0.57009  0.17394  0.57063  1.0000
  H   H1192     1.0  0.50927  0.12415  0.69340  1.0000
  H   H1193     1.0  0.97843  0.41502  0.51151  1.0000
  C   C1509     1.0  0.57233  0.14993  0.66025  1.0000
  H   H1194     1.0  0.75578  0.29458  0.49714  1.0000
  C   C1510     1.0  0.63449  0.16251  0.51640  1.0000
  C   C1511     1.0  0.65888  0.16670  0.52884  1.0000
  P   P50       1.0  0.60211  0.13282  0.52311  1.0000
  C   C1512     1.0  0.60131  0.12378  0.55406  1.0000
  C   C1513     1.0  0.57227  0.13919  0.51938  1.0000
  C   C1514     1.0  0.54588  0.11697  0.51556  1.0000
  C   C1515     1.0  0.52231  0.12138  0.51424  1.0000
  C   C1516     1.0  0.52483  0.14788  0.51722  1.0000
  H   H1195     1.0  0.56387  0.49057  0.68286  1.0000
  C   C1517     1.0  0.57460  0.16569  0.52261  1.0000
  C   C1518     1.0  0.58755  0.09611  0.56171  1.0000
  C   C1519     1.0  0.58649  0.08952  0.58588  1.0000
  C   C1520     1.0  0.59888  0.11051  0.60250  1.0000
  C   C1521     1.0  0.61197  0.13808  0.59497  1.0000
  C   C1522     1.0  0.61286  0.14474  0.57092  1.0000
  C   C1523     1.0  0.61426  0.09047  0.50938  1.0000
  H   H1196     1.0  0.86650  0.03811  0.50518  1.0000
  H   H1197     1.0  0.92989  0.39689  0.49761  1.0000
  C   C1524     1.0  0.56842  0.19846  0.68938  1.0000
  H   H1198     1.0  0.61951  0.30112  0.49575  1.0000
  H   H1199     1.0  0.63502  0.46615  0.66297  1.0000
  H   H1200     1.0  0.65847  0.15296  0.54315  1.0000
  H   H1201     1.0  0.94046  0.00497  0.53834  1.0000
  C   C1525     1.0  0.92751  0.02267  0.50906  1.0000
  C   C1526     1.0  0.50617  0.41578  0.66615  1.0000
  H   H1202     1.0  0.88109  0.39098  0.51333  1.0000
  H   H1203     1.0  0.57760  0.07968  0.54908  1.0000
  H   H1204     1.0  0.57618  0.06814  0.59174  1.0000
  H   H1205     1.0  0.59844  0.10549  0.62120  1.0000
  H   H1206     1.0  0.62165  0.15448  0.60770  1.0000
  H   H1207     1.0  0.62279  0.16635  0.56557  1.0000
  H   H1208     1.0  0.62585  0.09380  0.52585  1.0000
  H   H1209     1.0  0.58802  0.19894  0.68498  1.0000
  H   H1210     1.0  0.54627  0.35267  0.52122  1.0000
  H   H1211     1.0  0.70285  0.19254  0.53313  1.0000
  C   C1527     1.0  0.68839  0.01235  0.59866  1.0000
  C   C1528     1.0  0.71110  0.03562  0.58937  1.0000
  C   C1529     1.0  0.72265  0.03331  0.56801  1.0000
  P   P51       1.0  0.72233  0.06876  0.60311  1.0000
  C   C1530     1.0  0.69655  0.07967  0.59415  1.0000
  C   C1531     1.0  0.72674  0.06706  0.63481  1.0000
  C   C1532     1.0  0.73144  0.08996  0.64868  1.0000
  C   C1533     1.0  0.72721  0.04376  0.64577  1.0000
  C   C1534     1.0  0.69338  0.08440  0.57002  1.0000
  C   C1535     1.0  0.67445  0.09403  0.56259  1.0000
  C   C1536     1.0  0.65825  0.09858  0.57918  1.0000
  C   C1537     1.0  0.66054  0.09294  0.60312  1.0000
  C   C1538     1.0  0.67956  0.08342  0.61062  1.0000
  C   C1539     1.0  0.75581  0.09358  0.59241  1.0000
  C   C1540     1.0  0.77780  0.08657  0.59188  1.0000
  H   H1212     1.0  0.78970  0.15965  0.57101  1.0000
  H   H1213     1.0  0.75191  0.36264  0.65735  1.0000
  C   C1541     1.0  0.78640  0.13919  0.57672  1.0000
  C   C1542     1.0  0.76047  0.12027  0.58524  1.0000
  C   C1543     1.0  0.51215  0.31262  0.51475  1.0000
  H   H1214     1.0  0.94721  0.04112  0.50804  1.0000
  H   H1215     1.0  0.67855  0.01387  0.61464  1.0000
  H   H1216     1.0  0.73926  0.05109  0.55973  1.0000
  H   H1217     1.0  0.73202  0.10853  0.64063  1.0000
  H   H1218     1.0  0.72502  0.02626  0.63557  1.0000
  H   H1219     1.0  0.70607  0.08123  0.55701  1.0000
  H   H1220     1.0  0.67283  0.09849  0.54404  1.0000
  H   H1221     1.0  0.64436  0.10700  0.57357  1.0000
  H   H1222     1.0  0.64832  0.09687  0.61608  1.0000
  H   H1223     1.0  0.68122  0.07964  0.62929  1.0000
  H   H1224     1.0  0.77481  0.06634  0.59791  1.0000
  H   H1225     1.0  0.69410  0.20350  0.71952  1.0000
  H   H1226     1.0  0.64458  0.31795  0.53337  1.0000
  C   C1544     1.0  0.68425  0.18895  0.52302  1.0000
  H   H1227     1.0  0.74431  0.12678  0.58628  1.0000
  C   C1545     1.0  0.54806  0.17555  0.62631  1.0000
  C   C1546     1.0  0.77931  0.33123  0.71422  1.0000
  H   H1228     1.0  0.73680  0.06453  0.70311  1.0000
  H   H1229     1.0  0.91866  0.43601  0.57737  1.0000
  C   C1547     1.0  0.69249  0.26534  0.71301  1.0000
  H   H1230     1.0  0.71265  0.38230  0.49554  1.0000
  C   C1548     1.0  0.80374  0.10557  0.58337  1.0000
  H   H1231     1.0  0.54828  0.11148  0.67927  1.0000
  H   H1232     1.0  0.50210  0.10429  0.51072  1.0000
  H   H1233     1.0  0.94114  0.48157  0.51183  1.0000
  H   H1234     1.0  0.65680  0.07406  0.68298  1.0000
  H   H1235     1.0  0.58760  0.23056  0.71507  1.0000
  H   H1236     1.0  0.93220  0.43957  0.53532  1.0000
  H   H1237     1.0  0.53217  0.20377  0.63713  1.0000
  S   S218      1.0  0.82885  0.48495  0.64710  1.0000
  C   C1549     1.0  0.80799  0.13181  0.57566  1.0000
  C   C1550     1.0  0.93027  0.45650  0.54339  1.0000
  C   C1551     1.0  0.55093  0.16996  0.52145  1.0000
  C   C1552     1.0  0.50388  0.30959  0.56361  1.0000
  C   C1553     1.0  0.50559  0.32574  0.68660  1.0000
  C   C1554     1.0  0.61506  0.38164  0.49598  1.0000
  H   H1238     1.0  0.60197  0.47349  0.68754  1.0000
  C   C1555     1.0  0.89458  0.43961  0.71709  1.0000
  C   C1556     1.0  0.53358  0.40999  0.72735  1.0000
  H   H1239     1.0  0.73808  0.22961  0.69776  1.0000
  C   C1557     1.0  0.68161  0.26495  0.52249  1.0000
  C   C1558     1.0  0.70396  0.26833  0.53722  1.0000
  C   C1559     1.0  0.73069  0.27960  0.52806  1.0000
  C   C1560     1.0  0.73498  0.28684  0.50405  1.0000
  C   C1561     1.0  0.65446  0.32812  0.51708  1.0000
  C   C1562     1.0  0.51897  0.18203  0.68307  1.0000
  C   C1563     1.0  0.55998  0.46959  0.71658  1.0000
  H   H1240     1.0  0.62442  0.05837  0.49829  1.0000
  H   H1241     1.0  0.66079  0.25570  0.52947  1.0000
  H   H1242     1.0  0.70047  0.26192  0.55568  1.0000
  H   H1243     1.0  0.74802  0.28210  0.53951  1.0000
  C   C1564     1.0  0.81151  0.37879  0.72274  1.0000
  C   C1565     1.0  0.71745  0.28023  0.70078  1.0000
  C   C1566     1.0  0.63620  0.17994  0.49715  1.0000
  C   C1567     1.0  0.61361  0.07051  0.49378  1.0000
  C   C1568     1.0  0.65931  0.02480  0.66503  1.0000
  C   C1569     1.0  0.63877  0.01159  0.64786  1.0000
  C   C1570     1.0  0.88680  0.41973  0.69948  1.0000
  C   C1571     1.0  0.49915  0.11493  0.67685  1.0000
  H   H1244     1.0  0.67388  0.04641  0.66298  1.0000
  H   H1245     1.0  0.63738  0.02306  0.63242  1.0000
  H   H1246     1.0  0.62908  0.40141  0.50349  1.0000
  C   C1572     1.0  0.71373  0.12514  0.72460  1.0000
  H   H1247     1.0  0.54392  0.38713  0.68114  1.0000
  H   H1248     1.0  0.70799  0.15075  0.51700  1.0000
  H   H1249     1.0  0.64193  0.17660  0.65081  1.0000
  H   H1250     1.0  0.55539  0.21084  0.56446  1.0000
  S   S219      1.0  0.77580  0.43596  0.48368  1.0000
  H   H1251     1.0  0.50632  0.45958  0.70863  1.0000
  C   C1573     1.0  0.76697  0.36783  0.70432  1.0000
  C   C1574     1.0  0.88204  0.39283  0.70526  1.0000
  C   C1575     1.0  0.84958  0.06289  0.48815  1.0000
  C   C1576     1.0  0.70877  0.13526  0.50574  1.0000
  H   H1252     1.0  0.57835  0.31408  0.51176  1.0000
  C   C1577     1.0  0.72524  0.10151  0.49877  1.0000
  H   H1253     1.0  0.60238  0.18681  0.64291  1.0000
  H   H1254     1.0  0.53670  0.22575  0.59779  1.0000
  H   H1255     1.0  0.56486  0.15102  0.60944  1.0000
  C   C1578     1.0  0.85611  0.04072  0.48946  1.0000
  H   H1256     1.0  0.56843  0.40044  0.72530  1.0000
  H   H1257     1.0  0.73704  0.09072  0.50450  1.0000
  C   C1579     1.0  0.49781  0.11445  0.63399  1.0000
  H   H1258     1.0  0.49979  0.16920  0.67381  1.0000
  C   C1580     1.0  0.87633  0.40832  0.51307  1.0000
  H   H1259     1.0  0.50017  0.23551  0.55210  1.0000
  H   H1260     1.0  0.50665  0.15142  0.51583  1.0000
  H   H1261     1.0  0.61036  0.35911  0.52884  1.0000
  H   H1262     1.0  0.57700  0.38059  0.65603  1.0000
  C   C1581     1.0  0.61744  0.13844  0.66938  1.0000
  C   C1582     1.0  0.52508  0.33325  0.55337  1.0000
  C   C1583     1.0  0.53986  0.19653  0.62271  1.0000
  H   H1263     1.0  0.73026  0.02452  0.67884  1.0000
  C   C1584     1.0  0.71253  0.00778  0.55685  1.0000
  H   H1264     1.0  0.63494  0.13415  0.67302  1.0000
  C   C1585     1.0  0.86385  0.41277  0.53284  1.0000
  H   H1265     1.0  0.50725  0.38148  0.53553  1.0000
  C   C1586     1.0  0.68570  0.20650  0.50417  1.0000
  C   C1587     1.0  0.59897  0.16809  0.65239  1.0000
  H   H1266     1.0  0.79751  0.40904  0.71265  1.0000
  C   C1588     1.0  0.67958  0.32029  0.68106  1.0000
  C   C1589     1.0  0.54229  0.20902  0.60039  1.0000
  C   C1590     1.0  0.73444  0.06538  0.68404  1.0000
  C   C1591     1.0  0.79230  0.45516  0.50893  1.0000
  C   C1592     1.0  0.67307  0.08829  0.69437  1.0000
  H   H1267     1.0  0.85898  0.39899  0.54812  1.0000
  C   C1593     1.0  0.73519  0.08904  0.67317  1.0000
  P   P52       1.0  0.54378  0.15821  0.65472  1.0000
  H   H1268     1.0  0.79069  0.41952  0.52718  1.0000
  C   C1594     1.0  0.55295  0.20071  0.58157  1.0000
  C   C1595     1.0  0.72675  0.29605  0.62055  1.0000
  C   C1596     1.0  0.92373  0.00229  0.52611  1.0000
  C   C1597     1.0  0.68112  0.35062  0.51716  1.0000
  C   C1598     1.0  0.65835  0.33853  0.70843  1.0000
  H   H1269     1.0  0.85956  0.47059  0.51400  1.0000
  H   H1270     1.0  0.66582  0.27439  0.58550  1.0000
  H   H1271     1.0  0.58804  0.10169  0.68711  1.0000
  C   C1599     1.0  0.56114  0.17989  0.58501  1.0000
  H   H1272     1.0  0.80632  0.36689  0.54790  1.0000
  C   C1600     1.0  0.86446  0.45331  0.51372  1.0000
  H   H1273     1.0  0.66571  0.05775  0.72211  1.0000
  P   P53       1.0  0.54493  0.43554  0.70376  1.0000
  C   C1601     1.0  0.76763  0.35279  0.52839  1.0000
  H   H1274     1.0  0.59460  0.18307  0.52622  1.0000
  C   C1602     1.0  0.73068  0.04283  0.67032  1.0000
  H   H1275     1.0  0.77332  0.34184  0.51555  1.0000
  C   C1603     1.0  0.70102  0.32495  0.69743  1.0000
  C   C1604     1.0  0.69243  0.36434  0.49576  1.0000
  C   C1605     1.0  0.85804  0.43530  0.53320  1.0000
  C   C1606     1.0  0.70060  0.22490  0.71444  1.0000
  C   C1607     1.0  0.74875  0.34583  0.62300  1.0000
  C   C1608     1.0  0.73988  0.32200  0.60956  1.0000
  H   H1276     1.0  0.75887  0.36595  0.61453  1.0000
  H   H1277     1.0  0.71954  0.27752  0.61013  1.0000
  P   P54       1.0  0.72790  0.31537  0.69058  1.0000
  H   H1278     1.0  0.61782  0.17665  0.48685  1.0000
  H   H1279     1.0  0.75253  0.37485  0.69710  1.0000
  H   H1280     1.0  0.89795  0.46030  0.71241  1.0000
  C   C1609     1.0  0.59097  0.12015  0.67728  1.0000
  H   H1281     1.0  0.88432  0.42526  0.68134  1.0000
  C   C1610     1.0  0.72293  0.29391  0.64502  1.0000
  C   C1611     1.0  0.74498  0.34380  0.64747  1.0000
  H   H1282     1.0  0.54347  0.09621  0.51362  1.0000
  H   H1283     1.0  0.82804  0.14654  0.56900  1.0000
  C   C1612     1.0  0.76027  0.33966  0.70425  1.0000
  C   C1613     1.0  0.60458  0.35787  0.51025  1.0000
  H   H1284     1.0  0.87571  0.37736  0.69157  1.0000
  C   C1614     1.0  0.50230  0.48936  0.54715  1.0000
  C   C1615     1.0  0.52936  0.33468  0.52900  1.0000
  C   C1616     1.0  0.63989  0.31877  0.49577  1.0000
  C   C1617     1.0  0.67802  0.07900  0.71659  1.0000
  C   C1618     1.0  0.73260  0.31780  0.65882  1.0000
  H   H1285     1.0  0.71258  0.27355  0.65296  1.0000
  C   C1619     1.0  0.97210  0.42809  0.50089  1.0000
  C   C1620     1.0  0.72539  0.23957  0.70229  1.0000
  H   H1286     1.0  0.50664  0.12321  0.61702  1.0000
  C   C1621     1.0  0.65849  0.32726  0.68651  1.0000
  H   H1287     1.0  0.64222  0.32391  0.67363  1.0000
  C   C1622     1.0  0.81411  0.48296  0.55162  1.0000
  C   C1623     1.0  0.73362  0.26699  0.69539  1.0000
  C   C1624     1.0  0.49079  0.28911  0.52490  1.0000
  H   H1288     1.0  0.82055  0.09994  0.58275  1.0000
  C   C1625     1.0  0.48662  0.28716  0.54944  1.0000
  C   C1626     1.0  0.88291  0.42632  0.49336  1.0000
  C   C1627     1.0  0.58661  0.33239  0.50055  1.0000
  C   C1628     1.0  0.54373  0.18097  0.67755  1.0000
  C   C1629     1.0  0.51124  0.12700  0.65515  1.0000
  H   H1289     1.0  0.67919  0.27468  0.71709  1.0000
  C   C1630     1.0  0.56827  0.21646  0.70661  1.0000
  H   H1290     1.0  0.49991  0.20113  0.70431  1.0000
  H   H1291     1.0  0.50205  0.30863  0.58260  1.0000
  H   H1292     1.0  0.77492  0.30979  0.71486  1.0000
  C   C1631     1.0  0.51894  0.20014  0.70027  1.0000
  H   H1293     1.0  0.49061  0.41635  0.54168  1.0000
  H   H1294     1.0  0.51539  0.31351  0.49584  1.0000
  H   H1295     1.0  0.66798  0.26993  0.48799  1.0000
  C   C1632     1.0  0.70066  0.33596  0.71959  1.0000
  C   C1633     1.0  0.92052  0.47645  0.57755  1.0000
  C   C1634     1.0  0.87714  0.44904  0.49395  1.0000
  H   H1296     1.0  0.85521  0.07735  0.50256  1.0000
  S   S220      1.0  0.90415  0.49024  0.67015  1.0000
  C   C1635     1.0  0.48569  0.37640  0.53198  1.0000
  C   C1636     1.0  0.66176  0.20191  0.49110  1.0000
  H   H1297     1.0  0.81956  0.34408  0.73058  1.0000
  H   H1298     1.0  0.55358  0.23902  0.49129  1.0000
  H   H1299     1.0  0.50052  0.20176  0.52379  1.0000
  H   H1300     1.0  0.66480  0.22631  0.72903  1.0000
  H   H1301     1.0  0.54379  0.23189  0.72496  1.0000
  C   C1637     1.0  0.69832  0.09741  0.73192  1.0000
  H   H1302     1.0  0.64192  0.34392  0.71248  1.0000
  C   C1638     1.0  0.68414  0.23777  0.71978  1.0000
  C   C1639     1.0  0.90593  0.01919  0.49325  1.0000
  C   C1640     1.0  0.80484  0.35075  0.72332  1.0000
  C   C1641     1.0  0.88532  0.38590  0.72868  1.0000
  C   C1642     1.0  0.69664  0.13083  0.48316  1.0000
  H   H1303     1.0  0.84752  0.41830  0.83316  1.0000
  Fe  Fe111     1.0  0.69116  0.04216  0.77184  1.0000
  S   S221      1.0  0.67594  0.02335  0.80811  1.0000
  S   S222      1.0  0.70418  0.08700  0.76066  1.0000
  C   C1643     1.0  0.93236  0.08911  0.91987  1.0000
  C   C1644     1.0  0.56319  0.47306  0.74121  1.0000
  C   C1645     1.0  0.75282  0.01685  0.86074  1.0000
  H   H1304     1.0  0.78456  0.00728  0.91097  1.0000
  Fe  Fe112     1.0  0.70656  0.00589  0.80635  1.0000
  P   P55       1.0  0.90676  0.45876  0.76324  1.0000
  H   H1305     1.0  0.51032  0.35727  0.77990  1.0000
  S   S223      1.0  0.72414  0.02758  0.77162  1.0000
  Fe  Fe113     1.0  0.83923  0.05608  0.94939  1.0000
  C   C1646     1.0  0.84438  0.47887  0.74410  1.0000
  S   S224      1.0  0.82281  0.06663  0.91471  1.0000
  S   S225      1.0  0.87385  0.04378  0.95235  1.0000
  C   C1647     1.0  0.89312  0.40581  0.74636  1.0000
  H   H1306     1.0  0.94933  0.09005  0.93103  1.0000
  C   C1648     1.0  0.86716  0.42307  0.82498  1.0000
  S   S226      1.0  0.65870  0.00585  0.75248  1.0000
  C   C1649     1.0  0.79520  0.04680  0.89464  1.0000
  C   C1650     1.0  0.78883  0.06044  0.87578  1.0000
  C   C1651     1.0  0.76766  0.04565  0.85906  1.0000
  C   C1652     1.0  0.93884  0.03157  0.81480  1.0000
  C   C1653     1.0  0.83901  0.06590  0.82356  1.0000
  H   H1307     1.0  0.80042  0.08264  0.87403  1.0000
  H   H1308     1.0  0.76325  0.05650  0.84461  1.0000
  H   H1309     1.0  0.92804  0.05339  0.90118  1.0000
  H   H1310     1.0  0.82211  0.99782  0.85810  1.0000
  C   C1654     1.0  0.54098  0.37741  0.75308  1.0000
  C   C1655     1.0  0.82723  0.01701  0.84868  1.0000
  H   H1311     1.0  0.93021  0.12294  0.93730  1.0000
  C   C1656     1.0  0.50498  0.46709  0.92829  1.0000
  C   C1657     1.0  0.78000  0.01805  0.89659  1.0000
  S   S227      1.0  0.81233  0.02392  0.97565  1.0000
  C   C1658     1.0  0.92026  0.06844  0.90295  1.0000
  C   C1659     1.0  0.92424  0.99774  0.95950  1.0000
  H   H1312     1.0  0.93764  0.44002  0.79600  1.0000
  H   H1313     1.0  0.96879  0.07164  0.82684  1.0000
  H   H1314     1.0  0.84336  0.08490  0.81401  1.0000
  H   H1315     1.0  0.88959  0.11942  0.91345  1.0000
  S   S228      1.0  0.72752  0.99665  0.83906  1.0000
  H   H1316     1.0  0.95240  0.03024  0.80157  1.0000
  C   C1660     1.0  0.80726  0.01856  0.83343  1.0000
  C   C1661     1.0  0.89876  0.44236  0.79207  1.0000
  P   P56       1.0  0.88007  0.03759  0.86970  1.0000
  H   H1317     1.0  0.52424  0.46700  0.92351  1.0000
  Fe  Fe114     1.0  0.84850  0.01443  0.98068  1.0000
  C   C1662     1.0  0.90362  0.03516  0.84885  1.0000
  H   H1318     1.0  0.85806  0.44090  0.79389  1.0000
  C   C1663     1.0  0.84397  0.00485  0.90434  1.0000
  H   H1319     1.0  0.86841  0.08353  0.88356  1.0000
  C   C1664     1.0  0.89879  0.10580  0.90999  1.0000
  H   H1320     1.0  0.88169  0.40653  0.85405  1.0000
  C   C1665     1.0  0.98053  0.02575  0.97191  1.0000
  H   H1321     1.0  0.50138  0.46488  0.75123  1.0000
  C   C1666     1.0  0.89752  0.06656  0.88916  1.0000
  C   C1667     1.0  0.88641  0.41643  0.83675  1.0000
  C   C1668     1.0  0.85923  0.06430  0.83851  1.0000
  C   C1669     1.0  0.93050  0.05677  0.84594  1.0000
  H   H1322     1.0  0.92386  0.03693  0.96378  1.0000
  C   C1670     1.0  0.88680  0.08531  0.89292  1.0000
  C   C1671     1.0  0.91793  0.43547  0.80395  1.0000
  C   C1672     1.0  0.91177  0.42261  0.82623  1.0000
  C   C1673     1.0  0.50129  0.38585  0.75891  1.0000
  C   C1674     1.0  0.94809  0.05486  0.82906  1.0000
  C   C1675     1.0  0.91193  0.01021  0.81732  1.0000
  S   S229      1.0  0.86008  0.08972  0.97655  1.0000
  C   C1676     1.0  0.85330  0.04001  0.85156  1.0000
  C   C1677     1.0  0.81303  0.04304  0.82105  1.0000
  H   H1323     1.0  0.55284  0.36643  0.75798  1.0000
  H   H1324     1.0  0.50669  0.45235  0.81829  1.0000
  C   C1678     1.0  0.86029  0.46467  0.74740  1.0000
  H   H1325     1.0  0.50430  0.28760  0.73561  1.0000
  Fe  Fe115     1.0  0.89222  0.07420  0.98199  1.0000
  H   H1326     1.0  0.87939  0.08206  0.84004  1.0000
  C   C1679     1.0  0.92156  0.10771  0.92346  1.0000
  H   H1327     1.0  0.89540  0.39995  0.76436  1.0000
  H   H1328     1.0  0.83585  0.01983  0.90388  1.0000
  H   H1329     1.0  0.92670  0.41749  0.83538  1.0000
  C   C1680     1.0  0.50955  0.40472  0.73995  1.0000
  C   C1681     1.0  0.51701  0.37225  0.76547  1.0000
  C   C1682     1.0  0.87326  0.43594  0.80269  1.0000
  C   C1683     1.0  0.89431  0.01205  0.83419  1.0000
  H   H1330     1.0  0.85190  0.44364  0.74137  1.0000
  C   C1684     1.0  0.75910  0.00321  0.87968  1.0000
  C   C1685     1.0  0.95953  0.48323  0.74264  1.0000
  C   C1686     1.0  0.89767  0.43284  0.74067  1.0000
  H   H1331     1.0  0.97333  0.06162  0.97495  1.0000
  H   H1332     1.0  0.67937  0.35160  0.74202  1.0000
  H   H1333     1.0  0.72936  0.13957  0.73639  1.0000
  H   H1334     1.0  0.71674  0.33919  0.73267  1.0000
  C   C1687     1.0  0.96439  0.03989  0.97058  1.0000
  H   H1335     1.0  0.79711  0.04431  0.80980  1.0000
  C   C1688     1.0  0.94358  0.48211  0.76232  1.0000
  H   H1336     1.0  0.93782  0.07532  0.85634  1.0000
  C   C1689     1.0  0.86540  0.00788  0.88920  1.0000
  C   C1690     1.0  0.50405  0.46350  0.83290  1.0000
  H   H1337     1.0  0.65139  0.99749  0.91549  1.0000
  H   H1338     1.0  0.87331  0.99559  0.83569  1.0000
  H   H1339     1.0  0.55805  0.45560  0.75309  1.0000
  C   C1691     1.0  0.88673  0.47765  0.75822  1.0000
  C   C1692     1.0  0.93636  0.02595  0.96425  1.0000
  H   H1340     1.0  0.88170  0.36503  0.73312  1.0000
  C   C1693     1.0  0.48639  0.46298  0.76439  1.0000
  H   H1341     1.0  0.49745  0.41547  0.73538  1.0000
  H   H1342     1.0  0.78695  0.00097  0.83158  1.0000
  H   H1343     1.0  0.82436  0.46902  0.73516  1.0000
  C   C1694     1.0  0.96864  0.99739  0.96695  1.0000
  H   H1344     1.0  0.89387  0.99154  0.88016  1.0000
  H   H1345     1.0  0.90456  0.99235  0.80600  1.0000
  C   C1695     1.0  0.52227  0.49147  0.83592  1.0000
  C   C1696     1.0  0.54946  0.39642  0.73426  1.0000
  H   H1346     1.0  0.80557  0.97441  0.01840  1.0000
  H   H1347     1.0  0.55467  0.87392  0.04082  1.0000
  C   C1697     1.0  0.50507  0.91104  0.01589  1.0000
  C   C1698     1.0  0.58735  0.97921  0.15141  1.0000
  H   H1348     1.0  0.49103  0.88954  0.01939  1.0000
  Fe  Fe116     1.0  0.65133  0.89226  0.11064  1.0000
  S   S230      1.0  0.67163  0.90242  0.14662  1.0000
  S   S231      1.0  0.61720  0.84952  0.10250  1.0000
  Fe  Fe117     1.0  0.68658  0.94998  0.09195  1.0000
  H   H1349     1.0  0.55208  0.94183  0.16320  1.0000
  Fe  Fe118     1.0  0.71173  0.92498  0.12723  1.0000
  S   S232      1.0  0.75195  0.92593  0.14078  1.0000
  Fe  Fe119     1.0  0.66774  0.94200  0.14366  1.0000
  S   S233      1.0  0.64967  0.95075  0.17711  1.0000
  S   S234      1.0  0.69180  0.91132  0.09162  1.0000
  S   S235      1.0  0.64453  0.92995  0.10874  1.0000
  H   H1350     1.0  0.96429  0.91324  0.06197  1.0000
  H   H1351     1.0  0.96106  0.96766  0.01413  1.0000
  C   C1699     1.0  0.49868  0.63916  0.01932  1.0000
  H   H1352     1.0  0.56479  0.87627  0.08604  1.0000
  C   C1700     1.0  0.78869  0.93936  0.21471  1.0000
  Fe  Fe120     1.0  0.85983  0.88114  0.10205  1.0000
  S   S236      1.0  0.88281  0.92535  0.11345  1.0000
  S   S237      1.0  0.81286  0.86041  0.09851  1.0000
  Fe  Fe121     1.0  0.91285  0.87548  0.09313  1.0000
  S   S238      1.0  0.93909  0.91903  0.10489  1.0000
  S   S239      1.0  0.93965  0.85512  0.08205  1.0000
  Fe  Fe122     1.0  0.90936  0.91059  0.13440  1.0000
  S   S240      1.0  0.93015  0.92850  0.16946  1.0000
  Fe  Fe123     1.0  0.91041  0.92969  0.08301  1.0000
  S   S241      1.0  0.92982  0.96788  0.06009  1.0000
  S   S242      1.0  0.88496  0.86575  0.12491  1.0000
  S   S243      1.0  0.88556  0.88673  0.06955  1.0000
  C   C1701     1.0  0.94029  0.81256  0.01250  1.0000
  C   C1702     1.0  0.91779  0.81788  0.01758  1.0000
  C   C1703     1.0  0.91731  0.83109  0.03866  1.0000
  C   C1704     1.0  0.93968  0.83972  0.05466  1.0000
  C   C1705     1.0  0.96248  0.83504  0.04929  1.0000
  C   C1706     1.0  0.96275  0.82143  0.02843  1.0000
  C   C1707     1.0  0.95721  0.94795  0.00680  1.0000
  H   H1353     1.0  0.89946  0.83422  0.04269  1.0000
  H   H1354     1.0  0.93239  0.83783  0.12864  1.0000
  C   C1708     1.0  0.63604  0.93129  0.00351  1.0000
  C   C1709     1.0  0.90761  0.96848  0.03721  1.0000
  H   H1355     1.0  0.81088  0.92610  0.19091  1.0000
  Fe  Fe124     1.0  0.98293  0.73016  0.99829  1.0000
  C   C1710     1.0  0.76615  0.87201  0.01749  1.0000
  C   C1711     1.0  0.86684  0.94505  0.01204  1.0000
  C   C1712     1.0  0.88544  0.94407  0.02928  1.0000
  H   H1356     1.0  0.58636  0.88237  0.15980  1.0000
  H   H1357     1.0  0.74498  0.92733  0.07105  1.0000
  C   C1713     1.0  0.79646  0.97249  0.03564  1.0000
  H   H1358     1.0  0.88243  0.92442  0.03649  1.0000
  H   H1359     1.0  0.60612  0.87594  0.02088  1.0000
  C   C1714     1.0  0.59126  0.92245  0.01896  1.0000
  H   H1360     1.0  0.83432  0.90043  0.05467  1.0000
  H   H1361     1.0  0.79136  0.84654  0.17607  1.0000
  P   P57       1.0  0.54050  0.89280  0.99548  1.0000
  C   C1715     1.0  0.76785  0.90699  0.12846  1.0000
  C   C1716     1.0  0.75577  0.88845  0.10992  1.0000
  C   C1717     1.0  0.76957  0.87402  0.10088  1.0000
  C   C1718     1.0  0.79567  0.87847  0.11001  1.0000
  C   C1719     1.0  0.80756  0.89691  0.12853  1.0000
  C   C1720     1.0  0.79359  0.91084  0.13779  1.0000
  H   H1362     1.0  0.73579  0.88510  0.10275  1.0000
  H   H1363     1.0  0.76020  0.85955  0.08667  1.0000
  H   H1364     1.0  0.82742  0.90026  0.13595  1.0000
  H   H1365     1.0  0.80322  0.92540  0.15176  1.0000
  H   H1366     1.0  0.97994  0.84163  0.06150  1.0000
  H   H1367     1.0  0.80748  0.96232  0.12117  1.0000
  H   H1368     1.0  0.90160  0.73141  0.04611  1.0000
  H   H1369     1.0  0.81341  0.85241  0.04052  1.0000
  C   C1721     1.0  0.60198  0.84382  0.07393  1.0000
  C   C1722     1.0  0.61042  0.86509  0.05700  1.0000
  C   C1723     1.0  0.59901  0.85966  0.03400  1.0000
  C   C1724     1.0  0.57858  0.83326  0.02784  1.0000
  C   C1725     1.0  0.56977  0.81208  0.04489  1.0000
  C   C1726     1.0  0.58150  0.81735  0.06785  1.0000
  H   H1370     1.0  0.62630  0.88555  0.06143  1.0000
  H   H1371     1.0  0.55409  0.79161  0.04039  1.0000
  H   H1372     1.0  0.57489  0.80077  0.08085  1.0000
  H   H1373     1.0  0.96835  0.72079  0.07909  1.0000
  H   H1374     1.0  0.86315  0.87241  0.22409  1.0000
  H   H1375     1.0  0.70406  0.91365  0.00567  1.0000
  H   H1376     1.0  0.96534  0.52566  0.08057  1.0000
  C   C1727     1.0  0.80280  0.90954  0.03868  1.0000
  H   H1377     1.0  0.74667  0.96250  0.00260  1.0000
  C   C1728     1.0  0.92459  0.95155  0.21032  1.0000
  C   C1729     1.0  0.91068  0.93471  0.19109  1.0000
  C   C1730     1.0  0.88166  0.92236  0.18997  1.0000
  C   C1731     1.0  0.86669  0.92602  0.20849  1.0000
  H   H1378     1.0  0.94702  0.96151  0.21115  1.0000
  H   H1379     1.0  0.87076  0.90925  0.17526  1.0000
  H   H1380     1.0  0.84433  0.91533  0.20811  1.0000
  H   H1381     1.0  0.55387  0.56571  0.21357  1.0000
  C   C1732     1.0  0.80371  0.86554  0.03590  1.0000
  C   C1733     1.0  0.82910  0.95462  0.09293  1.0000
  C   C1734     1.0  0.58204  0.89127  0.14388  1.0000
  H   H1382     1.0  0.74668  0.86356  0.00768  1.0000
  C   C1735     1.0  0.65433  0.98065  0.19279  1.0000
  H   H1383     1.0  0.51899  0.64778  0.02772  1.0000
  C   C1736     1.0  0.54022  0.96691  0.00684  1.0000
  C   C1737     1.0  0.81062  0.94327  0.19987  1.0000
  H   H1384     1.0  0.92131  0.87940  0.01966  1.0000
  H   H1385     1.0  0.76511  0.96682  0.09778  1.0000
  H   H1386     1.0  0.81143  0.93560  0.08771  1.0000
  C   C1738     1.0  0.52052  0.83475  0.04891  1.0000
  C   C1739     1.0  0.94729  0.86243  0.19375  1.0000
  H   H1387     1.0  0.55378  0.98853  0.00321  1.0000
  S   S244      1.0  0.50238  0.75244  0.01384  1.0000
  C   C1740     1.0  0.81140  0.98859  0.22294  1.0000
  C   C1741     1.0  0.56723  0.96255  0.16778  1.0000
  H   H1388     1.0  0.93175  0.92479  0.03597  1.0000
  C   C1742     1.0  0.53045  0.91867  0.00458  1.0000
  C   C1743     1.0  0.62149  0.98455  0.10874  1.0000
  H   H1389     1.0  0.65613  0.88071  0.01600  1.0000
  C   C1744     1.0  0.95005  0.56489  0.01101  1.0000
  C   C1745     1.0  0.62020  0.93444  0.02130  1.0000
  C   C1746     1.0  0.51498  0.95915  0.01816  1.0000
  C   C1747     1.0  0.53472  0.94840  0.10291  1.0000
  H   H1390     1.0  0.57147  0.85499  0.12311  1.0000
  H   H1391     1.0  0.76995  0.83420  0.01636  1.0000
  C   C1748     1.0  0.93658  0.84473  0.14674  1.0000
  C   C1749     1.0  0.58594  0.91854  0.14381  1.0000
  S   S245      1.0  0.51661  0.69026  0.99973  1.0000
  C   C1750     1.0  0.52186  0.52674  0.22614  1.0000
  C   C1751     1.0  0.82695  0.96937  0.11205  1.0000
  H   H1392     1.0  0.64450  0.98830  0.14131  1.0000
  H   H1393     1.0  0.90902  0.80493  0.16117  1.0000
  H   H1394     1.0  0.79445  0.87848  0.20774  1.0000
  H   H1395     1.0  0.96794  0.93024  0.21597  1.0000
  C   C1752     1.0  0.92343  0.82612  0.16515  1.0000
  H   H1396     1.0  0.95103  0.59685  0.98714  1.0000
  C   C1753     1.0  0.57368  0.91516  0.10213  1.0000
  H   H1397     1.0  0.71658  0.84704  0.14949  1.0000
  C   C1754     1.0  0.57785  0.90698  0.99884  1.0000
  C   C1755     1.0  0.70013  0.92905  0.20295  1.0000
  H   H1398     1.0  0.57934  0.92510  0.03294  1.0000
  C   C1756     1.0  0.93348  0.72300  0.06230  1.0000
  C   C1757     1.0  0.92011  0.73930  0.05722  1.0000
  C   C1758     1.0  0.93099  0.76605  0.06599  1.0000
  C   C1759     1.0  0.95564  0.77681  0.07935  1.0000
  H   H1399     1.0  0.90036  0.81121  0.00534  1.0000
  H   H1400     1.0  0.57137  0.92443  0.08563  1.0000
  H   H1401     1.0  0.85549  0.95373  0.06527  1.0000
  C   C1760     1.0  0.78925  0.96226  0.22629  1.0000
  C   C1761     1.0  0.77918  0.85530  0.02244  1.0000
  C   C1762     1.0  0.52243  0.86226  0.01386  1.0000
  C   C1763     1.0  0.96282  0.59053  0.99944  1.0000
  C   C1764     1.0  0.85380  0.96479  0.08031  1.0000
  C   C1765     1.0  0.83275  0.96953  0.19657  1.0000
  H   H1402     1.0  0.91818  0.82025  0.20264  1.0000
  C   C1766     1.0  0.56986  0.88790  0.10225  1.0000
  H   H1403     1.0  0.59346  0.93038  0.15981  1.0000
  H   H1404     1.0  0.66040  0.91672  0.21879  1.0000
  H   H1405     1.0  0.54465  0.51712  0.15859  1.0000
  S   S246      1.0  0.56423  0.82795  0.99887  1.0000
  C   C1767     1.0  0.58132  0.93055  0.12304  1.0000
  S   S247      1.0  0.70949  0.96546  0.12652  1.0000
  H   H1406     1.0  0.54216  0.52203  0.11496  1.0000
  C   C1768     1.0  0.95469  0.87227  0.15166  1.0000
  H   H1407     1.0  0.95771  0.69529  0.15557  1.0000
  C   C1769     1.0  0.51990  0.97782  0.08022  1.0000
  S   S248      1.0  0.93998  0.79580  0.98573  1.0000
  C   C1770     1.0  0.56681  0.97241  0.19035  1.0000
  C   C1771     1.0  0.56894  0.53530  0.21811  1.0000
  C   C1772     1.0  0.54873  0.54463  0.21879  1.0000
  C   C1773     1.0  0.53433  0.85875  0.03516  1.0000
  S   S249      1.0  0.69226  0.97140  0.05639  1.0000
  H   H1408     1.0  0.92542  0.70245  0.05504  1.0000
  C   C1774     1.0  0.96947  0.76069  0.08428  1.0000
  H   H1409     1.0  0.92054  0.60022  0.23047  1.0000
  H   H1410     1.0  0.92070  0.77876  0.06188  1.0000
  C   C1775     1.0  0.77726  0.87166  0.19521  1.0000
  C   C1776     1.0  0.54791  0.94677  0.99999  1.0000
  H   H1411     1.0  0.56741  0.95312  0.99098  1.0000
  H   H1412     1.0  0.92832  0.55124  0.00756  1.0000
  H   H1413     1.0  0.97995  0.97198  0.14983  1.0000
  H   H1414     1.0  0.84960  0.92616  0.00606  1.0000
  C   C1777     1.0  0.94526  0.89640  0.98820  1.0000
  S   S250      1.0  0.97040  0.69892  0.02825  1.0000
  C   C1778     1.0  0.72456  0.92623  0.20323  1.0000
  C   C1779     1.0  0.77390  0.96842  0.08044  1.0000
  C   C1780     1.0  0.75744  0.88166  0.19635  1.0000
  C   C1781     1.0  0.77541  0.85329  0.17751  1.0000
  C   C1782     1.0  0.75344  0.84425  0.16115  1.0000
  H   H1415     1.0  0.58974  0.54914  0.21230  1.0000
  C   C1783     1.0  0.52558  0.50451  0.14903  1.0000
  H   H1416     1.0  0.84963  0.97210  0.18518  1.0000
  H   H1417     1.0  0.60537  0.98123  0.07289  1.0000
  C   C1784     1.0  0.97729  0.73054  0.13221  1.0000
  C   C1785     1.0  0.93451  0.89803  0.00998  1.0000
  C   C1786     1.0  0.51406  0.95207  0.09030  1.0000
  H   H1418     1.0  0.52961  0.92850  0.11113  1.0000
  H   H1419     1.0  0.69687  0.94172  0.18937  1.0000
  H   H1420     1.0  0.63052  0.94591  0.03704  1.0000
  H   H1421     1.0  0.50893  0.97476  0.02325  1.0000
  H   H1422     1.0  0.95812  0.73178  0.12853  1.0000
  H   H1423     1.0  0.73983  0.93663  0.18962  1.0000
  H   H1424     1.0  0.75254  0.83078  0.14694  1.0000
  H   H1425     1.0  0.65847  0.94043  0.00559  1.0000
  C   C1787     1.0  0.88058  0.94246  0.22793  1.0000
  C   C1788     1.0  0.63869  0.97702  0.21328  1.0000
  C   C1789     1.0  0.87634  0.98955  0.08688  1.0000
  H   H1426     1.0  0.55169  0.95926  0.20312  1.0000
  H   H1427     1.0  0.96387  0.79780  0.08546  1.0000
  H   H1428     1.0  0.48594  0.84408  0.99096  1.0000
  C   C1790     1.0  0.49118  0.65594  0.00484  1.0000
  C   C1791     1.0  0.52416  0.50726  0.12447  1.0000
  Fe  Fe125     1.0  0.50620  0.72421  0.98740  1.0000
  C   C1792     1.0  0.77765  0.89914  0.02597  1.0000
  H   H1429     1.0  0.49341  0.93502  0.08862  1.0000
  C   C1793     1.0  0.94043  0.92373  0.01920  1.0000
  P   P58       1.0  0.75866  0.91915  0.02263  1.0000
  C   C1794     1.0  0.87001  0.97046  0.00302  1.0000
  C   C1795     1.0  0.72319  0.89654  0.03080  1.0000
  C   C1796     1.0  0.70072  0.89814  0.01918  1.0000
  C   C1797     1.0  0.67345  0.87947  0.02497  1.0000
  C   C1798     1.0  0.66844  0.85923  0.04244  1.0000
  C   C1799     1.0  0.69065  0.85795  0.05448  1.0000
  C   C1800     1.0  0.71789  0.87652  0.04873  1.0000
  C   C1801     1.0  0.73319  0.85344  0.16258  1.0000
  C   C1802     1.0  0.49463  0.81421  0.04163  1.0000
  P   P59       1.0  0.58795  0.96626  0.12235  1.0000
  C   C1803     1.0  0.57380  0.87590  0.12316  1.0000
  C   C1804     1.0  0.77325  0.94805  0.04246  1.0000
  C   C1805     1.0  0.76232  0.94607  0.06510  1.0000
  C   C1806     1.0  0.97699  0.70986  0.14758  1.0000
  C   C1807     1.0  0.49742  0.93124  0.02268  1.0000
  H   H1430     1.0  0.71970  0.87956  0.18018  1.0000
  C   C1808     1.0  0.75251  0.95342  0.98822  1.0000
  P   P60       1.0  0.76017  0.90534  0.21945  1.0000
  C   C1809     1.0  0.81553  0.89267  0.04393  1.0000
  C   C1810     1.0  0.56158  0.97035  0.10508  1.0000
  H   H1431     1.0  0.81240  0.93050  0.04487  1.0000
  C   C1811     1.0  0.92866  0.83492  0.18856  1.0000
  H   H1432     1.0  0.98392  0.78228  0.14734  1.0000
  C   C1812     1.0  0.96008  0.88116  0.17510  1.0000
  H   H1433     1.0  0.64736  0.84465  0.04687  1.0000
  H   H1434     1.0  0.68669  0.84268  0.06843  1.0000
  H   H1435     1.0  0.73485  0.87526  0.05829  1.0000
  C   C1813     1.0  0.73518  0.87213  0.18004  1.0000
  C   C1814     1.0  0.72891  0.90954  0.22045  1.0000
  H   H1436     1.0  0.53036  0.83160  0.06480  1.0000
  C   C1815     1.0  0.95798  0.73357  0.07585  1.0000
  H   H1437     1.0  0.89955  0.86357  0.20653  1.0000
  C   C1816     1.0  0.67964  0.91500  0.21965  1.0000
  C   C1817     1.0  0.96515  0.55704  0.02727  1.0000
  Fe  Fe126     1.0  0.52814  0.78685  0.98910  1.0000
  P   P61       1.0  0.95501  0.87265  0.22428  1.0000
  H   H1438     1.0  0.95474  0.53726  0.03621  1.0000
  H   H1439     1.0  0.96429  0.88672  0.13721  1.0000
  C   C1818     1.0  0.76006  0.93219  0.99278  1.0000
  H   H1440     1.0  0.72195  0.99046  0.01305  1.0000
  H   H1441     1.0  0.93809  0.56525  0.22809  1.0000
  C   C1819     1.0  0.96822  0.94661  0.98490  1.0000
  H   H1442     1.0  0.48605  0.59888  0.03488  1.0000
  C   C1820     1.0  0.90295  0.87228  0.22402  1.0000
  C   C1821     1.0  0.90961  0.95555  0.22859  1.0000
  H   H1443     1.0  0.62389  0.95640  0.21856  1.0000
  C   C1822     1.0  0.49596  0.84182  0.00706  1.0000
  H   H1444     1.0  0.97389  0.90260  0.17851  1.0000
  C   C1823     1.0  0.62370  0.98890  0.08414  1.0000
  C   C1824     1.0  0.97454  0.51441  0.07165  1.0000
  C   C1825     1.0  0.62293  0.91590  0.98345  1.0000
  H   H1445     1.0  0.50377  0.98073  0.07071  1.0000
  H   H1446     1.0  0.98036  0.81781  0.02472  1.0000
  H   H1447     1.0  0.98094  0.85823  0.98538  1.0000
  H   H1448     1.0  0.57816  0.50113  0.22386  1.0000
  C   C1826     1.0  0.97259  0.83202  0.22927  1.0000
  C   C1827     1.0  0.56237  0.50813  0.22489  1.0000
  H   H1449     1.0  0.98353  0.96164  0.07485  1.0000
  H   H1450     1.0  0.50614  0.53392  0.22654  1.0000
  H   H1451     1.0  0.98439  0.68520  0.07425  1.0000
  H   H1452     1.0  0.49889  0.49312  0.09306  1.0000
  H   H1453     1.0  0.98397  0.84048  0.21311  1.0000
  S   S251      1.0  0.84493  0.97155  0.98328  1.0000
  Fe  Fe127     1.0  0.91018  0.95954  0.33092  1.0000
  S   S252      1.0  0.92653  0.96753  0.29406  1.0000
  S   S253      1.0  0.91126  0.92824  0.35693  1.0000
  H   H1454     1.0  0.81346  0.90494  0.29155  1.0000
  C   C1828     1.0  0.80680  0.98620  0.29206  1.0000
  H   H1455     1.0  0.87799  0.71030  0.41332  1.0000
  Fe  Fe128     1.0  0.88592  0.96689  0.28406  1.0000
  Fe  Fe129     1.0  0.97994  0.50157  0.27929  1.0000
  H   H1456     1.0  0.96724  0.95427  0.37521  1.0000
  C   C1829     1.0  0.93279  0.57042  0.24506  1.0000
  S   S254      1.0  0.86796  0.95487  0.32046  1.0000
  C   C1830     1.0  0.95920  0.79794  0.26091  1.0000
  C   C1831     1.0  0.83156  0.54882  0.34642  1.0000
  H   H1457     1.0  0.77259  0.95971  0.23789  1.0000
  C   C1832     1.0  0.92614  0.58303  0.34178  1.0000
  C   C1833     1.0  0.64184  0.94112  0.26745  1.0000
  H   H1458     1.0  0.96664  0.75055  0.40317  1.0000
  H   H1459     1.0  0.95122  0.89721  0.26852  1.0000
  H   H1460     1.0  0.92060  0.96862  0.24324  1.0000
  C   C1834     1.0  0.96158  0.68000  0.38544  1.0000
  Fe  Fe130     1.0  0.80250  0.51000  0.41819  1.0000
  S   S255      1.0  0.83724  0.55354  0.41237  1.0000
  C   C1835     1.0  0.97784  0.97480  0.38255  1.0000
  C   C1836     1.0  0.96229  0.98647  0.39260  1.0000
  Fe  Fe131     1.0  0.74943  0.97625  0.44320  1.0000
  H   H1461     1.0  0.91443  0.90614  0.28564  1.0000
  S   S256      1.0  0.76908  0.95697  0.41927  1.0000
  Fe  Fe132     1.0  0.69494  0.97772  0.45068  1.0000
  H   H1462     1.0  0.96089  0.52293  0.44016  1.0000
  S   S257      1.0  0.65036  0.96166  0.43910  1.0000
  C   C1837     1.0  0.91436  0.87968  0.35882  1.0000
  H   H1463     1.0  0.58906  0.94399  0.37083  1.0000
  C   C1838     1.0  0.92297  0.59012  0.24645  1.0000
  S   S258      1.0  0.70957  0.94611  0.46024  1.0000
  C   C1839     1.0  0.86739  0.56648  0.43068  1.0000
  C   C1840     1.0  0.89323  0.58446  0.42098  1.0000
  C   C1841     1.0  0.91725  0.59649  0.43542  1.0000
  C   C1842     1.0  0.91554  0.59081  0.45975  1.0000
  C   C1843     1.0  0.79520  0.89311  0.28072  1.0000
  C   C1844     1.0  0.86577  0.56061  0.45496  1.0000
  H   H1464     1.0  0.89473  0.58889  0.40220  1.0000
  H   H1465     1.0  0.93704  0.61016  0.42775  1.0000
  H   H1466     1.0  0.95888  0.63978  0.30402  1.0000
  H   H1467     1.0  0.84594  0.54706  0.46268  1.0000
  C   C1845     1.0  0.80071  0.94559  0.46788  1.0000
  H   H1468     1.0  0.71942  0.95032  0.30415  1.0000
  H   H1469     1.0  0.96918  0.89921  0.30953  1.0000
  C   C1846     1.0  0.93556  0.55710  0.26558  1.0000
  C   C1847     1.0  0.61827  0.94405  0.27310  1.0000
  C   C1848     1.0  0.88219  0.87730  0.23392  1.0000
  P   P62       1.0  0.90862  0.59093  0.31730  1.0000
  C   C1849     1.0  0.95930  0.71837  0.36455  1.0000
  C   C1850     1.0  0.93345  0.66388  0.47478  1.0000
  C   C1851     1.0  0.95374  0.89369  0.32314  1.0000
  H   H1470     1.0  0.73271  0.84968  0.23965  1.0000
  C   C1852     1.0  0.72399  0.98523  0.25024  1.0000
  C   C1853     1.0  0.77383  0.92756  0.47518  1.0000
  C   C1854     1.0  0.61655  0.95245  0.40090  1.0000
  C   C1855     1.0  0.64201  0.97048  0.41107  1.0000
  H   H1471     1.0  0.64829  0.94306  0.24923  1.0000
  C   C1856     1.0  0.94374  0.91250  0.32959  1.0000
  H   H1472     1.0  0.60305  0.93355  0.41009  1.0000
  H   H1473     1.0  0.69384  0.85200  0.32220  1.0000
  H   H1474     1.0  0.97511  0.69696  0.47256  1.0000
  H   H1475     1.0  0.67450  0.98547  0.32893  1.0000
  C   C1857     1.0  0.60857  0.95841  0.37873  1.0000
  C   C1858     1.0  0.78891  0.90574  0.26130  1.0000
  H   H1476     1.0  0.66545  0.87269  0.33770  1.0000
  C   C1859     1.0  0.82527  0.54442  0.30401  1.0000
  C   C1860     1.0  0.62544  0.98302  0.36690  1.0000
  C   C1861     1.0  0.79608  0.97552  0.39930  1.0000
  C   C1862     1.0  0.80968  0.96200  0.38858  1.0000
  C   C1863     1.0  0.83088  0.97601  0.37214  1.0000
  C   C1864     1.0  0.94679  0.60416  0.35521  1.0000
  H   H1477     1.0  0.87332  0.57190  0.35920  1.0000
  H   H1478     1.0  0.80377  0.94059  0.39299  1.0000
  H   H1479     1.0  0.84117  0.96539  0.36398  1.0000
  C   C1865     1.0  0.92399  0.90543  0.34750  1.0000
  H   H1480     1.0  0.89923  0.87415  0.37271  1.0000
  H   H1481     1.0  0.95153  0.93251  0.32096  1.0000
  H   H1482     1.0  0.96084  0.56503  0.39599  1.0000
  C   C1866     1.0  0.94726  0.75136  0.40600  1.0000
  C   C1867     1.0  0.84825  0.65900  0.36216  1.0000
  H   H1483     1.0  0.84649  0.50687  0.32399  1.0000
  H   H1484     1.0  0.60634  0.94818  0.25934  1.0000
  C   C1868     1.0  0.92885  0.56364  0.28756  1.0000
  H   H1485     1.0  0.80613  0.94509  0.44966  1.0000
  Fe  Fe133     1.0  0.97607  0.49974  0.33340  1.0000
  H   H1486     1.0  0.81176  0.53630  0.28871  1.0000
  C   C1869     1.0  0.84053  0.63077  0.36450  1.0000
  H   H1487     1.0  0.87997  0.51488  0.45476  1.0000
  C   C1870     1.0  0.86019  0.56450  0.34358  1.0000
  C   C1871     1.0  0.86978  0.94971  0.42146  1.0000
  C   C1872     1.0  0.77879  0.86505  0.28553  1.0000
  C   C1873     1.0  0.94925  0.69771  0.38221  1.0000
  C   C1874     1.0  0.77908  0.96271  0.33409  1.0000
  H   H1488     1.0  0.83497  0.66583  0.35236  1.0000
  H   H1489     1.0  0.87742  0.62185  0.32875  1.0000
  C   C1875     1.0  0.90749  0.65078  0.46359  1.0000
  C   C1876     1.0  0.81410  0.53876  0.32668  1.0000
  C   C1877     1.0  0.71460  0.96244  0.36067  1.0000
  C   C1878     1.0  0.79390  0.95101  0.32278  1.0000
  C   C1879     1.0  0.93199  0.89152  0.25872  1.0000
  C   C1880     1.0  0.68390  0.89857  0.23707  1.0000
  H   H1490     1.0  0.81970  0.95415  0.29317  1.0000
  H   H1491     1.0  0.95390  0.66367  0.39873  1.0000
  H   H1492     1.0  0.97518  0.61388  0.38505  1.0000
  C   C1881     1.0  0.65736  0.93616  0.28533  1.0000
  C   C1882     1.0  0.94802  0.77697  0.41013  1.0000
  H   H1493     1.0  0.90767  0.61127  0.26903  1.0000
  S   S259      1.0  0.76550  0.49407  0.44240  1.0000
  C   C1883     1.0  0.69910  0.87335  0.31797  1.0000
  C   C1884     1.0  0.91874  0.58319  0.28917  1.0000
  C   C1885     1.0  0.92377  0.86077  0.35203  1.0000
  H   H1494     1.0  0.85172  0.60009  0.37894  1.0000
  C   C1886     1.0  0.91122  0.89658  0.26850  1.0000
  C   C1887     1.0  0.94369  0.64653  0.30890  1.0000
  H   H1495     1.0  0.87947  0.75571  0.42022  1.0000
  S   S260      1.0  0.86123  0.94565  0.25144  1.0000
  H   H1496     1.0  0.93214  0.84247  0.26946  1.0000
  C   C1888     1.0  0.98454  0.68382  0.37205  1.0000
  H   H1497     1.0  0.86734  0.92905  0.41863  1.0000
  H   H1498     1.0  0.66760  0.93415  0.38490  1.0000
  P   P63       1.0  0.92097  0.69404  0.40076  1.0000
  C   C1889     1.0  0.92795  0.87918  0.23646  1.0000
  C   C1890     1.0  0.87166  0.57007  0.32085  1.0000
  C   C1891     1.0  0.95295  0.52674  0.47685  1.0000
  H   H1499     1.0  0.87872  0.70016  0.37041  1.0000
  H   H1500     1.0  0.88272  0.64995  0.43339  1.0000
  C   C1892     1.0  0.80768  0.96274  0.30174  1.0000
  H   H1501     1.0  0.80254  0.92722  0.25742  1.0000
  H   H1502     1.0  0.97086  0.68945  0.30144  1.0000
  C   C1893     1.0  0.91584  0.59640  0.26837  1.0000
  C   C1894     1.0  0.92530  0.68186  0.42974  1.0000
  H   H1503     1.0  0.89579  0.63409  0.39653  1.0000
  H   H1504     1.0  0.93116  0.55298  0.30312  1.0000
  C   C1895     1.0  0.91804  0.55536  0.34836  1.0000
  C   C1896     1.0  0.76620  0.89035  0.24642  1.0000
  C   C1897     1.0  0.92181  0.72720  0.40568  1.0000
  C   C1898     1.0  0.73191  0.98690  0.37211  1.0000
  H   H1505     1.0  0.90183  0.53869  0.33858  1.0000
  C   C1899     1.0  0.69083  0.98564  0.34049  1.0000
  C   C1900     1.0  0.85392  0.56006  0.30106  1.0000
  C   C1901     1.0  0.85779  0.62197  0.37687  1.0000
  C   C1902     1.0  0.72214  0.88906  0.30400  1.0000
  H   H1506     1.0  0.91424  0.51539  0.42619  1.0000
  C   C1903     1.0  0.94593  0.52265  0.45277  1.0000
  C   C1904     1.0  0.68298  0.88520  0.32672  1.0000
  S   S261      1.0  0.96905  0.52587  0.30528  1.0000
  H   H1507     1.0  0.93407  0.80222  0.28807  1.0000
  C   C1905     1.0  0.69362  0.96151  0.34510  1.0000
  C   C1906     1.0  0.89752  0.72883  0.41174  1.0000
  H   H1508     1.0  0.63486  0.90504  0.41469  1.0000
  C   C1907     1.0  0.89834  0.75449  0.41595  1.0000
  H   H1509     1.0  0.96769  0.79555  0.40979  1.0000
  H   H1510     1.0  0.88958  0.67135  0.32574  1.0000
  H   H1511     1.0  0.74363  0.82767  0.27432  1.0000
  H   H1512     1.0  0.76869  0.95384  0.35059  1.0000
  C   C1908     1.0  0.88969  0.57295  0.46944  1.0000
  C   C1909     1.0  0.75605  0.84956  0.27087  1.0000
  C   C1910     1.0  0.95923  0.59762  0.37469  1.0000
  H   H1513     1.0  0.95315  0.62566  0.35103  1.0000
  C   C1911     1.0  0.91964  0.51834  0.44485  1.0000
  H   H1514     1.0  0.85150  0.94003  0.45590  1.0000
  C   C1912     1.0  0.90322  0.66004  0.44134  1.0000
  C   C1913     1.0  0.61030  0.94218  0.29663  1.0000
  C   C1914     1.0  0.62578  0.93728  0.31455  1.0000
  C   C1915     1.0  0.64931  0.93401  0.30906  1.0000
  C   C1916     1.0  0.77858  0.98649  0.32467  1.0000
  P   P64       1.0  0.66961  0.92893  0.33271  1.0000
  C   C1917     1.0  0.90034  0.51808  0.46097  1.0000
  C   C1918     1.0  0.64593  0.90755  0.35530  1.0000
  C   C1919     1.0  0.65024  0.91521  0.37921  1.0000
  C   C1920     1.0  0.63147  0.89869  0.39634  1.0000
  C   C1921     1.0  0.60805  0.87461  0.38979  1.0000
  C   C1922     1.0  0.60338  0.86700  0.36603  1.0000
  C   C1923     1.0  0.62219  0.88342  0.34884  1.0000
  H   H1515     1.0  0.82288  0.54410  0.36399  1.0000
  H   H1516     1.0  0.82117  0.61566  0.35679  1.0000
  C   C1924     1.0  0.94446  0.81023  0.27141  1.0000
  C   C1925     1.0  0.88202  0.97007  0.40402  1.0000
  S   S262      1.0  0.88810  0.49769  0.30093  1.0000
  C   C1926     1.0  0.68991  0.91295  0.32158  1.0000
  C   C1927     1.0  0.71338  0.92870  0.30784  1.0000
  H   H1517     1.0  0.67555  0.93420  0.28043  1.0000
  H   H1518     1.0  0.96825  0.71250  0.43296  1.0000
  C   C1928     1.0  0.89789  0.63632  0.32284  1.0000
  H   H1519     1.0  0.93613  0.70525  0.31212  1.0000
  C   C1929     1.0  0.87294  0.67840  0.37266  1.0000
  S   S263      1.0  0.61435  0.98885  0.33889  1.0000
  C   C1930     1.0  0.93092  0.68350  0.31335  1.0000
  H   H1520     1.0  0.71233  0.96409  0.24460  1.0000
  C   C1931     1.0  0.88261  0.64130  0.38709  1.0000
  H   H1521     1.0  0.75904  0.91338  0.46265  1.0000
  C   C1932     1.0  0.94363  0.83336  0.26084  1.0000
  H   H1522     1.0  0.59340  0.86211  0.40313  1.0000
  H   H1523     1.0  0.58501  0.84851  0.36094  1.0000
  H   H1524     1.0  0.61813  0.87746  0.33046  1.0000
  C   C1933     1.0  0.95046  0.67458  0.30731  1.0000
  H   H1525     1.0  0.94983  0.73197  0.36139  1.0000
  C   C1934     1.0  0.88982  0.66959  0.38590  1.0000
  C   C1935     1.0  0.95110  0.69524  0.44133  1.0000
  C   C1936     1.0  0.93071  0.54892  0.36768  1.0000
  C   C1937     1.0  0.98246  0.72236  0.35142  1.0000
  H   H1526     1.0  0.79511  0.93318  0.33059  1.0000
  C   C1938     1.0  0.86066  0.95596  0.44244  1.0000
  C   C1939     1.0  0.92352  0.77859  0.41485  1.0000
  H   H1527     1.0  0.78406  0.85523  0.30036  1.0000
  S   S264      1.0  0.95424  0.84280  0.32646  1.0000
  H   H1528     1.0  0.91579  0.84074  0.36068  1.0000
  H   H1529     1.0  0.92465  0.52751  0.37238  1.0000
  H   H1530     1.0  0.86207  0.56379  0.28335  1.0000
  C   C1940     1.0  0.90470  0.66440  0.32114  1.0000
  C   C1941     1.0  0.95116  0.57004  0.38092  1.0000
  C   C1942     1.0  0.91735  0.62719  0.31664  1.0000
  C   C1943     1.0  0.70844  0.89577  0.23747  1.0000
  C   C1944     1.0  0.94367  0.86774  0.33441  1.0000
  H   H1531     1.0  0.94255  0.54134  0.26443  1.0000
  H   H1532     1.0  0.88865  0.96503  0.38761  1.0000
  H   H1533     1.0  0.59253  0.94531  0.30117  1.0000
  H   H1534     1.0  0.87049  0.89401  0.26347  1.0000
  C   C1945     1.0  0.72915  0.91666  0.29878  1.0000
  H   H1535     1.0  0.79197  0.52627  0.32905  1.0000
  H   H1536     1.0  0.74724  0.98708  0.38481  1.0000
  C   C1946     1.0  0.95758  0.84434  0.23957  1.0000
  H   H1537     1.0  0.74712  0.92883  0.28805  1.0000
  H   H1538     1.0  0.92414  0.79849  0.41797  1.0000
  H   H1539     1.0  0.71113  0.88263  0.25082  1.0000
  C   C1947     1.0  0.74982  0.86212  0.25134  1.0000
  C   C1948     1.0  0.86320  0.98255  0.44592  1.0000
  H   H1540     1.0  0.71684  0.94396  0.36480  1.0000
  C   C1949     1.0  0.97335  0.80891  0.23988  1.0000
  H   H1541     1.0  0.73472  0.87994  0.29742  1.0000
  H   H1542     1.0  0.61966  0.93668  0.33276  1.0000
  H   H1543     1.0  0.66793  0.88760  0.24996  1.0000
  H   H1544     1.0  0.75345  0.97704  0.27033  1.0000
  C   C1950     1.0  0.95508  0.68640  0.46381  1.0000
  H   H1545     1.0  0.96020  0.78036  0.26941  1.0000
  H   H1546     1.0  0.93986  0.97488  0.39288  1.0000
  H   H1547     1.0  0.97652  0.61516  0.27342  1.0000
  C   C1951     1.0  0.88633  0.88950  0.25610  1.0000
  S   S265      1.0  0.94500  0.60555  0.47874  1.0000
  H   H1548     1.0  0.89079  0.63316  0.47205  1.0000
  H   H1549     1.0  0.98278  0.87187  0.37344  1.0000
  P   P65       1.0  0.85298  0.99087  0.47370  1.0000
  C   C1952     1.0  0.51524  0.49957  0.23296  1.0000
  C   C1953     1.0  0.51648  0.57450  0.66310  1.0000
  P   P66       1.0  0.97362  0.59475  0.62798  1.0000
  C   C1954     1.0  0.53606  0.55520  0.70211  1.0000
  H   H1550     1.0  0.64577  0.97109  0.70268  1.0000
  S   S266      1.0  0.72309  0.95239  0.53143  1.0000
  Fe  Fe134     1.0  0.63405  0.83053  0.66926  1.0000
  S   S267      1.0  0.61920  0.85339  0.64397  1.0000
  S   S268      1.0  0.66430  0.85094  0.69921  1.0000
  Fe  Fe135     1.0  0.59437  0.77385  0.65042  1.0000
  S   S269      1.0  0.57719  0.79260  0.62274  1.0000
  S   S270      1.0  0.57393  0.72661  0.65330  1.0000
  Fe  Fe136     1.0  0.62114  0.82527  0.61643  1.0000
  S   S271      1.0  0.63173  0.83955  0.57778  1.0000
  Fe  Fe137     1.0  0.57679  0.81949  0.65181  1.0000
  S   S272      1.0  0.54008  0.82804  0.65576  1.0000
  S   S273      1.0  0.63872  0.80377  0.64143  1.0000
  S   S274      1.0  0.59130  0.79920  0.67987  1.0000
  C   C1955     1.0  0.93231  0.50207  0.54031  1.0000
  H   H1551     1.0  0.58163  0.53697  0.70010  1.0000
  C   C1956     1.0  0.56550  0.70837  0.68078  1.0000
  C   C1957     1.0  0.57458  0.72185  0.70240  1.0000
  H   H1552     1.0  0.68269  0.96484  0.55783  1.0000
  H   H1553     1.0  0.82480  0.98176  0.51882  1.0000
  C   C1958     1.0  0.54305  0.66418  0.70226  1.0000
  C   C1959     1.0  0.54957  0.67948  0.68088  1.0000
  H   H1554     1.0  0.58685  0.74404  0.70259  1.0000
  C   C1960     1.0  0.60784  0.89163  0.69716  1.0000
  H   H1555     1.0  0.53111  0.64199  0.70210  1.0000
  H   H1556     1.0  0.54238  0.66887  0.66434  1.0000
  C   C1961     1.0  0.67316  0.88587  0.70443  1.0000
  C   C1962     1.0  0.55570  0.94872  0.67523  1.0000
  C   C1963     1.0  0.68775  0.94159  0.71359  1.0000
  C   C1964     1.0  0.68171  0.93159  0.69044  1.0000
  C   C1965     1.0  0.67407  0.90372  0.68589  1.0000
  H   H1557     1.0  0.93687  0.65637  0.49184  1.0000
  H   H1558     1.0  0.68311  0.94549  0.67598  1.0000
  H   H1559     1.0  0.66962  0.89624  0.66798  1.0000
  C   C1966     1.0  0.69686  0.92129  0.54406  1.0000
  C   C1967     1.0  0.67605  0.90103  0.53031  1.0000
  C   C1968     1.0  0.65629  0.87634  0.54098  1.0000
  C   C1969     1.0  0.65677  0.87161  0.56555  1.0000
  C   C1970     1.0  0.67726  0.89213  0.57937  1.0000
  C   C1971     1.0  0.69722  0.91670  0.56866  1.0000
  H   H1560     1.0  0.67541  0.90418  0.51140  1.0000
  H   H1561     1.0  0.64059  0.86067  0.53008  1.0000
  H   H1562     1.0  0.67805  0.88882  0.59825  1.0000
  H   H1563     1.0  0.71319  0.93218  0.57952  1.0000
  H   H1564     1.0  0.56755  0.59734  0.70553  1.0000
  H   H1565     1.0  0.51635  0.90367  0.63554  1.0000
  C   C1972     1.0  0.50349  0.82204  0.69011  1.0000
  C   C1973     1.0  0.52009  0.81137  0.68046  1.0000
  C   C1974     1.0  0.52042  0.78778  0.69062  1.0000
  C   C1975     1.0  0.50409  0.77498  0.71046  1.0000
  C   C1976     1.0  0.62030  0.98354  0.65054  1.0000
  C   C1977     1.0  0.64293  0.98207  0.68757  1.0000
  H   H1566     1.0  0.53280  0.77909  0.68294  1.0000
  H   H1567     1.0  0.88706  0.51958  0.54139  1.0000
  C   C1978     1.0  0.68629  0.92364  0.73221  1.0000
  C   C1979     1.0  0.88679  0.55777  0.54969  1.0000
  S   S275      1.0  0.69879  0.97697  0.71837  1.0000
  C   C1980     1.0  0.54311  0.90143  0.68705  1.0000
  H   H1568     1.0  0.50580  0.68445  0.72169  1.0000
  C   C1981     1.0  0.90200  0.58646  0.55077  1.0000
  C   C1982     1.0  0.92502  0.50005  0.56422  1.0000
  C   C1983     1.0  0.49311  0.70682  0.69646  1.0000
  H   H1569     1.0  0.89209  0.59871  0.55647  1.0000
  C   C1984     1.0  0.91486  0.51558  0.69246  1.0000
  C   C1985     1.0  0.93920  0.52110  0.70545  1.0000
  H   H1570     1.0  0.54275  0.54796  0.71781  1.0000
  H   H1571     1.0  0.48971  0.91685  0.69613  1.0000
  C   C1986     1.0  0.58030  0.88358  0.61489  1.0000
  H   H1572     1.0  0.52394  0.96186  0.67955  1.0000
  H   H1573     1.0  0.88149  0.52652  0.68735  1.0000
  C   C1987     1.0  0.78424  0.94802  0.51395  1.0000
  C   C1988     1.0  0.96632  0.51625  0.63305  1.0000
  H   H1574     1.0  0.55070  0.58190  0.61864  1.0000
  P   P67       1.0  0.94330  0.53428  0.52421  1.0000
  H   H1575     1.0  0.89854  0.56211  0.71869  1.0000
  C   C1989     1.0  0.48761  0.78584  0.72022  1.0000
  C   C1990     1.0  0.57751  0.89557  0.63570  1.0000
  C   C1991     1.0  0.60545  0.91615  0.69916  1.0000
  H   H1576     1.0  0.55727  0.88769  0.64361  1.0000
  C   C1992     1.0  0.61180  0.87847  0.71737  1.0000
  C   C1993     1.0  0.56293  0.92701  0.67811  1.0000
  C   C1994     1.0  0.81117  0.49735  0.53169  1.0000
  C   C1995     1.0  0.92035  0.56176  0.61050  1.0000
  C   C1996     1.0  0.50295  0.54649  0.66991  1.0000
  H   H1577     1.0  0.94065  0.53569  0.64038  1.0000
  H   H1578     1.0  0.51382  0.71858  0.68937  1.0000
  C   C1997     1.0  0.76558  0.92878  0.49819  1.0000
  H   H1579     1.0  0.55052  0.61450  0.67141  1.0000
  H   H1580     1.0  0.92357  0.51693  0.57278  1.0000
  C   C1998     1.0  0.60638  0.89262  0.60470  1.0000
  C   C1999     1.0  0.51269  0.53697  0.68942  1.0000
  C   C2000     1.0  0.92732  0.55458  0.53535  1.0000
  H   H1581     1.0  0.54429  0.84135  0.72571  1.0000
  H   H1582     1.0  0.85695  0.55861  0.61950  1.0000
  H   H1583     1.0  0.62710  0.78079  0.72582  1.0000
  H   H1584     1.0  0.50217  0.87859  0.70149  1.0000
  H   H1585     1.0  0.52484  0.88444  0.59897  1.0000
  C   C2001     1.0  0.51678  0.89780  0.69332  1.0000
  C   C2002     1.0  0.54986  0.58301  0.69530  1.0000
  C   C2003     1.0  0.87927  0.56606  0.62083  1.0000
  H   H1586     1.0  0.87907  0.53465  0.59822  1.0000
  H   H1587     1.0  0.79724  0.49441  0.49520  1.0000
  H   H1588     1.0  0.88814  0.56866  0.48827  1.0000
  C   C2004     1.0  0.48864  0.68761  0.71471  1.0000
  C   C2005     1.0  0.89845  0.97831  0.52724  1.0000
  H   H1589     1.0  0.66097  0.96893  0.59476  1.0000
  S   S276      1.0  0.82686  0.50014  0.57855  1.0000
  C   C2006     1.0  0.53511  0.61185  0.62300  1.0000
  C   C2007     1.0  0.55467  0.60318  0.61595  1.0000
  C   C2008     1.0  0.57978  0.62205  0.60595  1.0000
  C   C2009     1.0  0.58581  0.64985  0.60334  1.0000
  C   C2010     1.0  0.56671  0.65877  0.61063  1.0000
  C   C2011     1.0  0.54146  0.63990  0.62034  1.0000
  H   H1590     1.0  0.60869  0.88267  0.58902  1.0000
  C   C2012     1.0  0.56830  0.70651  0.72379  1.0000
  H   H1591     1.0  0.94139  0.62162  0.54406  1.0000
  P   P68       1.0  0.59806  0.93227  0.67356  1.0000
  P   P69       1.0  0.50420  0.58772  0.63828  1.0000
  H   H1592     1.0  0.50288  0.83998  0.68207  1.0000
  C   C2013     1.0  0.91012  0.55085  0.71487  1.0000
  C   C2014     1.0  0.48789  0.80975  0.71028  1.0000
  H   H1593     1.0  0.85760  0.95581  0.51231  1.0000
  H   H1594     1.0  0.88601  0.60002  0.64337  1.0000
  H   H1595     1.0  0.50913  0.56944  0.59022  1.0000
  H   H1596     1.0  0.59487  0.61530  0.60069  1.0000
  H   H1597     1.0  0.95030  0.50932  0.70200  1.0000
  H   H1598     1.0  0.57175  0.68053  0.60934  1.0000
  H   H1599     1.0  0.52759  0.64776  0.62636  1.0000
  C   C2015     1.0  0.62716  0.92510  0.63652  1.0000
  C   C2016     1.0  0.93406  0.52769  0.49311  1.0000
  C   C2017     1.0  0.90030  0.53056  0.69721  1.0000
  C   C2018     1.0  0.62982  0.91330  0.61558  1.0000
  H   H1600     1.0  0.89560  0.96237  0.54029  1.0000
  C   C2019     1.0  0.87684  0.97476  0.51144  1.0000
  C   C2020     1.0  0.50558  0.50277  0.52523  1.0000
  H   H1601     1.0  0.95098  0.59078  0.67597  1.0000
  H   H1602     1.0  0.74447  0.91543  0.50365  1.0000
  H   H1603     1.0  0.60550  0.66465  0.59607  1.0000
  H   H1604     1.0  0.54834  0.88451  0.68994  1.0000
  H   H1605     1.0  0.57064  0.96896  0.66930  1.0000
  C   C2021     1.0  0.92977  0.59931  0.54399  1.0000
  H   H1606     1.0  0.93666  0.61658  0.64658  1.0000
  H   H1607     1.0  0.92959  0.55135  0.60058  1.0000
  H   H1608     1.0  0.50164  0.51559  0.69520  1.0000
  H   H1609     1.0  0.50441  0.75684  0.71837  1.0000
  C   C2022     1.0  0.52914  0.94483  0.68115  1.0000
  H   H1610     1.0  0.89227  0.52306  0.49691  1.0000
  C   C2023     1.0  0.55255  0.67761  0.72381  1.0000
  C   C2024     1.0  0.48894  0.55576  0.59714  1.0000
  Fe  Fe138     1.0  0.72600  0.96986  0.49366  1.0000
  H   H1611     1.0  0.81681  0.51911  0.53289  1.0000
  C   C2025     1.0  0.97238  0.60658  0.67585  1.0000
  C   C2026     1.0  0.57651  0.51913  0.71157  1.0000
  H   H1612     1.0  0.65017  0.91936  0.60822  1.0000
  C   C2027     1.0  0.89564  0.58926  0.63430  1.0000
  C   C2028     1.0  0.54003  0.59268  0.67598  1.0000
  C   C2029     1.0  0.96078  0.53896  0.63425  1.0000
  H   H1613     1.0  0.56241  0.86641  0.60724  1.0000
  H   H1614     1.0  0.86511  0.54791  0.55452  1.0000
  H   H1615     1.0  0.60659  0.88255  0.68010  1.0000
  C   C2030     1.0  0.94231  0.58349  0.53612  1.0000
  H   H1616     1.0  0.97145  0.61678  0.71238  1.0000
  H   H1617     1.0  0.64567  0.94052  0.64510  1.0000
  H   H1618     1.0  0.61405  0.85973  0.71565  1.0000
  C   C2031     1.0  0.50977  0.91946  0.69036  1.0000
  C   C2032     1.0  0.89170  0.55247  0.60882  1.0000
  C   C2033     1.0  0.92434  0.59839  0.63629  1.0000
  H   H1619     1.0  0.60478  0.97338  0.63692  1.0000
  C   C2034     1.0  0.93671  0.58386  0.62526  1.0000
  C   C2035     1.0  0.60090  0.91665  0.64652  1.0000
  C   C2036     1.0  0.62183  0.96867  0.67072  1.0000
  C   C2037     1.0  0.60589  0.92662  0.72172  1.0000
  H   H1620     1.0  0.52217  0.52350  0.52273  1.0000
  H   H1621     1.0  0.77742  0.94945  0.53154  1.0000
  C   C2038     1.0  0.89938  0.54180  0.54222  1.0000
  H   H1622     1.0  0.96335  0.59408  0.52981  1.0000
  C   C2039     1.0  0.90748  0.52279  0.48496  1.0000
  C   C2040     1.0  0.81106  0.96620  0.50667  1.0000
  H   H1623     1.0  0.60293  0.94487  0.72373  1.0000
  S   S277      1.0  0.49885  0.58015  0.73017  1.0000
  C   C2041     1.0  0.81959  0.96496  0.48362  1.0000
  C   C2042     1.0  0.67948  0.89596  0.72756  1.0000
  C   C2043     1.0  0.67827  0.98689  0.58741  1.0000
  H   H1624     1.0  0.97326  0.52953  0.48258  1.0000
  H   H1625     1.0  0.51636  0.49969  0.56169  1.0000
  C   C2044     1.0  0.50006  0.88498  0.62810  1.0000
  C   C2045     1.0  0.50486  0.87413  0.60752  1.0000
  H   H1626     1.0  0.95031  0.49586  0.63790  1.0000
  H   H1627     1.0  0.98132  0.53317  0.56212  1.0000
  H   H1628     1.0  0.49204  0.60129  0.68542  1.0000
  C   C2046     1.0  0.98055  0.55313  0.52858  1.0000
  H   H1629     1.0  0.48793  0.84128  0.58231  1.0000
  C   C2047     1.0  0.69043  0.98458  0.56657  1.0000
  C   C2048     1.0  0.94911  0.54144  0.72302  1.0000
  C   C2049     1.0  0.93445  0.55626  0.72798  1.0000
  C   C2050     1.0  0.98112  0.56548  0.62793  1.0000
  C   C2051     1.0  0.56663  0.49285  0.70186  1.0000
  C   C2052     1.0  0.98401  0.62098  0.69670  1.0000
  C   C2053     1.0  0.48517  0.60558  0.64810  1.0000
  H   H1630     1.0  0.49017  0.49970  0.48941  1.0000
  C   C2054     1.0  0.61040  0.88665  0.85224  1.0000
  C   C2055     1.0  0.86609  0.96725  0.90744  1.0000
  H   H1631     1.0  0.65726  0.88844  0.80029  1.0000
  H   H1632     1.0  0.52425  0.51071  0.93544  1.0000
  C   C2056     1.0  0.61871  0.95611  0.92100  1.0000
  S   S278      1.0  0.50942  0.58879  0.78718  1.0000
  H   H1633     1.0  0.59481  0.90757  0.82763  1.0000
  H   H1634     1.0  0.66184  0.98830  0.87506  1.0000
  H   H1635     1.0  0.63059  0.89176  0.91408  1.0000
  H   H1636     1.0  0.91656  0.51545  0.77490  1.0000
  C   C2057     1.0  0.96199  0.92056  0.97562  1.0000
  Fe  Fe139     1.0  0.51077  0.61509  0.75528  1.0000
  C   C2058     1.0  0.57171  0.94114  0.78739  1.0000
  H   H1637     1.0  0.97043  0.98609  0.92056  1.0000
  C   C2059     1.0  0.50409  0.70414  0.77342  1.0000
  C   C2060     1.0  0.54866  0.84048  0.74438  1.0000
  H   H1638     1.0  0.83702  0.94796  0.93566  1.0000
  C   C2061     1.0  0.52725  0.85877  0.95622  1.0000
  C   C2062     1.0  0.63967  0.97715  0.90799  1.0000
  H   H1639     1.0  0.55989  0.50000  0.87821  1.0000
  S   S279      1.0  0.94476  0.58050  0.75118  1.0000
  H   H1640     1.0  0.88818  0.53973  0.76955  1.0000
  P   P70       1.0  0.59143  0.88989  0.87687  1.0000
  H   H1641     1.0  0.50023  0.60656  0.96520  1.0000
  H   H1642     1.0  0.74785  0.98096  0.88117  1.0000
  C   C2063     1.0  0.61161  0.87275  0.91634  1.0000
  S   S280      1.0  0.49130  0.78548  0.96849  1.0000
  H   H1643     1.0  0.63064  0.86602  0.87196  1.0000
  H   H1644     1.0  0.62429  0.90832  0.79494  1.0000
  H   H1645     1.0  0.87489  0.95290  0.90900  1.0000
  H   H1646     1.0  0.61417  0.96014  0.93865  1.0000
  C   C2064     1.0  0.50509  0.87436  0.84803  1.0000
  H   H1647     1.0  0.58621  0.54260  0.74367  1.0000
  S   S281      1.0  0.67598  0.96706  0.78792  1.0000
  C   C2065     1.0  0.54159  0.86035  0.85249  1.0000
  C   C2066     1.0  0.51976  0.91316  0.76388  1.0000
  C   C2067     1.0  0.54859  0.92107  0.79923  1.0000
  C   C2068     1.0  0.52287  0.90687  0.78750  1.0000
  H   H1648     1.0  0.55073  0.91624  0.81755  1.0000
  H   H1649     1.0  0.50531  0.89139  0.79688  1.0000
  H   H1650     1.0  0.61137  0.92258  0.75905  1.0000
  C   C2069     1.0  0.57923  0.52234  0.73609  1.0000
  H   H1651     1.0  0.67891  0.88229  0.74191  1.0000
  H   H1652     1.0  0.81802  0.98172  0.93326  1.0000
  S   S282      1.0  0.95308  0.73057  0.97005  1.0000
  C   C2070     1.0  0.62861  0.87479  0.85512  1.0000
  H   H1653     1.0  0.50805  0.61095  0.84729  1.0000
  H   H1654     1.0  0.51289  0.77015  0.77029  1.0000
  H   H1655     1.0  0.69121  0.93133  0.75005  1.0000
  H   H1656     1.0  0.54696  0.83539  0.89236  1.0000
  H   H1657     1.0  0.58624  0.96344  0.75464  1.0000
  C   C2071     1.0  0.85436  0.50586  0.75217  1.0000
  Fe  Fe140     1.0  0.96811  0.77521  0.98009  1.0000
  C   C2072     1.0  0.88019  0.51861  0.76358  1.0000
  C   C2073     1.0  0.56870  0.94753  0.76375  1.0000
  C   C2074     1.0  0.76850  0.93116  0.95086  1.0000
  C   C2075     1.0  0.49804  0.72628  0.76899  1.0000
  C   C2076     1.0  0.53045  0.70909  0.78163  1.0000
  C   C2077     1.0  0.55071  0.73609  0.78569  1.0000
  C   C2078     1.0  0.54476  0.75842  0.78144  1.0000
  C   C2079     1.0  0.76039  0.95190  0.94642  1.0000
  P   P71       1.0  0.57079  0.79282  0.78834  1.0000
  C   C2080     1.0  0.56145  0.81897  0.77735  1.0000
  C   C2081     1.0  0.57417  0.79327  0.82022  1.0000
  C   C2082     1.0  0.55244  0.79224  0.83408  1.0000
  C   C2083     1.0  0.55448  0.79195  0.85877  1.0000
  C   C2084     1.0  0.57792  0.79215  0.86982  1.0000
  C   C2085     1.0  0.59931  0.79243  0.85619  1.0000
  C   C2086     1.0  0.59736  0.79271  0.83148  1.0000
  C   C2087     1.0  0.56264  0.83992  0.79215  1.0000
  C   C2088     1.0  0.55592  0.86036  0.78325  1.0000
  C   C2089     1.0  0.54869  0.86053  0.75942  1.0000
  H   H1658     1.0  0.48871  0.67296  0.93343  1.0000
  C   C2090     1.0  0.55498  0.81974  0.75326  1.0000
  C   C2091     1.0  0.60263  0.80020  0.77346  1.0000
  C   C2092     1.0  0.60252  0.78522  0.75347  1.0000
  C   C2093     1.0  0.65217  0.82909  0.76884  1.0000
  C   C2094     1.0  0.62748  0.82260  0.78067  1.0000
  C   C2095     1.0  0.58548  0.83052  0.93863  1.0000
  H   H1659     1.0  0.58392  0.81704  0.95357  1.0000
  C   C2096     1.0  0.56483  0.84115  0.90393  1.0000
  H   H1660     1.0  0.57108  0.73956  0.79207  1.0000
  H   H1661     1.0  0.50312  0.83731  0.83346  1.0000
  H   H1662     1.0  0.53390  0.79168  0.82579  1.0000
  H   H1663     1.0  0.53779  0.79130  0.86944  1.0000
  H   H1664     1.0  0.57927  0.79166  0.88898  1.0000
  H   H1665     1.0  0.61727  0.79209  0.86480  1.0000
  H   H1666     1.0  0.61378  0.79204  0.82132  1.0000
  H   H1667     1.0  0.56924  0.84098  0.81041  1.0000
  H   H1668     1.0  0.55673  0.87633  0.79477  1.0000
  C   C2097     1.0  0.50925  0.86713  0.91898  1.0000
  H   H1669     1.0  0.90217  0.98683  0.95548  1.0000
  C   C2098     1.0  0.75254  0.96312  0.96512  1.0000
  H   H1670     1.0  0.48945  0.60541  0.88774  1.0000
  H   H1671     1.0  0.62768  0.83512  0.79532  1.0000
  C   C2099     1.0  0.51643  0.85023  0.93351  1.0000
  H   H1672     1.0  0.63520  0.91307  0.96987  1.0000
  C   C2100     1.0  0.98385  0.97627  0.91924  1.0000
  Fe  Fe141     1.0  0.49670  0.75523  0.94528  1.0000
  H   H1673     1.0  0.63590  0.94259  0.85780  1.0000
  C   C2101     1.0  0.64558  0.97200  0.88523  1.0000
  H   H1674     1.0  0.54057  0.93899  0.73391  1.0000
  H   H1675     1.0  0.57433  0.50182  0.76989  1.0000
  H   H1676     1.0  0.76063  0.95964  0.92855  1.0000
  C   C2102     1.0  0.57257  0.49933  0.75088  1.0000
  H   H1677     1.0  0.62691  0.86056  0.94777  1.0000
  H   H1678     1.0  0.65978  0.86661  0.83876  1.0000
  C   C2103     1.0  0.87664  0.98909  0.89099  1.0000
  H   H1679     1.0  0.60843  0.59360  0.77865  1.0000
  H   H1680     1.0  0.53273  0.84539  0.96726  1.0000
  H   H1681     1.0  0.48854  0.68314  0.77037  1.0000
  H   H1682     1.0  0.59003  0.50017  0.91162  1.0000
  H   H1683     1.0  0.55741  0.56577  0.77469  1.0000
  C   C2104     1.0  0.94024  0.98345  0.96097  1.0000
  C   C2105     1.0  0.51817  0.75335  0.77331  1.0000
  C   C2106     1.0  0.51307  0.89276  0.92711  1.0000
  C   C2107     1.0  0.52987  0.88383  0.96499  1.0000
  H   H1684     1.0  0.77522  0.92293  0.93644  1.0000
  H   H1685     1.0  0.94501  0.49855  0.79720  1.0000
  C   C2108     1.0  0.58906  0.86602  0.90056  1.0000
  H   H1686     1.0  0.48834  0.64970  0.82605  1.0000
  H   H1687     1.0  0.54935  0.84564  0.84889  1.0000
  C   C2109     1.0  0.61365  0.88984  0.73966  1.0000
  H   H1688     1.0  0.54430  0.80441  0.92552  1.0000
  H   H1689     1.0  0.58342  0.76881  0.74665  1.0000
  S   S283      1.0  0.49731  0.75551  0.90513  1.0000
  C   C2110     1.0  0.62509  0.89835  0.81151  1.0000
  H   H1690     1.0  0.54382  0.87662  0.75247  1.0000
  S   S284      1.0  0.48729  0.89580  0.74899  1.0000
  H   H1691     1.0  0.51550  0.65667  0.95939  1.0000
  S   S285      1.0  0.60360  0.95750  0.80315  1.0000
  C   C2111     1.0  0.52329  0.90111  0.95006  1.0000
  H   H1692     1.0  0.55508  0.80450  0.74125  1.0000
  C   C2112     1.0  0.62722  0.79191  0.74156  1.0000
  Fe  Fe142     1.0  0.64627  0.98551  0.78823  1.0000
  S   S286      1.0  0.50712  0.51936  0.75957  1.0000
  C   C2113     1.0  0.50500  0.49171  0.93501  1.0000
  C   C2114     1.0  0.59394  0.90364  0.98116  1.0000
  C   C2115     1.0  0.64369  0.88720  0.81461  1.0000
  C   C2116     1.0  0.54275  0.93372  0.75209  1.0000
  C   C2117     1.0  0.60972  0.85513  0.93537  1.0000
  H   H1693     1.0  0.74696  0.97973  0.96180  1.0000
  H   H1694     1.0  0.53529  0.69197  0.78471  1.0000
  H   H1695     1.0  0.51310  0.83022  0.92733  1.0000
  H   H1696     1.0  0.67134  0.84650  0.77431  1.0000
  C   C2118     1.0  0.58672  0.51816  0.90806  1.0000
  C   C2119     1.0  0.59984  0.54146  0.92225  1.0000
  C   C2120     1.0  0.59599  0.56485  0.91743  1.0000
  C   C2121     1.0  0.57892  0.56493  0.89852  1.0000
  C   C2122     1.0  0.56525  0.54141  0.88445  1.0000
  C   C2123     1.0  0.56960  0.51814  0.88915  1.0000
  P   P72       1.0  0.54350  0.54171  0.85985  1.0000
  C   C2124     1.0  0.51848  0.50623  0.85447  1.0000
  C   C2125     1.0  0.52587  0.56163  0.86836  1.0000
  C   C2126     1.0  0.51543  0.55886  0.89132  1.0000
  C   C2127     1.0  0.50249  0.57466  0.89827  1.0000
  C   C2128     1.0  0.49996  0.59354  0.88248  1.0000
  C   C2129     1.0  0.51050  0.59668  0.85970  1.0000
  C   C2130     1.0  0.52346  0.58088  0.85266  1.0000
  C   C2131     1.0  0.49646  0.49226  0.87013  1.0000
  C   C2132     1.0  0.51546  0.85557  0.84370  1.0000
  H   H1697     1.0  0.50750  0.90586  0.91577  1.0000
  H   H1698     1.0  0.58422  0.89126  0.96578  1.0000
  C   C2133     1.0  0.60377  0.92986  0.91128  1.0000
  C   C2134     1.0  0.56435  0.55726  0.83400  1.0000
  C   C2135     1.0  0.55158  0.55455  0.81164  1.0000
  C   C2136     1.0  0.56748  0.56758  0.79179  1.0000
  C   C2137     1.0  0.59622  0.58326  0.79403  1.0000
  C   C2138     1.0  0.60912  0.58590  0.81615  1.0000
  C   C2139     1.0  0.59329  0.57302  0.83609  1.0000
  C   C2140     1.0  0.76841  0.92135  0.97396  1.0000
  H   H1699     1.0  0.61322  0.54151  0.93683  1.0000
  H   H1700     1.0  0.60641  0.58304  0.92827  1.0000
  H   H1701     1.0  0.57646  0.58338  0.89485  1.0000
  S   S287      1.0  0.54495  0.65905  0.75108  1.0000
  H   H1702     1.0  0.51723  0.54452  0.90396  1.0000
  H   H1703     1.0  0.58757  0.91375  0.92156  1.0000
  H   H1704     1.0  0.50047  0.86017  0.90151  1.0000
  H   H1705     1.0  0.53935  0.50129  0.82383  1.0000
  H   H1706     1.0  0.53145  0.58386  0.83496  1.0000
  C   C2141     1.0  0.49770  0.64184  0.94958  1.0000
  C   C2142     1.0  0.63074  0.94580  0.87547  1.0000
  H   H1707     1.0  0.61731  0.87989  0.75518  1.0000
  S   S288      1.0  0.53518  0.75903  0.96426  1.0000
  C   C2143     1.0  0.56314  0.82347  0.92285  1.0000
  H   H1708     1.0  0.52924  0.54270  0.80957  1.0000
  H   H1709     1.0  0.55927  0.92176  0.87953  1.0000
  H   H1710     1.0  0.96949  0.91849  0.95861  1.0000
  H   H1711     1.0  0.63141  0.59823  0.81789  1.0000
  H   H1712     1.0  0.60375  0.57568  0.85305  1.0000
  C   C2144     1.0  0.52101  0.89815  0.86097  1.0000
  C   C2145     1.0  0.60839  0.89792  0.83015  1.0000
  H   H1713     1.0  0.52540  0.92070  0.95616  1.0000
  H   H1714     1.0  0.93032  0.96144  0.95776  1.0000
  C   C2146     1.0  0.60987  0.92441  0.88852  1.0000
  H   H1715     1.0  0.51319  0.91300  0.86379  1.0000
  C   C2147     1.0  0.50754  0.70249  0.86489  1.0000
  C   C2148     1.0  0.48789  0.66096  0.84153  1.0000
  C   C2149     1.0  0.64517  0.87505  0.83631  1.0000
  H   H1716     1.0  0.52310  0.72367  0.86755  1.0000
  H   H1717     1.0  0.52347  0.69868  0.83135  1.0000
  C   C2150     1.0  0.65205  0.81366  0.74937  1.0000
  C   C2151     1.0  0.50768  0.68843  0.84453  1.0000
  C   C2152     1.0  0.55755  0.88395  0.86588  1.0000
  H   H1718     1.0  0.49397  0.57178  0.91580  1.0000
  C   C2153     1.0  0.54717  0.90299  0.86988  1.0000
  C   C2154     1.0  0.84465  0.96434  0.92240  1.0000
  H   H1719     1.0  0.48807  0.70019  0.89805  1.0000
  H   H1720     1.0  0.84222  0.51703  0.74940  1.0000
  C   C2155     1.0  0.95670  0.49916  0.78169  1.0000
  H   H1721     1.0  0.49319  0.50270  0.88487  1.0000
  H   H1722     1.0  0.48912  0.75970  0.85530  1.0000
  C   C2156     1.0  0.83370  0.98320  0.92091  1.0000
  C   C2157     1.0  0.48920  0.61360  0.95274  1.0000
  H   H1723     1.0  0.67102  0.81922  0.73971  1.0000
  H   H1724     1.0  0.77522  0.90565  0.97706  1.0000
  H   H1725     1.0  0.57573  0.71710  0.74038  1.0000
  H   H1726     1.0  0.97983  0.97387  0.88126  1.0000
  Fe  Fe143     1.0  0.49319  0.55288  0.76216  1.0000
  C   C2158     1.0  0.61045  0.91382  0.74184  1.0000
  Fe  Fe144     1.0  0.69089  0.99039  0.75377  1.0000
  C   C2159     1.0  0.89639  0.50467  0.76652  1.0000
  H   H1727     1.0  0.96771  0.54523  0.73311  1.0000
  C   C2160     1.0  0.48741  0.68921  0.88210  1.0000
  H   H1728     1.0  0.94045  0.87630  0.98107  1.0000
