data_image0
_chemical_formula_structural       FeS2FeS2FeSFeS3FeHSHC2SFeCSFeCH3FeS2FeS2FeS2FeSFeS4HFeS2C3HFeSC2S2H2CFeS2FeS2H3FeSH2SC2HC6HCH3CH2C3HCSC8H4C6H4C6H5C2HC3H4C5H2CHFeC6H4C6H4C6H4C3HC2HCSFeHC2HC2HCSHC2HCHSHC2H2SC2H2CH2CHC6PC15H14C3H4PC2HC3H8C3PC3HCPHCH4C2HC2H2SC2FeHC2HC3H2CHC3H4CH2CH2CHPHC6HCH2CHC2H4CHPHC7PC14H7CH9C6PC18H22CHC7FeH4C2HC3HC3HC2HCHC2PH3CH2CFeHC3FeHC3H2C2HCHC4SH2SC2H2C2FeCH2C5HFeC2HCHCH2C5HC4H2CFeCH2CPHCH2C2HC2H2CHC2H2C3SPC2H2C2SHCHC2H2CHCH2CHFeC2HC4HC2FeC2HC3HCHCH3C3H6C2HC2H2CSH5CH2CHC2HC2H4CHC3HCH7C2HCHC2HCS2C2HSCSC2HCHSHSC4HCSHCHC2H2CSHCFeS2FeS2FeSFeS3H3C2S2CFeCFeSC2FeSCFeS2CSC2FeSCSFeS2HCFeSFeSH2C3H3CH2C6H4C2PC8H4CH5CHC2HC6H2CHC6H4C6H4C6H4C5H2CH2C7H3SH4C3H3C3HCH2CH2C2H4C6PC18H20C9HCHSC2HC3H3C3H5CFeSCHCHC2HC7PHC7HCHPC2HCH11CHCH2CH5CH2CH2CHSC6HC4H2CH2CH2CH2CHC2SHC2HSHCHCHC2HC2FeC2HCHCH6CHCH2C2SH3C2HCHCHC5HC2HC4H3C6H2C6HCH2P2CHPC2H5CH3FeHCHC2HC6PC18H18CHCH2C2HPCH2C2H2C11H3CH2C5H3C2PHFeH2CH5CHC2H4CH2CSHCSC2FeC2H2C3HCHC2S2CH2C2H2CHCHC2HCH2CH2C8SHCH2CHCH2C5FeS2FeS2FeSHCS2FeS2FeSFeSFeS3FeS2FeSHSFeS2FeS2FeSFeS3FeS2FeS2FeSFeS3CSH2CHC6H2C6H4C4HC6H7C6H4C6H4C6H3PC6H6CH3PCHCHC8H3FeHCH3C2H2C6HCHCHCHC5HC2HC4HCHC2H3CHCHCH2C6H3CHC3H2C3H3CH3CH2C2HCHCH3CHCHCHCHCHC6PHCHCHC3SCH2CH3C2HC3HPH2C2H3C3H3CPC8H11CHC3HC3PC6HC9H4C2H4CH6C3SC6PC12H11CHCHC3PC3HC15H3CH17CH4CH2CHCHC2HCHCPCH3CH4CHC2H2C2H3C5H2CH2C6H6FeH2C7HCHCH2C3HCHFeH2CH2CHC3SCFeCHCHC2HSH2CH2C3H2SHC2H2C3H3CHCHC2H4FeS2CFe2SCSC2SCFeSFeSHCFeS2FeS2FeSFeS3CFeC4PCH2FeSCFeSFeSFeSC6H4C3HCH2CHCHC5H3C2H3SHCPCHC7H4C6H4C2H2C2HC2H3CHC2H2C2H4C3HC4H6C6PC7HC5HSCHCH15CHPHC3HCH4PC5HC6H4C2H4CHCHCHCH4C3HC4SHCHC2HCSC2HCSHC2H6C2HC4HCHC5HC2PC3SCH2CH4C6H2C2HC6HC2H6C3HCFeC2H3C2HSC5H2CHCHC2H2CH2SC3HC5HCH2CH2C2HCH2CHCHCSCH2C3H3C3HC3FeH2C3HPC7HC6HC2H2CH8C2H4C3HCH2CHC2HCHC3HPC12H7C2H3CH2CH3CHCFeCHCH2CH2CHC2HCSCHCH5CH2CSHC2SH3CHC3HC3HC2HCHC4HC2HC2H2C3H2C3H2CHSCH2C2H2CPSC3H2CH2CHCH2C2H2SHSHSCHPSHCHC2HPC6H2C5HCHC2HC7HC3H2C2H2CHC2H2CHCSHCHCSCH2C2H2PFeS2FeS2FeSFeS3FeCHFeS2FeSCS2FeS2FeS2FeSFeS3FeCSFeHCFeCH2S2H2CHPCHCH9CH3C4FeC5HC2HCHC6H4CSC6H4CH2C6H4C6H4CH2CHCHC7H3C2HC3PC3HSC9H2CFeH3CH2CHCHCHCHC10PC15H18CHCHCH2C2PCHCH2CH3PHCH2CH3C2H2SC2PC2H3C2H3FeCHCHC5HCH4CHCH2CFeHSC5H2CHC2H3C2HCHC2HCHCHCHCH3CHC5H2CHC3HCH2PCH2FeC5HC2HCHC6PC13H3C2H3C2H4C7HC2H2CSC3S2C2HC3H3C3H3CHCH2C7H2C3H4FeSH7CHCS2H2C2HCH5CH2C9HCH2CHC2HC2H2C2HSHC2FeS2FeS2FeSFeS3CS2FeS2FeSCFeSFeS3H3CSHFeS2FeSHFe2S3FeCSCHSCFeCSH8C2FeC6H3C3H3CHC3HPHC6H4C6H3C2HPCHC8H2C6H4C6H4C2H2C2H2CH2CPC4HC14HPH5CH8C2HC7SH4C2H3CHSHC4H3C5PC3HC2HC7H2C3H4CHC2H6CHCH2CHC7HCHCHC4HC3HCHCPCH2C3HC3H3SC3HC6PC18H18C5HC3HC2HC3HC3H4CHC3PC3H4C2H2CH4PCHCH6C2HC4HPH3C4HCH2C2H2PHCSHC5H2CH2C2FeSHCHCHC3HCH6CSCHCH3CSC2HCHC2HCH6C2HC4H5PC4HCH2SH4C9H3C2H5CHSCH3CHC2HCHC2HC4HC5HCH2C4HC2FeCHC2HC2HC3HCHC2HC5HCHCH3FeCHC2HC4HC3H4CH2SCH2SHSH2SFeS2FeCFeHS2H2SCHSH2FeS2C2FeSCSCFeS2FeS2FeSFeCS3C2H2CHC6H5C6H4C7H2FeC3HCSC2PC6H4CHC2HC3HSFeH4C4HCH2CHC7PC18H2CH4C2H3CH8SC5H4C3H4PCH3CH3C3H2C2HCH2CH4CHCHCH2C2HC2H2SC2H2CH6PC7HC4FeCH8C3FeCHCH3C2H2PHCHC4H2FeSHC8HC2HCH4SH3CH5CH3CH4CHC5PCHC2HSC2SC3HC2FeHC3H2SCH2CH3CH2C2H2C2HPC13HC2H7CH6C3H3CH3C2HCH2C3HCHC2PC2HC7HC8HC5H3CSC3H4CH3C2HC6PC18H12C4HCHC6FeCHFeH2FeS2HFeHS2FeS2FeS2FeSFeS3FeS2FeS2FeS2FeS2FeSFeS3HS2FeS2FeSFeCSH2FeS2C4HCHSHCHC5HC4H3C4H2C6H4C6H4C6H4C6HCH2C6H4C3HCHC3PC19HCH18C2HCH3C2HCH2CHCHCH2C13HCHCHC2HCH5C2H6CH3SPCSC2HC6H2C4PCHCHC3PH6CHCH2CHC2HC2H2C4HCHCH3CHC2HSCHCSCHCSH2C3HC2HCHCHCSCH2C7PC8H3C7H22CHPHC2H4C2H2CSCHC2H2CHC6HSFeHC3H2C2HCHCHC2HC2HCHC2HC2HC2HC3H2PCHC2FeC2HCHC2HCH6C2H2C2FePCHC2H2C2FeCPHC2H2C4HCH2CH6C6HFeHCH4C2HSCHCSH4FeS2FeS2FeSFeCS2CFeS2FeSHFeCFeS4CHCFeS2FeS2FeSCFeSFeS3C4HCPHFeC6H5C3HC6H2CHC9H5C7H6C3HC3HCHC4FeH4CH3C4HC3H2CHC2H3C2HC4H2C3HCSC2HCHC3HC2H3C2HC3H4CSH3C2H3C2HC2HC2H3CHCHC2HCH2C11HCHC3HC3SCH4CH3PC5HC2H2C3HC2HCHCSH2CHCHCHCH4C2HCH2C2HCH4C2HC2SH2CH2C2HCHC2HCH2CHCHC4H3C4H2C2HC10PHC4H3SHCHC2H2C2H5CHCH2CH2PH2SFeHC6PC3HCH11C4PC20H2CHPH4CH6C3H2C3H3CHC6PC2PCHC2HCHC6H5CHCH3CH3CSHC6PCHC2HC2HC2HC4HC2SHCH2CHC2H4CH2C4HC3H2C2H2PC2H2CHC2H2CH2C2HCSHFeS2FeS2FeSFeS3H2S4H2FeS2FeSHFeSFeS3HC5HCHFeS2C2FeSFeS2C2HC3FeHCH2CH2PHC6H6C2HC6H5C3HCHPC2H2SC8HSCHC6H4C6H4C7H2CH2C7PC18H12CH7CH3CHCH3CHCHC4FeC2SH4C2HCH2C4SHCHC2HSCH2C2H4FeC2HCSH3CHC3H3CHCH2C7PCH2C2H2C2HC4H8CSH2CH2CH5FeC4HC3H3C2HC2HCSC6HCH3C2HCHC6H3CH2C2H3CH5CHC5HC3SHCH2C2H2C4FeCHCHCHC3HCH2C2HPHC5HCH3C4HC4H6CHC2HC2SH2CH3CPC3HC8HC4HSHC2HC2HCSHC2H2CH2CH2PFeC2SH3CHCH7C3HC2H4CH2C2HCH11CH2C4H3CFeS2FeSCFeSFeS3C2HCH4CSCFeSCFeS2FeSFeHS2FeS2FeSFeSFeS3H2C2HC3HCH2PHC6H4C7H5SHC3HSH2C6HC2HC2HCHC3HCSPC2H3CHSCHC2H4CSC2HSH2CHC2HC2H2CHCHC2SC3SC2H2C2PH2CH2C2HCHPH2CHCHCH2C4HC3H3CH2CHC2H2CHCPHC3HCHCSHC2HPHC2H2C3HC13H2CH3C3H8CHCHCHC4HC2HC2HC4HC3HC3H2C4HC4H3CHCHCHC7PC3H2CHCHCHC4H2CH6CHC2HCFeH2CHC5HCH4CHSCPHC3H2CFeC3H3C2H2C2HCH2C4HC2HCHCH2SC4H3C3H6C4PC2SH2CHC5H3CHC2H2CH3C4HCSC2H2C2HC2H6CH2SH3C2HCH3CPC2FeHC4H2CPHCHSC2H2CH2C3HCH2CHC4H2C4FeCH4CH5CHFeSHFeSCFeSFeS2HFeS2FeS2FeSFeS3FeSHFeS2FeSFeS4H3SC2PHCSFeS2FeS2Fe2SCSH2CHSC7H5SC4H5C6HCHC7H4C6HC2H5C2H2C2H3C6H5CPC8H4CHC2HCH2C6HCSPCH3C2H2C2H3C2FeCH4CH2C2HCH5CHC2H5CH6C2HC6PC18H20CH2CH2C3FeCH3C2HC10HC2H4C5H3CHCSC2HCH2SCHC2HCH2C2HCHC4HCH2C2HC6PC18H20SH4PH2C3H3CH2CSHC3H3C9HC2HCH2C3H9C3SHCHC2H5C2HCHCH2CHC3H2C5HSHCHCHC9HC2H3CH4C4PH2CH2CHC6HC4HC2H2CH3C2HC8HSHC4PC14HC3H3CH7CHC7SCHCHC3HSH2CHC2HC5HC2H2CHCSCH2C2HCPSFeS2FeSH2SHFeSCFeSFeSFeSCFeSFeS2FeSFeS3FeS2FeS2FeSFeS3FeS2FeS2Fe2S2FeSFeS3C5H3C6H4C6H4C6H4C7H3CHC7HCH2C6H4C7H2PHC2H2CSCHCHC2HC3HCH2C3H2CHCHCHFeHC2SCH2CHCH4CHC2SCPHCHCPHC2HC2HCHCHCHCHC2HCH3C2HSC4HC7HCH2CH3C3PH5C7H4C2HCHC6FeHC9H4PHCH2C3H2C2HCH4C7H2C3HCHCHC3H3SCHC3HC9PC7H12C6HC9H2CH2CHC2H4CH6CH6CHCH2C3PFeSHC4H2C2HC6HCH6PH2CH8CHCHCHC8PC18HCH18C2HPCHC3HSCH2C3HCHC2H2CH2CHC5H2CHC2PH2CH6CH2C3HC3HCH3C2HFeS2FeS2FeSFeS3FeS2H3FeSHSFeS2FeS2FeSFeS3CHCSH3CPCH2C3HCHC2H2C2HCH2CH2C4PSHCHCH2C5H5C4HCHSC2HC6HC6H4CHC2HC3H2CHFeHCH4SCH3C2PHCFeHC2HSC3H3C4H2C2HC3H4C3H3CH2C5H2C3HPH2C2H4CH2C2H4CH3C12H10C3H2CHCH7C4PC8HC3HSC3HC2HCHC4HC4HC2HC2H2C3HC3H3C3HC3PC7HC2H3C2H6C2HC4HCHC2SC2H2C2HCHC2H2CH2CH3CH2CHC2HC10HC3H7CPFeSC2H2C3HCHC3HC2HC2PCHCHCH2CHC2H6CHCHC2HCH2C5HC4H2C2SH4C2HCH2C4HC4H10C5HPHC3HCFeCFeS2FeS2FeSFeS3PC2H2C3HC5HSFeS2FeS2FeSFeS3FeS2FeS2FeSFeS3FeHC2H2CH2CHSHC2SHCHC6H4C6H4C6H3C7H4C6H4C3H4C3H3SH2C4H2CH2CH3C6PC18H19C3HPFeC2H3CHC3H3C6HCH2CPCHC2H4CH6C4HPC2HCHC13SCHFeHSCH7CH2C4HCH2SH2CHCHCHCHC5H3SCH3SHCHCHC6H6C10PSC4H4C5H7FeH3CHCHCH2CH2C7HSHC9PC18H20C6PC18H20C3HC3HCHC4HC4HC2H2C4HFeH5C5HCHC2HCH3CH5CHCFeHC4HCH2CH4C5HFeS2FeS2FeSFeS3FeS2C2HCHC3HFeSH2SCFeSFeSCSFeHSHFeSH2FeS2FeS2FeSFeS3CHCH2C4H3C6HFeH2C6H4CHSCH3C2HC6H4C3HC2HCH3CHC2HCHC2FeCHC6H2CHC2HS2CHCH2C6H4C6H4C3PC16H7CHCH4C6H2CH3PCH6SHFePHC4H2SCHCHC2PCH2C2SCH2C2HC2HC4H3CPCHC2HCH3C2H2C2PC2H2C2H3C6PC18H12C2H6C6H6C6PC18H2CH3C3H2CH8CHSHCHC3HCH3CH2CHCH2C2HCHC2HC2PS2HSH2CH2CHC3HC5HC2HCHC2H2CFeCH3CSH7CHC2HCSC3HCHCHCS2C2H2C3HC3HCH4CH3C3HC3HC2H3CHCH2C2FeH3CHC4H3CSCFeHCSHCHC2HCHCHCHC3PH3CHC2HC4H4SH2FeCH2CHPHSC4FeH2CH2C2HSC2H3CH2C2FeHCHC4H3FeS2FeSHFeSFeS3FeHSCHC3S2CFeSH2FeS2FeS2FeSFeCS2CHCH2CH2C2SH5C8PFeC4H4C7H4SH3CH2C6H6CH3C7H3CSH2CH2C2H3C4H2C2PH2C3H2C4H2C2HCHC2H2C2H2C2H2CH2C2HC3HC3HPCHCSH2C3HC2HC6HCH2C2HCHC3HCHC4HC3H3CH4C4HCHCHCHSC2H3SH7SHC2HC7H3PC3H2C6HC3H2CHC5HSCH4C7H2C2SPC2H2CHSC5H4C3HC2H2SC3H5C2HFeCHC4HC2HCH2CH2CH2CHCHC3HCHC2HC4HCHC2H2CSC2H3CH3PCHSCHC2HCH3FeHCHCHC2HCH3CHCH2CHC2HC4H2C2H5CHC3HCHC2FeHSHSC3PFeSFeSCHSFeS2HFeCFeS3FeS2HFeS3FeS2FeS2FeSFeS3FeS2FeS2FeSFeS3FeHSFeH5SHCHCSC6H4C6H4C6H7C3H3C6H3C7H4C6H4C7H4C7H3PHC2HCHCH3C3HC2H3C2HC3HC2SCH3C3H3C3SHCHC9SCHCH5CFeC2HCHCHC4H2PHCH4C7HFeCHC7PC10HC7H10PCH6C4PC9HC8H16CHC4PC18H9C3H7SC2H3C2H2C3HFeH2SHCH4CHCSH3FeH4CHC2HC3PC14H3C2H15C3HC2H2CH2CHC2HC3HCH3FeH2CPCHC4HC3HCH3CH3C2PC3HC2H3C2H2C5HC2H2C6PC10PC4HC2H12C2H2C2HC5HC4H3CHC3HCHCHC2HSC2HSCSHCHSHCSCSCFeCFeS2H2CHFeS2FeS2FeSFeS3FeS2FeS2FeSFeS3HSCFeCSCHS2HFeS2FeS2FeSCHS2HCHCH3C3HCHC6HCH4C3HCH2C7H4CHCHPCH2CH2SH2C2HC4HCH2C7H4C2HC6H5CHC3H5C4HCH3C4HC2HCHCSHCFe2C2HCFeC3HC4FeCHC3HCHC2HC3H5CHCH2CPHC13H8C2H4CPC6PC12HC2H7CH4CHCHCHC2HC2HCHPHCHCHCSH2CHC2HC5HCHC3HC3H4CHCSH4C8H7FeC3H3C3HC3HC2H3CH3C8H8C10HC2H2CH3C3HPH3C2HSHCHSH2CHFeHC5H2CHPHCSHSH2C5HPC2H3CH2CH4C2HCHSC2H2C2H2C3HC4FeH2CH5CHCH2C2SC2H3C7HC4HC4HC2H2C2HCHC2SFeHCHCH2CHCHC3HCH3CH2C2HCH2C2HC2SCHCSH2CH3C2HC3H3C3H4C4H4C2HCH3C5SC2HSFeC2HC4H2CH3CHCHCH3SHCHCHCHC4HCHCHCHCHC2HC3FeC4HFeS2FeS2FeSFeS3HCHCHCFeS2FeC2FeSHCSC3SCH2CHCSFeSHSHFeS2CHFeS2FeSCFeSFeS3H5CHC4SH3C8H5C2H2SH5C6H3C3HC6H4CHC2H2FeC9H4C6H4C6H7C2H2C4HC2HC3HFeHSC2HC2HC3HCHCH3SCH2CH2C2H2C6PC18H12CH7C2HFeH2CHCSCH2C3FeCHCSHP2C2H2CH2C4HC3HCH2PC9HC6PCHCH5C2HCHCHCH2C2H5CHC4H2CH2CHCHCHC5HC2H2CHCHCFeHCSC2HC6PHC5HC5HCH3CH6CSC2H2C2HC2HPCHC4H5C2HCHCH3C2HCSC2H2C3H3CHC2H5CHC2H2CHCHC3H2CPFeC6HCSC2HCH2C2HCHSHSH2CH4CHSCPCFeHSC2
_chemical_formula_sum              "Fe384 S768 H4608 C5760 P192"
_cell_length_a       86.0699
_cell_length_b       86.2471
_cell_length_c       86.3846
_cell_angle_alpha    74.0842
_cell_angle_beta     74.0926
_cell_angle_gamma    74.0581

_space_group_name_H-M_alt    "P 1"
_space_group_IT_number       1

loop_
  _space_group_symop_operation_xyz
  'x, y, z'

loop_
  _atom_site_type_symbol
  _atom_site_label
  _atom_site_symmetry_multiplicity
  _atom_site_fract_x
  _atom_site_fract_y
  _atom_site_fract_z
  _atom_site_occupancy
  Fe  Fe1       1.0  0.38785  0.28281  0.08134  1.0000
  S   S1        1.0  0.39138  0.27766  0.05638  1.0000
  S   S2        1.0  0.37648  0.26747  0.10504  1.0000
  Fe  Fe2       1.0  0.40484  0.31152  0.06858  1.0000
  S   S3        1.0  0.41049  0.30870  0.04229  1.0000
  S   S4        1.0  0.40988  0.33276  0.07573  1.0000
  Fe  Fe3       1.0  0.38441  0.30514  0.04786  1.0000
  S   S5        1.0  0.36739  0.31967  0.03049  1.0000
  Fe  Fe4       1.0  0.41710  0.28141  0.05280  1.0000
  S   S6        1.0  0.43800  0.26282  0.04122  1.0000
  S   S7        1.0  0.37832  0.30997  0.07334  1.0000
  S   S8        1.0  0.41396  0.28468  0.07844  1.0000
  Fe  Fe5       1.0  0.45334  0.31719  0.14637  1.0000
  H   H1        1.0  0.47825  0.27769  0.06187  1.0000
  S   S9        1.0  0.42859  0.33249  0.14188  1.0000
  H   H2        1.0  0.00321  0.45377  0.16655  1.0000
  C   C1        1.0  0.30079  0.06445  0.16419  1.0000
  C   C2        1.0  0.11426  0.00084  0.99146  1.0000
  S   S10       1.0  0.46357  0.29253  0.13986  1.0000
  Fe  Fe6       1.0  0.42903  0.18432  0.13189  1.0000
  C   C3        1.0  0.49230  0.25477  0.12174  1.0000
  S   S11       1.0  0.41931  0.19486  0.10885  1.0000
  Fe  Fe7       1.0  0.46037  0.16589  0.14359  1.0000
  C   C4        1.0  0.22112  0.41624  0.05927  1.0000
  H   H3        1.0  0.46996  0.04832  0.10100  1.0000
  H   H4        1.0  0.42325  0.23424  0.04676  1.0000
  H   H5        1.0  0.48661  0.26687  0.11557  1.0000
  Fe  Fe8       1.0  0.43475  0.18968  0.16281  1.0000
  S   S12       1.0  0.44151  0.15759  0.13615  1.0000
  S   S13       1.0  0.44933  0.19286  0.13677  1.0000
  Fe  Fe9       1.0  0.15584  0.39528  0.02951  1.0000
  S   S14       1.0  0.15819  0.37041  0.02475  1.0000
  S   S15       1.0  0.16151  0.41842  0.01176  1.0000
  Fe  Fe10      1.0  0.14084  0.38593  0.06621  1.0000
  S   S16       1.0  0.14115  0.36015  0.06476  1.0000
  S   S17       1.0  0.12970  0.39802  0.08826  1.0000
  Fe  Fe11      1.0  0.16642  0.36090  0.04880  1.0000
  S   S18       1.0  0.18655  0.33824  0.05167  1.0000
  Fe  Fe12      1.0  0.13287  0.37141  0.04080  1.0000
  S   S19       1.0  0.11284  0.36423  0.03366  1.0000
  S   S20       1.0  0.16689  0.38569  0.05197  1.0000
  S   S21       1.0  0.12975  0.39721  0.04390  1.0000
  S   S22       1.0  0.12232  0.30303  0.00164  1.0000
  H   H6        1.0  0.47274  0.14738  0.11326  1.0000
  Fe  Fe13      1.0  0.27070  0.32941  0.00208  1.0000
  S   S23       1.0  0.27486  0.30287  0.01520  1.0000
  S   S24       1.0  0.25809  0.34941  0.01616  1.0000
  C   C5        1.0  0.49302  0.28096  0.00737  1.0000
  C   C6        1.0  0.20105  0.42309  0.01174  1.0000
  C   C7        1.0  0.20739  0.46757  0.02964  1.0000
  H   H7        1.0  0.02712  0.18743  0.98782  1.0000
  Fe  Fe14      1.0  0.30021  0.30084  0.99871  1.0000
  S   S25       1.0  0.32244  0.28526  0.00914  1.0000
  C   C8        1.0  0.23290  0.03290  0.12503  1.0000
  C   C9        1.0  0.12409  0.39368  0.99315  1.0000
  S   S26       1.0  0.14190  0.45429  0.18181  1.0000
  S   S27       1.0  0.17209  0.44799  0.14925  1.0000
  H   H8        1.0  0.05500  0.48338  0.14450  1.0000
  H   H9        1.0  0.44640  0.17510  0.06781  1.0000
  C   C10       1.0  0.01632  0.45297  0.16496  1.0000
  Fe  Fe15      1.0  0.16223  0.42626  0.14945  1.0000
  S   S28       1.0  0.17329  0.40883  0.13173  1.0000
  S   S29       1.0  0.13600  0.44043  0.15220  1.0000
  Fe  Fe16      1.0  0.36519  0.08608  0.15041  1.0000
  S   S30       1.0  0.33964  0.08443  0.15028  1.0000
  S   S31       1.0  0.37292  0.11078  0.14122  1.0000
  H   H10       1.0  0.25743  0.00096  0.10792  1.0000
  H   H11       1.0  0.41315  0.13089  0.10988  1.0000
  H   H12       1.0  0.36610  0.22176  0.17112  1.0000
  Fe  Fe17      1.0  0.35111  0.06034  0.14227  1.0000
  S   S32       1.0  0.34378  0.05348  0.12204  1.0000
  H   H13       1.0  0.11592  0.43040  0.00438  1.0000
  H   H14       1.0  0.41006  0.06955  0.15845  1.0000
  S   S33       1.0  0.37694  0.06365  0.13951  1.0000
  C   C11       1.0  0.48500  0.34991  0.07248  1.0000
  C   C12       1.0  0.21766  0.26695  0.98288  1.0000
  H   H15       1.0  0.48422  0.33157  0.09536  1.0000
  C   C13       1.0  0.32667  0.04455  0.12461  1.0000
  C   C14       1.0  0.31854  0.04888  0.11155  1.0000
  C   C15       1.0  0.30535  0.04181  0.11248  1.0000
  C   C16       1.0  0.47194  0.22782  0.09745  1.0000
  C   C17       1.0  0.30841  0.02542  0.13946  1.0000
  C   C18       1.0  0.32152  0.03280  0.13867  1.0000
  H   H16       1.0  0.32245  0.05783  0.10061  1.0000
  C   C19       1.0  0.20313  0.38654  0.00482  1.0000
  H   H17       1.0  0.49001  0.18697  0.11655  1.0000
  H   H18       1.0  0.32794  0.02916  0.14866  1.0000
  H   H19       1.0  0.45526  0.27705  0.00579  1.0000
  C   C20       1.0  0.30167  0.25914  0.10065  1.0000
  H   H20       1.0  0.02381  0.43298  0.15222  1.0000
  H   H21       1.0  0.46926  0.24127  0.03137  1.0000
  C   C21       1.0  0.19342  0.27739  0.07932  1.0000
  C   C22       1.0  0.45950  0.35860  0.06241  1.0000
  C   C23       1.0  0.48461  0.22615  0.08354  1.0000
  H   H22       1.0  0.16445  0.44180  0.04390  1.0000
  C   C24       1.0  0.46752  0.03259  0.12528  1.0000
  S   S34       1.0  0.16085  0.41639  0.17664  1.0000
  C   C25       1.0  0.38198  0.01625  0.14394  1.0000
  C   C26       1.0  0.30034  0.02987  0.12629  1.0000
  C   C27       1.0  0.14220  0.40082  0.10006  1.0000
  C   C28       1.0  0.13611  0.41346  0.10889  1.0000
  C   C29       1.0  0.14533  0.41577  0.11891  1.0000
  C   C30       1.0  0.16080  0.40548  0.12020  1.0000
  C   C31       1.0  0.16681  0.39265  0.11155  1.0000
  C   C32       1.0  0.15766  0.39044  0.10135  1.0000
  H   H23       1.0  0.12435  0.42175  0.10771  1.0000
  H   H24       1.0  0.14058  0.42576  0.12533  1.0000
  H   H25       1.0  0.17866  0.38448  0.11269  1.0000
  H   H26       1.0  0.16240  0.38053  0.09475  1.0000
  C   C33       1.0  0.11670  0.34721  0.02438  1.0000
  C   C34       1.0  0.13192  0.34158  0.01422  1.0000
  C   C35       1.0  0.13393  0.32816  0.00685  1.0000
  C   C36       1.0  0.12084  0.32014  0.00999  1.0000
  C   C37       1.0  0.10591  0.32559  0.02047  1.0000
  C   C38       1.0  0.10375  0.33920  0.02730  1.0000
  H   H27       1.0  0.14202  0.34768  0.01184  1.0000
  H   H28       1.0  0.14559  0.32397  0.99889  1.0000
  H   H29       1.0  0.09580  0.31945  0.02307  1.0000
  H   H30       1.0  0.09198  0.34342  0.03511  1.0000
  C   C39       1.0  0.20571  0.34255  0.04059  1.0000
  C   C40       1.0  0.21055  0.35646  0.04147  1.0000
  C   C41       1.0  0.22660  0.35881  0.03360  1.0000
  C   C42       1.0  0.23768  0.34727  0.02490  1.0000
  C   C43       1.0  0.23256  0.33371  0.02362  1.0000
  C   C44       1.0  0.21657  0.33142  0.03140  1.0000
  H   H31       1.0  0.20208  0.36515  0.04849  1.0000
  H   H32       1.0  0.23049  0.36942  0.03435  1.0000
  H   H33       1.0  0.24098  0.32482  0.01684  1.0000
  H   H34       1.0  0.21254  0.32103  0.03036  1.0000
  H   H35       1.0  0.48677  0.26132  0.14529  1.0000
  C   C45       1.0  0.44435  0.21650  0.05429  1.0000
  C   C46       1.0  0.10207  0.47919  0.12640  1.0000
  H   H36       1.0  0.44851  0.20404  0.09326  1.0000
  C   C47       1.0  0.39903  0.13779  0.15205  1.0000
  C   C48       1.0  0.38928  0.13250  0.14466  1.0000
  C   C49       1.0  0.38494  0.11707  0.15115  1.0000
  H   H37       1.0  0.15022  0.02326  0.18023  1.0000
  H   H38       1.0  0.14259  0.44195  0.08154  1.0000
  H   H39       1.0  0.40235  0.14967  0.14684  1.0000
  H   H40       1.0  0.38518  0.14035  0.13377  1.0000
  C   C50       1.0  0.24662  0.00804  0.11478  1.0000
  C   C51       1.0  0.22894  0.26704  0.99188  1.0000
  C   C52       1.0  0.17296  0.01319  0.16473  1.0000
  C   C53       1.0  0.45480  0.31025  0.05842  1.0000
  C   C54       1.0  0.15396  0.03862  0.15579  1.0000
  H   H41       1.0  0.45810  0.25559  0.15337  1.0000
  H   H42       1.0  0.44413  0.23422  0.15226  1.0000
  C   C55       1.0  0.48971  0.25862  0.04836  1.0000
  H   H43       1.0  0.47649  0.08033  0.12697  1.0000
  Fe  Fe18      1.0  0.13516  0.43192  0.17920  1.0000
  C   C56       1.0  0.35593  0.30975  0.02357  1.0000
  C   C57       1.0  0.34465  0.31936  0.01376  1.0000
  C   C58       1.0  0.33461  0.31200  0.00885  1.0000
  C   C59       1.0  0.33592  0.29491  0.01356  1.0000
  C   C60       1.0  0.34788  0.28522  0.02251  1.0000
  C   C61       1.0  0.35766  0.29260  0.02777  1.0000
  H   H44       1.0  0.34337  0.33262  0.01029  1.0000
  H   H45       1.0  0.32566  0.31958  0.00170  1.0000
  H   H46       1.0  0.34938  0.27198  0.02559  1.0000
  H   H47       1.0  0.36650  0.28502  0.03507  1.0000
  C   C62       1.0  0.41347  0.33153  0.09525  1.0000
  C   C63       1.0  0.42109  0.31679  0.10455  1.0000
  C   C64       1.0  0.42625  0.31701  0.11863  1.0000
  C   C65       1.0  0.42282  0.33173  0.12405  1.0000
  C   C66       1.0  0.41427  0.34621  0.11531  1.0000
  C   C67       1.0  0.40994  0.34618  0.10081  1.0000
  H   H48       1.0  0.42315  0.30531  0.10082  1.0000
  H   H49       1.0  0.43273  0.30580  0.12536  1.0000
  H   H50       1.0  0.41144  0.35762  0.11946  1.0000
  H   H51       1.0  0.40399  0.35762  0.09374  1.0000
  C   C68       1.0  0.38815  0.24719  0.10629  1.0000
  C   C69       1.0  0.38544  0.23518  0.12081  1.0000
  C   C70       1.0  0.39527  0.21911  0.12191  1.0000
  C   C71       1.0  0.40744  0.21497  0.10828  1.0000
  C   C72       1.0  0.41000  0.22694  0.09379  1.0000
  C   C73       1.0  0.40052  0.24304  0.09284  1.0000
  H   H52       1.0  0.37585  0.23836  0.13120  1.0000
  H   H53       1.0  0.39319  0.20983  0.13313  1.0000
  H   H54       1.0  0.41957  0.22382  0.08338  1.0000
  H   H55       1.0  0.40292  0.25221  0.08168  1.0000
  C   C74       1.0  0.45761  0.26026  0.04524  1.0000
  C   C75       1.0  0.46012  0.27029  0.05413  1.0000
  C   C76       1.0  0.47617  0.26956  0.05553  1.0000
  H   H56       1.0  0.44313  0.31045  0.05577  1.0000
  C   C77       1.0  0.06811  0.48188  0.13934  1.0000
  C   C78       1.0  0.47112  0.24883  0.03853  1.0000
  H   H57       1.0  0.44977  0.27901  0.05940  1.0000
  C   C79       1.0  0.48118  0.16021  0.06560  1.0000
  S   S35       1.0  0.28376  0.02125  0.12635  1.0000
  Fe  Fe19      1.0  0.48433  0.31753  0.15784  1.0000
  H   H58       1.0  0.41588  0.32628  0.17923  1.0000
  C   C80       1.0  0.43048  0.07472  0.16497  1.0000
  C   C81       1.0  0.27493  0.07663  0.14733  1.0000
  H   H59       1.0  0.16287  0.99607  0.99930  1.0000
  C   C82       1.0  0.48515  0.30798  0.06575  1.0000
  C   C83       1.0  0.20550  0.45635  0.05902  1.0000
  H   H60       1.0  0.12394  0.38082  0.99875  1.0000
  C   C84       1.0  0.23797  0.44128  0.09865  1.0000
  S   S36       1.0  0.47618  0.32685  0.13367  1.0000
  H   H61       1.0  0.02346  0.10371  0.99255  1.0000
  C   C85       1.0  0.23163  0.43551  0.11539  1.0000
  C   C86       1.0  0.09472  0.36409  0.98466  1.0000
  H   H62       1.0  0.32776  0.99672  0.15477  1.0000
  C   C87       1.0  0.36529  0.24791  0.16286  1.0000
  H   H63       1.0  0.47411  0.34901  0.03212  1.0000
  S   S37       1.0  0.44706  0.16287  0.17018  1.0000
  H   H64       1.0  0.38188  0.31584  0.10396  1.0000
  C   C88       1.0  0.03856  0.46255  0.16902  1.0000
  C   C89       1.0  0.20296  0.37078  0.00353  1.0000
  H   H65       1.0  0.29351  0.08426  0.12614  1.0000
  H   H66       1.0  0.26497  0.08122  0.14077  1.0000
  S   S38       1.0  0.34947  0.04464  0.16781  1.0000
  C   C90       1.0  0.17507  0.43686  0.03515  1.0000
  C   C91       1.0  0.40470  0.99436  0.13575  1.0000
  H   H67       1.0  0.19384  0.36429  0.01204  1.0000
  H   H68       1.0  0.18197  0.35781  0.99171  1.0000
  C   C92       1.0  0.49099  0.35893  0.01064  1.0000
  H   H69       1.0  0.47318  0.02129  0.12085  1.0000
  H   H70       1.0  0.48495  0.26343  0.99946  1.0000
  C   C93       1.0  0.47505  0.15097  0.09994  1.0000
  H   H71       1.0  0.41836  0.18372  0.06241  1.0000
  C   C94       1.0  0.17979  0.29982  0.00684  1.0000
  C   C95       1.0  0.18268  0.31553  0.00461  1.0000
  C   C96       1.0  0.17711  0.32370  0.01767  1.0000
  C   C97       1.0  0.16838  0.31632  0.03285  1.0000
  C   C98       1.0  0.16525  0.30062  0.03512  1.0000
  C   C99       1.0  0.17140  0.29224  0.02212  1.0000
  P   P1        1.0  0.15549  0.29044  0.05519  1.0000
  C   C100      1.0  0.17211  0.27848  0.06531  1.0000
  C   C101      1.0  0.14176  0.30544  0.06655  1.0000
  C   C102      1.0  0.14187  0.30435  0.08306  1.0000
  C   C103      1.0  0.13073  0.31586  0.09174  1.0000
  C   C104      1.0  0.11914  0.32823  0.08416  1.0000
  C   C105      1.0  0.11864  0.32904  0.06794  1.0000
  C   C106      1.0  0.12992  0.31774  0.05913  1.0000
  C   C107      1.0  0.18113  0.28655  0.07066  1.0000
  C   C108      1.0  0.19721  0.26015  0.08217  1.0000
  C   C109      1.0  0.18884  0.25208  0.07616  1.0000
  C   C110      1.0  0.17643  0.26120  0.06762  1.0000
  C   C111      1.0  0.14202  0.27815  0.05415  1.0000
  C   C112      1.0  0.13659  0.26646  0.06813  1.0000
  C   C113      1.0  0.13563  0.28116  0.04005  1.0000
  C   C114      1.0  0.20770  0.47129  0.06073  1.0000
  H   H72       1.0  0.20696  0.46622  0.01766  1.0000
  H   H73       1.0  0.17958  0.33573  0.01619  1.0000
  H   H74       1.0  0.16425  0.32285  0.04282  1.0000
  H   H75       1.0  0.16965  0.27990  0.02371  1.0000
  H   H76       1.0  0.15040  0.29464  0.08933  1.0000
  H   H77       1.0  0.13106  0.31523  0.10434  1.0000
  H   H78       1.0  0.11060  0.33726  0.09078  1.0000
  H   H79       1.0  0.10957  0.33856  0.06211  1.0000
  H   H80       1.0  0.12937  0.31851  0.04656  1.0000
  H   H81       1.0  0.20684  0.25307  0.08876  1.0000
  H   H82       1.0  0.19205  0.23874  0.07800  1.0000
  H   H83       1.0  0.17033  0.25475  0.06276  1.0000
  H   H84       1.0  0.14067  0.26457  0.07943  1.0000
  H   H85       1.0  0.13878  0.29078  0.02945  1.0000
  C   C115      1.0  0.17880  0.44600  0.01905  1.0000
  C   C116      1.0  0.48443  0.20593  0.03101  1.0000
  C   C117      1.0  0.21932  0.02583  0.13366  1.0000
  H   H86       1.0  0.17848  0.29995  0.06833  1.0000
  H   H87       1.0  0.19994  0.28370  0.08382  1.0000
  H   H88       1.0  0.20826  0.00113  0.10886  1.0000
  H   H89       1.0  0.15478  0.44787  0.98811  1.0000
  P   P2        1.0  0.40409  0.27139  0.14744  1.0000
  C   C118      1.0  0.15126  0.44605  0.08572  1.0000
  C   C119      1.0  0.45572  0.24588  0.16408  1.0000
  H   H90       1.0  0.25713  0.02943  0.10907  1.0000
  C   C120      1.0  0.37832  0.34987  0.17371  1.0000
  C   C121      1.0  0.37329  0.32247  0.12761  1.0000
  C   C122      1.0  0.18254  0.99313  0.01133  1.0000
  H   H91       1.0  0.30446  0.01636  0.15020  1.0000
  H   H92       1.0  0.41669  0.29750  0.15250  1.0000
  H   H93       1.0  0.39747  0.11581  0.10112  1.0000
  H   H94       1.0  0.18931  0.32128  0.99278  1.0000
  H   H95       1.0  0.20915  0.03268  0.14136  1.0000
  H   H96       1.0  0.40672  0.21323  0.05164  1.0000
  H   H97       1.0  0.45106  0.22590  0.05280  1.0000
  H   H98       1.0  0.35781  0.01080  0.15152  1.0000
  C   C123      1.0  0.45251  0.35986  0.15974  1.0000
  C   C124      1.0  0.42578  0.19282  0.05975  1.0000
  C   C125      1.0  0.45809  0.06235  0.11984  1.0000
  P   P3        1.0  0.20158  0.44016  0.07699  1.0000
  C   C126      1.0  0.48381  0.14349  0.07339  1.0000
  C   C127      1.0  0.21544  0.39468  0.99433  1.0000
  C   C128      1.0  0.35569  0.00042  0.11739  1.0000
  H   H99       1.0  0.47207  0.23542  0.10549  1.0000
  C   C129      1.0  0.28730  0.25303  0.10805  1.0000
  P   P4        1.0  0.20226  0.00015  0.14443  1.0000
  H   H100      1.0  0.38250  0.29794  0.16350  1.0000
  C   C130      1.0  0.09615  0.41481  0.13115  1.0000
  H   H101      1.0  0.08926  0.46899  0.16952  1.0000
  H   H102      1.0  0.27533  0.40432  0.02182  1.0000
  H   H103      1.0  0.20736  0.47308  0.07276  1.0000
  H   H104      1.0  0.36666  0.33471  0.12276  1.0000
  C   C131      1.0  0.26095  0.39290  0.01320  1.0000
  C   C132      1.0  0.44796  0.26999  0.11344  1.0000
  H   H105      1.0  0.20269  0.44361  0.04188  1.0000
  C   C133      1.0  0.41738  0.28736  0.16312  1.0000
  C   C134      1.0  0.00747  0.12716  0.98503  1.0000
  H   H106      1.0  0.41977  0.07023  0.12965  1.0000
  H   H107      1.0  0.44856  0.22192  0.11108  1.0000
  S   S39       1.0  0.41331  0.18319  0.15738  1.0000
  C   C135      1.0  0.46453  0.28247  0.00742  1.0000
  C   C136      1.0  0.46570  0.04781  0.11412  1.0000
  Fe  Fe20      1.0  0.14545  0.46129  0.15432  1.0000
  H   H108      1.0  0.45647  0.07403  0.11104  1.0000
  C   C137      1.0  0.27177  0.26351  0.10750  1.0000
  C   C138      1.0  0.16280  0.42155  0.99054  1.0000
  H   H109      1.0  0.13234  0.45898  0.10269  1.0000
  C   C139      1.0  0.45230  0.06177  0.13682  1.0000
  C   C140      1.0  0.20189  0.99131  0.11570  1.0000
  C   C141      1.0  0.45707  0.30405  0.07457  1.0000
  H   H110      1.0  0.24455  0.38465  0.00422  1.0000
  H   H111      1.0  0.44733  0.29946  0.08406  1.0000
  C   C142      1.0  0.23423  0.28148  0.99029  1.0000
  H   H112      1.0  0.11351  0.39200  0.13742  1.0000
  C   C143      1.0  0.46087  0.33880  0.08821  1.0000
  C   C144      1.0  0.45199  0.34828  0.07623  1.0000
  C   C145      1.0  0.48783  0.19640  0.04620  1.0000
  H   H113      1.0  0.39725  0.28810  0.11455  1.0000
  H   H114      1.0  0.45507  0.33066  0.09886  1.0000
  H   H115      1.0  0.43935  0.34746  0.07755  1.0000
  H   H116      1.0  0.26553  0.01469  0.16607  1.0000
  C   C146      1.0  0.19177  0.43918  0.00737  1.0000
  H   H117      1.0  0.48693  0.35731  0.10197  1.0000
  H   H118      1.0  0.11528  0.47836  0.12198  1.0000
  C   C147      1.0  0.47202  0.09012  0.13370  1.0000
  H   H119      1.0  0.26915  0.38079  0.01493  1.0000
  H   H120      1.0  0.38695  0.09523  0.17038  1.0000
  C   C148      1.0  0.39258  0.33736  0.17224  1.0000
  H   H121      1.0  0.48167  0.36715  0.04947  1.0000
  P   P5        1.0  0.07210  0.44967  0.15866  1.0000
  H   H122      1.0  0.44781  0.32954  0.99804  1.0000
  C   C149      1.0  0.08455  0.43092  0.15236  1.0000
  C   C150      1.0  0.08610  0.42903  0.13632  1.0000
  C   C151      1.0  0.10520  0.40268  0.14172  1.0000
  C   C152      1.0  0.15669  0.46065  0.10326  1.0000
  C   C153      1.0  0.23619  0.41075  0.00457  1.0000
  C   C154      1.0  0.09355  0.41860  0.16294  1.0000
  H   H123      1.0  0.41001  0.35581  0.04293  1.0000
  C   C155      1.0  0.21634  0.43095  0.12038  1.0000
  H   H124      1.0  0.32431  0.01019  0.09719  1.0000
  H   H125      1.0  0.25854  0.28821  0.09891  1.0000
  C   C156      1.0  0.46773  0.31541  0.04580  1.0000
  H   H126      1.0  0.23313  0.04509  0.12600  1.0000
  C   C157      1.0  0.48077  0.13887  0.09058  1.0000
  C   C158      1.0  0.11483  0.98824  0.00563  1.0000
  H   H127      1.0  0.16083  0.05115  0.13048  1.0000
  H   H128      1.0  0.07966  0.43860  0.12777  1.0000
  H   H129      1.0  0.18212  0.46017  0.10142  1.0000
  H   H130      1.0  0.42934  0.29907  0.17412  1.0000
  C   C159      1.0  0.20918  0.98794  0.16288  1.0000
  H   H131      1.0  0.03203  0.36563  0.18049  1.0000
  P   P6        1.0  0.21781  0.41395  0.99687  1.0000
  H   H132      1.0  0.10285  0.00988  0.99024  1.0000
  C   C160      1.0  0.37345  0.31735  0.14439  1.0000
  C   C161      1.0  0.35277  0.25030  0.05878  1.0000
  C   C162      1.0  0.36226  0.24091  0.07029  1.0000
  C   C163      1.0  0.35857  0.24446  0.08588  1.0000
  C   C164      1.0  0.34562  0.25759  0.08989  1.0000
  C   C165      1.0  0.33629  0.26739  0.07824  1.0000
  C   C166      1.0  0.33974  0.26341  0.06278  1.0000
  P   P7        1.0  0.31909  0.28393  0.08366  1.0000
  C   C167      1.0  0.30059  0.27579  0.09258  1.0000
  C   C168      1.0  0.32329  0.29274  0.09842  1.0000
  C   C169      1.0  0.31060  0.29796  0.11132  1.0000
  C   C170      1.0  0.31404  0.30459  0.12278  1.0000
  C   C171      1.0  0.33015  0.30605  0.12145  1.0000
  C   C172      1.0  0.34279  0.30104  0.10858  1.0000
  C   C173      1.0  0.33937  0.29454  0.09703  1.0000
  C   C174      1.0  0.28492  0.28623  0.09200  1.0000
  C   C175      1.0  0.31578  0.29998  0.06560  1.0000
  C   C176      1.0  0.30700  0.29812  0.05494  1.0000
  C   C177      1.0  0.30328  0.31096  0.04167  1.0000
  C   C178      1.0  0.30830  0.32574  0.03890  1.0000
  C   C179      1.0  0.31756  0.32748  0.04907  1.0000
  C   C180      1.0  0.32134  0.31466  0.06235  1.0000
  H   H133      1.0  0.35561  0.24750  0.04670  1.0000
  H   H134      1.0  0.37251  0.23091  0.06715  1.0000
  H   H135      1.0  0.36590  0.23713  0.09483  1.0000
  H   H136      1.0  0.34309  0.26010  0.10206  1.0000
  H   H137      1.0  0.33253  0.27048  0.05372  1.0000
  H   H138      1.0  0.29805  0.29691  0.11262  1.0000
  H   H139      1.0  0.30423  0.30853  0.13274  1.0000
  C   C181      1.0  0.39887  0.01043  0.13832  1.0000
  H   H140      1.0  0.35535  0.30191  0.10764  1.0000
  H   H141      1.0  0.34937  0.29071  0.08713  1.0000
  H   H142      1.0  0.28377  0.29918  0.08602  1.0000
  H   H143      1.0  0.31357  0.25086  0.10141  1.0000
  H   H144      1.0  0.30312  0.28672  0.05676  1.0000
  H   H145      1.0  0.29692  0.30931  0.03321  1.0000
  H   H146      1.0  0.30571  0.33551  0.02837  1.0000
  H   H147      1.0  0.32227  0.33858  0.04635  1.0000
  H   H148      1.0  0.32872  0.31626  0.06986  1.0000
  C   C182      1.0  0.24763  0.23282  0.10056  1.0000
  C   C183      1.0  0.23627  0.23945  0.11335  1.0000
  C   C184      1.0  0.22902  0.25630  0.11066  1.0000
  C   C185      1.0  0.23316  0.26655  0.09519  1.0000
  C   C186      1.0  0.24459  0.26000  0.08224  1.0000
  C   C187      1.0  0.25170  0.24301  0.08505  1.0000
  P   P8        1.0  0.24904  0.27277  0.06178  1.0000
  C   C188      1.0  0.23484  0.27150  0.05037  1.0000
  C   C189      1.0  0.24679  0.29402  0.06287  1.0000
  C   C190      1.0  0.23097  0.30390  0.06713  1.0000
  C   C191      1.0  0.22911  0.32026  0.06803  1.0000
  C   C192      1.0  0.24297  0.32713  0.06412  1.0000
  C   C193      1.0  0.25873  0.31758  0.05949  1.0000
  C   C194      1.0  0.26067  0.30108  0.05894  1.0000
  C   C195      1.0  0.22798  0.28553  0.03963  1.0000
  C   C196      1.0  0.21663  0.28466  0.03116  1.0000
  C   C197      1.0  0.21263  0.26959  0.03276  1.0000
  C   C198      1.0  0.21994  0.25539  0.04288  1.0000
  C   C199      1.0  0.23095  0.25632  0.05173  1.0000
  C   C200      1.0  0.27007  0.26485  0.05188  1.0000
  C   C201      1.0  0.28284  0.26047  0.06052  1.0000
  C   C202      1.0  0.29927  0.25531  0.05259  1.0000
  C   C203      1.0  0.30305  0.25456  0.03598  1.0000
  C   C204      1.0  0.29038  0.25867  0.02739  1.0000
  C   C205      1.0  0.27394  0.26368  0.03532  1.0000
  H   H149      1.0  0.25321  0.21972  0.10261  1.0000
  H   H150      1.0  0.23306  0.23151  0.12534  1.0000
  H   H151      1.0  0.22016  0.26144  0.12057  1.0000
  H   H152      1.0  0.22735  0.27951  0.09348  1.0000
  H   H153      1.0  0.26030  0.23756  0.07520  1.0000
  H   H154      1.0  0.22000  0.29918  0.06929  1.0000
  H   H155      1.0  0.21682  0.32786  0.07102  1.0000
  H   H156      1.0  0.24145  0.34005  0.06404  1.0000
  H   H157      1.0  0.26937  0.32319  0.05580  1.0000
  H   H158      1.0  0.27297  0.29415  0.05488  1.0000
  H   H159      1.0  0.23179  0.29703  0.03734  1.0000
  H   H160      1.0  0.21158  0.29549  0.02268  1.0000
  H   H161      1.0  0.20435  0.26887  0.02566  1.0000
  H   H162      1.0  0.21718  0.24364  0.04370  1.0000
  H   H163      1.0  0.23656  0.24517  0.05938  1.0000
  H   H164      1.0  0.28015  0.26139  0.07325  1.0000
  H   H165      1.0  0.30914  0.25225  0.05917  1.0000
  H   H166      1.0  0.31582  0.25120  0.02960  1.0000
  H   H167      1.0  0.29335  0.25846  0.01439  1.0000
  H   H168      1.0  0.26439  0.26715  0.02831  1.0000
  H   H169      1.0  0.18032  0.00619  0.01101  1.0000
  H   H170      1.0  0.99719  0.12482  0.99525  1.0000
  C   C206      1.0  0.48125  0.27474  0.00395  1.0000
  H   H171      1.0  0.45493  0.36006  0.14671  1.0000
  C   C207      1.0  0.48074  0.34799  0.01974  1.0000
  C   C208      1.0  0.21005  0.48414  0.04692  1.0000
  C   C209      1.0  0.04486  0.44026  0.15474  1.0000
  C   C210      1.0  0.45878  0.20994  0.09061  1.0000
  C   C211      1.0  0.43437  0.34164  0.03475  1.0000
  C   C212      1.0  0.07434  0.45038  0.17860  1.0000
  C   C213      1.0  0.05032  0.45102  0.16065  1.0000
  Fe  Fe21      1.0  0.42714  0.15675  0.16210  1.0000
  H   H172      1.0  0.18410  0.29348  0.99671  1.0000
  H   H173      1.0  0.11991  0.27440  0.02861  1.0000
  H   H174      1.0  0.34930  0.01950  0.09669  1.0000
  H   H175      1.0  0.23427  0.25563  0.99945  1.0000
  C   C214      1.0  0.41837  0.35023  0.03305  1.0000
  C   C215      1.0  0.11901  0.40507  0.00327  1.0000
  H   H176      1.0  0.05355  0.43097  0.14862  1.0000
  C   C216      1.0  0.39077  0.29613  0.12304  1.0000
  C   C217      1.0  0.39047  0.22689  0.16381  1.0000
  C   C218      1.0  0.12471  0.27200  0.03961  1.0000
  H   H177      1.0  0.11129  0.39544  0.16565  1.0000
  C   C219      1.0  0.47245  0.16772  0.09220  1.0000
  C   C220      1.0  0.16825  0.44119  0.07964  1.0000
  C   C221      1.0  0.47143  0.30342  0.01667  1.0000
  H   H178      1.0  0.12153  0.24828  0.07844  1.0000
  C   C222      1.0  0.11979  0.26001  0.05336  1.0000
  C   C223      1.0  0.23311  0.00092  0.12345  1.0000
  H   H179      1.0  0.23409  0.44696  0.07400  1.0000
  C   C224      1.0  0.48477  0.21581  0.07353  1.0000
  H   H180      1.0  0.19561  0.42853  0.11275  1.0000
  C   C225      1.0  0.48717  0.24787  0.04023  1.0000
  C   C226      1.0  0.09616  0.46557  0.13691  1.0000
  P   P9        1.0  0.46549  0.32197  0.02467  1.0000
  H   H181      1.0  0.18671  0.03049  0.12439  1.0000
  H   H182      1.0  0.36675  0.32558  0.15264  1.0000
  H   H183      1.0  0.48560  0.12048  0.14103  1.0000
  C   C227      1.0  0.45426  0.04641  0.14796  1.0000
  H   H184      1.0  0.20493  0.40201  0.03182  1.0000
  H   H185      1.0  0.45896  0.27479  0.11097  1.0000
  C   C228      1.0  0.19855  0.40789  0.08105  1.0000
  Fe  Fe22      1.0  0.37440  0.04943  0.16577  1.0000
  H   H186      1.0  0.31616  0.07377  0.14107  1.0000
  C   C229      1.0  0.46181  0.03190  0.14219  1.0000
  C   C230      1.0  0.49252  0.25174  0.13840  1.0000
  C   C231      1.0  0.39980  0.23904  0.15750  1.0000
  Fe  Fe23      1.0  0.26645  0.29853  0.99456  1.0000
  H   H187      1.0  0.20619  0.00908  0.17319  1.0000
  C   C232      1.0  0.44176  0.18798  0.06279  1.0000
  C   C233      1.0  0.38247  0.30171  0.15048  1.0000
  C   C234      1.0  0.47543  0.18822  0.16959  1.0000
  H   H188      1.0  0.23858  0.43444  0.12451  1.0000
  H   H189      1.0  0.48558  0.32603  0.99075  1.0000
  C   C235      1.0  0.46118  0.11560  0.15094  1.0000
  C   C236      1.0  0.22554  0.40060  0.05551  1.0000
  H   H190      1.0  0.39668  0.21405  0.16671  1.0000
  C   C237      1.0  0.47738  0.33941  0.08623  1.0000
  H   H191      1.0  0.45479  0.26154  0.09071  1.0000
  C   C238      1.0  0.20722  0.42016  0.07173  1.0000
  C   C239      1.0  0.37089  0.00599  0.14728  1.0000
  C   C240      1.0  0.47896  0.33579  0.01285  1.0000
  C   C241      1.0  0.44495  0.33354  0.02246  1.0000
  S   S40       1.0  0.48752  0.15412  0.13738  1.0000
  H   H192      1.0  0.26069  0.25877  0.11342  1.0000
  H   H193      1.0  0.47395  0.29810  0.09078  1.0000
  S   S41       1.0  0.29662  0.32787  0.98706  1.0000
  C   C242      1.0  0.39153  0.29113  0.13976  1.0000
  C   C243      1.0  0.37458  0.26015  0.15681  1.0000
  H   H194      1.0  0.14258  0.04767  0.15840  1.0000
  H   H195      1.0  0.28823  0.24018  0.11434  1.0000
  C   C244      1.0  0.45124  0.19980  0.05993  1.0000
  C   C245      1.0  0.40423  0.12784  0.16627  1.0000
  Fe  Fe24      1.0  0.27944  0.99618  0.14150  1.0000
  C   C246      1.0  0.12564  0.25731  0.06766  1.0000
  H   H196      1.0  0.36632  0.00500  0.11699  1.0000
  H   H197      1.0  0.42994  0.24991  0.09679  1.0000
  C   C247      1.0  0.21336  0.43854  0.09192  1.0000
  C   C248      1.0  0.30378  0.07249  0.14758  1.0000
  C   C249      1.0  0.21489  0.36313  0.99173  1.0000
  C   C250      1.0  0.44566  0.26247  0.10210  1.0000
  C   C251      1.0  0.47217  0.30303  0.07828  1.0000
  H   H198      1.0  0.43821  0.34111  0.04584  1.0000
  Fe  Fe25      1.0  0.33953  0.06888  0.17568  1.0000
  C   C252      1.0  0.02792  0.44129  0.15686  1.0000
  C   C253      1.0  0.45578  0.09287  0.14312  1.0000
  H   H199      1.0  0.44647  0.30166  0.01764  1.0000
  C   C254      1.0  0.21921  0.00988  0.13265  1.0000
  H   H200      1.0  0.17247  0.43354  0.07067  1.0000
  C   C255      1.0  0.41861  0.08344  0.12531  1.0000
  H   H201      1.0  0.19590  0.38300  0.08427  1.0000
  H   H202      1.0  0.48932  0.38467  0.06769  1.0000
  C   C256      1.0  0.20733  0.43231  0.10868  1.0000
  C   C257      1.0  0.21007  0.99580  0.17477  1.0000
  C   C258      1.0  0.48717  0.33499  0.99653  1.0000
  C   C259      1.0  0.19777  0.41434  0.02815  1.0000
  C   C260      1.0  0.41498  0.11758  0.11388  1.0000
  H   H203      1.0  0.11123  0.25303  0.05297  1.0000
  C   C261      1.0  0.45957  0.29654  0.01411  1.0000
  C   C262      1.0  0.41293  0.35108  0.01897  1.0000
  C   C263      1.0  0.42364  0.34371  0.00634  1.0000
  C   C264      1.0  0.43967  0.33517  0.00796  1.0000
  H   H204      1.0  0.40034  0.35726  0.01794  1.0000
  H   H205      1.0  0.45253  0.36586  0.05315  1.0000
  C   C265      1.0  0.47567  0.17247  0.07493  1.0000
  Fe  Fe26      1.0  0.16789  0.43959  0.17693  1.0000
  C   C266      1.0  0.18352  0.01530  0.14907  1.0000
  H   H206      1.0  0.23140  0.43603  0.00697  1.0000
  H   H207      1.0  0.48330  0.16362  0.05228  1.0000
  C   C267      1.0  0.48908  0.19303  0.15808  1.0000
  P   P10       1.0  0.44150  0.08054  0.14395  1.0000
  H   H208      1.0  0.18168  0.41392  0.05216  1.0000
  C   C268      1.0  0.40620  0.10909  0.10888  1.0000
  H   H209      1.0  0.25633  0.43192  0.01788  1.0000
  H   H210      1.0  0.01269  0.47264  0.17738  1.0000
  C   C269      1.0  0.42850  0.22127  0.05096  1.0000
  C   C270      1.0  0.44780  0.23370  0.16344  1.0000
  H   H211      1.0  0.21141  0.42631  0.13332  1.0000
  C   C271      1.0  0.47598  0.35936  0.06046  1.0000
  C   C272      1.0  0.42545  0.10907  0.12475  1.0000
  H   H212      1.0  0.41317  0.23536  0.15550  1.0000
  H   H213      1.0  0.43170  0.11608  0.12874  1.0000
  C   C273      1.0  0.47732  0.11278  0.14158  1.0000
  H   H214      1.0  0.40080  0.08556  0.11111  1.0000
  C   C274      1.0  0.41918  0.20945  0.05376  1.0000
  C   C275      1.0  0.40802  0.09203  0.11459  1.0000
  H   H215      1.0  0.28419  0.02914  0.17054  1.0000
  H   H216      1.0  0.17175  0.39602  0.98890  1.0000
  C   C276      1.0  0.48274  0.10006  0.13295  1.0000
  C   C277      1.0  0.42738  0.09190  0.13055  1.0000
  C   C278      1.0  0.17963  0.44594  0.08537  1.0000
  S   S42       1.0  0.46970  0.26050  0.18098  1.0000
  P   P11       1.0  0.47161  0.19397  0.06449  1.0000
  C   C279      1.0  0.29094  0.07842  0.13911  1.0000
  C   C280      1.0  0.27058  0.28008  0.09940  1.0000
  H   H217      1.0  0.29921  0.04543  0.10227  1.0000
  H   H218      1.0  0.19371  0.39216  0.01401  1.0000
  C   C281      1.0  0.43161  0.25598  0.10548  1.0000
  C   C282      1.0  0.14548  0.45565  0.09764  1.0000
  S   S43       1.0  0.25020  0.28006  0.00027  1.0000
  H   H219      1.0  0.42664  0.00738  0.16684  1.0000
  C   C283      1.0  0.47196  0.20733  0.07720  1.0000
  H   H220      1.0  0.37755  0.02865  0.14599  1.0000
  C   C284      1.0  0.20292  0.39230  0.07723  1.0000
  C   C285      1.0  0.10393  0.40461  0.15759  1.0000
  H   H221      1.0  0.49230  0.36834  0.01602  1.0000
  H   H222      1.0  0.09244  0.33912  0.98758  1.0000
  C   C286      1.0  0.22892  0.44270  0.08692  1.0000
  H   H223      1.0  0.39451  0.32909  0.16410  1.0000
  C   C287      1.0  0.37324  0.23128  0.16645  1.0000
  H   H224      1.0  0.47186  0.21169  0.02975  1.0000
  H   H225      1.0  0.21506  0.35069  0.99117  1.0000
  C   C288      1.0  0.39026  0.10707  0.16529  1.0000
  H   H226      1.0  0.43788  0.27753  0.13640  1.0000
  Fe  Fe27      1.0  0.47208  0.28525  0.16359  1.0000
  C   C289      1.0  0.43587  0.27168  0.12782  1.0000
  C   C290      1.0  0.27189  0.06853  0.16391  1.0000
  H   H227      1.0  0.40821  0.25357  0.12172  1.0000
  C   C291      1.0  0.41935  0.25797  0.11968  1.0000
  C   C292      1.0  0.39193  0.25578  0.15418  1.0000
  C   C293      1.0  0.45881  0.22004  0.10074  1.0000
  C   C294      1.0  0.38183  0.31181  0.11700  1.0000
  H   H228      1.0  0.33291  0.31100  0.13041  1.0000
  C   C295      1.0  0.42118  0.26623  0.13075  1.0000
  C   C296      1.0  0.41181  0.27314  0.16424  1.0000
  Fe  Fe28      1.0  0.48721  0.30139  0.12939  1.0000
  C   C297      1.0  0.18470  0.42112  0.03976  1.0000
  C   C298      1.0  0.17893  0.02892  0.13667  1.0000
  H   H229      1.0  0.24992  0.44461  0.09479  1.0000
  C   C299      1.0  0.34612  0.00868  0.10565  1.0000
  C   C300      1.0  0.16425  0.04060  0.14007  1.0000
  C   C301      1.0  0.41566  0.06940  0.16828  1.0000
  H   H230      1.0  0.17112  0.45803  0.01540  1.0000
  C   C302      1.0  0.48302  0.31393  0.04954  1.0000
  H   H231      1.0  0.40742  0.01829  0.13636  1.0000
  C   C303      1.0  0.21636  0.38867  0.06443  1.0000
  H   H232      1.0  0.45691  0.12549  0.15762  1.0000
  H   H233      1.0  0.36903  0.35119  0.16687  1.0000
  H   H234      1.0  0.17204  0.47129  0.17060  1.0000
  C   C304      1.0  0.15828  0.02489  0.16809  1.0000
  C   C305      1.0  0.24648  0.02406  0.11550  1.0000
  C   C306      1.0  0.33204  0.00345  0.10593  1.0000
  H   H235      1.0  0.21975  0.37655  0.06157  1.0000
  H   H236      1.0  0.19845  0.48036  0.16328  1.0000
  H   H237      1.0  0.11495  0.40093  0.01643  1.0000
  H   H238      1.0  0.10494  0.45425  0.14037  1.0000
  H   H239      1.0  0.43105  0.34981  0.16533  1.0000
  H   H240      1.0  0.36820  0.27293  0.15408  1.0000
  C   C307      1.0  0.20996  0.48227  0.03138  1.0000
  C   C308      1.0  0.26437  0.40614  0.01710  1.0000
  H   H241      1.0  0.41782  0.98972  0.13169  1.0000
  C   C309      1.0  0.17369  0.45601  0.09700  1.0000
  C   C310      1.0  0.11933  0.42168  0.99644  1.0000
  H   H242      1.0  0.41938  0.34434  0.99544  1.0000
  H   H243      1.0  0.15400  0.37369  0.98985  1.0000
  C   C311      1.0  0.17252  0.48229  0.17402  1.0000
  S   S44       1.0  0.46021  0.30974  0.17115  1.0000
  H   H244      1.0  0.19408  0.44634  0.99490  1.0000
  H   H245      1.0  0.43785  0.10832  0.15874  1.0000
  H   H246      1.0  0.22854  0.42523  0.05244  1.0000
  H   H247      1.0  0.15220  0.46801  0.11260  1.0000
  H   H248      1.0  0.09741  0.41336  0.11874  1.0000
  C   C312      1.0  0.45041  0.10579  0.15161  1.0000
  H   H249      1.0  0.46558  0.18623  0.16541  1.0000
  H   H250      1.0  0.08234  0.36791  0.99164  1.0000
  C   C313      1.0  0.20506  0.45471  0.04342  1.0000
  H   H251      1.0  0.48807  0.13410  0.06613  1.0000
  C   C314      1.0  0.02164  0.46359  0.17105  1.0000
  C   C315      1.0  0.23960  0.42396  0.00867  1.0000
  H   H252      1.0  0.18842  0.41040  0.09131  1.0000
  C   C316      1.0  0.24692  0.39517  0.00700  1.0000
  C   C317      1.0  0.43894  0.35395  0.17043  1.0000
  H   H253      1.0  0.35195  0.25131  0.16464  1.0000
  H   H254      1.0  0.17595  0.00248  0.17432  1.0000
  H   H255      1.0  0.10386  0.98754  0.01541  1.0000
  H   H256      1.0  0.46799  0.17678  0.09980  1.0000
  C   C318      1.0  0.25367  0.42166  0.01488  1.0000
  H   H257      1.0  0.48274  0.12595  0.09671  1.0000
  C   C319      1.0  0.48813  0.29520  0.01378  1.0000
  C   C320      1.0  0.46308  0.36520  0.16589  1.0000
  C   C321      1.0  0.42446  0.28838  0.17545  1.0000
  H   H258      1.0  0.23607  0.39767  0.04570  1.0000
  C   C322      1.0  0.07913  0.46679  0.14346  1.0000
  H   H259      1.0  0.47381  0.36944  0.15766  1.0000
  H   H260      1.0  0.46295  0.02008  0.15085  1.0000
  H   H261      1.0  0.04250  0.47075  0.17398  1.0000
  H   H262      1.0  0.44971  0.04548  0.16110  1.0000
  H   H263      1.0  0.48967  0.19440  0.14509  1.0000
  H   H264      1.0  0.23363  0.98828  0.12335  1.0000
  H   H265      1.0  0.09297  0.41992  0.17516  1.0000
  C   C323      1.0  0.08310  0.46121  0.18019  1.0000
  C   C324      1.0  0.39978  0.11247  0.17287  1.0000
  H   H266      1.0  0.11667  0.48306  0.17315  1.0000
  C   C325      1.0  0.37661  0.98988  0.14457  1.0000
  H   H267      1.0  0.25945  0.06700  0.17003  1.0000
  C   C326      1.0  0.41285  0.26026  0.17824  1.0000
  C   C327      1.0  0.28491  0.06187  0.17233  1.0000
  H   H268      1.0  0.31096  0.05998  0.17047  1.0000
  C   C328      1.0  0.41639  0.00121  0.17163  1.0000
  S   S45       1.0  0.41624  0.13433  0.17603  1.0000
  S   S46       1.0  0.39752  0.03199  0.17261  1.0000
  C   C329      1.0  0.46017  0.24556  0.17869  1.0000
  C   C330      1.0  0.44380  0.22150  0.17758  1.0000
  H   H269      1.0  0.40890  0.24903  0.17949  1.0000
  S   S47       1.0  0.43081  0.20807  0.17891  1.0000
  C   C331      1.0  0.32760  0.98989  0.11788  1.0000
  S   S48       1.0  0.25404  0.99139  0.15475  1.0000
  C   C332      1.0  0.40028  0.01042  0.17570  1.0000
  C   C333      1.0  0.26169  0.02079  0.17632  1.0000
  H   H270      1.0  0.31000  0.03003  0.17481  1.0000
  C   C334      1.0  0.43750  0.07379  0.17819  1.0000
  H   H271      1.0  0.44919  0.07727  0.17603  1.0000
  S   S49       1.0  0.36424  0.07210  0.17640  1.0000
  H   H272      1.0  0.21457  0.25545  0.98342  1.0000
  S   S50       1.0  0.26021  0.32536  0.98281  1.0000
  C   C335      1.0  0.33104  0.98901  0.16599  1.0000
  C   C336      1.0  0.19771  0.98784  0.13301  1.0000
  C   C337      1.0  0.40474  0.33582  0.18081  1.0000
  C   C338      1.0  0.27235  0.02892  0.17899  1.0000
  H   H273      1.0  0.35379  0.11100  0.17957  1.0000
  C   C339      1.0  0.31914  0.98921  0.18068  1.0000
  S   S51       1.0  0.13741  0.48692  0.13982  1.0000
  H   H274      1.0  0.30686  0.99687  0.18065  1.0000
  C   C340      1.0  0.02227  0.11528  0.98352  1.0000
  H   H275      1.0  0.33609  0.01260  0.18199  1.0000
  C   C341      1.0  0.38706  0.00232  0.18196  1.0000
  C   C342      1.0  0.17263  0.98732  0.00473  1.0000
  H   H276      1.0  0.03512  0.46443  0.36580  1.0000
  H   H277      1.0  0.03434  0.07405  0.22581  1.0000
  C   C343      1.0  0.08509  0.36483  0.23257  1.0000
  S   S52       1.0  0.28987  0.06318  0.36521  1.0000
  H   H278      1.0  0.01015  0.36732  0.29848  1.0000
  C   C344      1.0  0.03413  0.25700  0.33582  1.0000
  Fe  Fe29      1.0  0.06498  0.40186  0.27667  1.0000
  S   S53       1.0  0.09053  0.40214  0.27819  1.0000
  S   S54       1.0  0.05010  0.42140  0.25979  1.0000
  Fe  Fe30      1.0  0.06479  0.36810  0.29994  1.0000
  S   S55       1.0  0.09041  0.36551  0.30354  1.0000
  S   S56       1.0  0.04939  0.34853  0.31192  1.0000
  Fe  Fe31      1.0  0.08246  0.39236  0.30512  1.0000
  S   S57       1.0  0.08928  0.40149  0.32411  1.0000
  Fe  Fe32      1.0  0.09649  0.37565  0.27627  1.0000
  S   S58       1.0  0.11923  0.36717  0.25793  1.0000
  S   S59       1.0  0.05609  0.39414  0.30404  1.0000
  S   S60       1.0  0.07166  0.37611  0.27258  1.0000
  H   H279      1.0  0.44492  0.35767  0.20659  1.0000
  H   H280      1.0  0.09811  0.48284  0.21488  1.0000
  H   H281      1.0  0.04718  0.48024  0.23488  1.0000
  C   C345      1.0  0.34846  0.10600  0.19231  1.0000
  C   C346      1.0  0.01379  0.47691  0.26932  1.0000
  S   S61       1.0  0.17446  0.47145  0.29003  1.0000
  S   S62       1.0  0.13808  0.44918  0.31385  1.0000
  C   C347      1.0  0.37619  0.36083  0.18379  1.0000
  Fe  Fe33      1.0  0.14701  0.47225  0.29773  1.0000
  C   C348      1.0  0.01749  0.16905  0.28646  1.0000
  Fe  Fe34      1.0  0.00112  0.27280  0.30828  1.0000
  S   S63       1.0  0.02968  0.17802  0.34877  1.0000
  C   C349      1.0  0.01306  0.40739  0.21516  1.0000
  C   C350      1.0  0.10084  0.15107  0.38179  1.0000
  Fe  Fe35      1.0  0.05415  0.17647  0.35421  1.0000
  S   S64       1.0  0.07702  0.18170  0.33552  1.0000
  C   C351      1.0  0.26750  0.03730  0.19195  1.0000
  Fe  Fe36      1.0  0.01566  0.29433  0.27654  1.0000
  S   S65       1.0  0.02643  0.27806  0.29760  1.0000
  S   S66       1.0  0.02475  0.31818  0.26579  1.0000
  C   C352      1.0  0.10745  0.48612  0.21882  1.0000
  S   S67       1.0  0.00681  0.25034  0.29756  1.0000
  C   C353      1.0  0.01580  0.42226  0.29441  1.0000
  C   C354      1.0  0.06795  0.45298  0.31392  1.0000
  Fe  Fe37      1.0  0.03097  0.25764  0.28452  1.0000
  S   S68       1.0  0.05598  0.24099  0.27853  1.0000
  C   C355      1.0  0.39815  0.37373  0.24316  1.0000
  S   S69       1.0  0.02171  0.27422  0.26251  1.0000
  Fe  Fe38      1.0  0.30289  0.02230  0.27772  1.0000
  S   S70       1.0  0.27598  0.03471  0.28102  1.0000
  S   S71       1.0  0.32392  0.03520  0.26612  1.0000
  H   H282      1.0  0.10397  0.19334  0.35612  1.0000
  C   C356      1.0  0.31169  0.02804  0.18718  1.0000
  Fe  Fe39      1.0  0.27328  0.01335  0.27223  1.0000
  S   S72       1.0  0.25694  0.01740  0.25395  1.0000
  Fe  Fe40      1.0  0.27395  0.01819  0.30638  1.0000
  S   S73       1.0  0.25884  0.02658  0.32998  1.0000
  H   H283      1.0  0.04101  0.26665  0.38222  1.0000
  H   H284      1.0  0.12805  0.45082  0.35046  1.0000
  C   C357      1.0  0.01454  0.37082  0.28526  1.0000
  C   C358      1.0  0.03356  0.35158  0.22679  1.0000
  C   C359      1.0  0.00189  0.47585  0.31918  1.0000
  H   H285      1.0  0.03562  0.47958  0.33676  1.0000
  H   H286      1.0  0.34358  0.17605  0.37644  1.0000
  H   H287      1.0  0.08943  0.16289  0.30337  1.0000
  C   C360      1.0  0.00809  0.36599  0.27458  1.0000
  H   H288      1.0  0.99888  0.14077  0.23910  1.0000
  H   H289      1.0  0.00743  0.08297  0.24395  1.0000
  C   C361      1.0  0.31857  0.06372  0.21443  1.0000
  C   C362      1.0  0.33389  0.05398  0.21715  1.0000
  C   C363      1.0  0.33556  0.04548  0.23317  1.0000
  C   C364      1.0  0.32186  0.04642  0.24634  1.0000
  C   C365      1.0  0.30655  0.05616  0.24361  1.0000
  C   C366      1.0  0.30499  0.06502  0.22770  1.0000
  H   H290      1.0  0.34436  0.05280  0.20691  1.0000
  H   H291      1.0  0.34729  0.03768  0.23533  1.0000
  H   H292      1.0  0.29596  0.05698  0.25379  1.0000
  H   H293      1.0  0.29320  0.07263  0.22562  1.0000
  C   C367      1.0  0.01480  0.48169  0.28325  1.0000
  C   C368      1.0  0.40793  0.06347  0.18450  1.0000
  P   P12       1.0  0.03656  0.38215  0.22934  1.0000
  C   C369      1.0  0.05168  0.46981  0.24401  1.0000
  C   C370      1.0  0.42581  0.27534  0.18911  1.0000
  C   C371      1.0  0.07144  0.19889  0.32018  1.0000
  C   C372      1.0  0.08276  0.20234  0.30530  1.0000
  C   C373      1.0  0.07797  0.21545  0.29260  1.0000
  C   C374      1.0  0.06201  0.22540  0.29494  1.0000
  C   C375      1.0  0.05099  0.22249  0.31010  1.0000
  C   C376      1.0  0.05561  0.20903  0.32264  1.0000
  H   H294      1.0  0.09501  0.19452  0.30339  1.0000
  H   H295      1.0  0.08652  0.21772  0.28086  1.0000
  H   H296      1.0  0.03867  0.23022  0.31189  1.0000
  H   H297      1.0  0.04685  0.20629  0.33410  1.0000
  C   C377      1.0  0.27117  0.06336  0.20739  1.0000
  H   H298      1.0  0.09427  0.24501  0.30876  1.0000
  H   H299      1.0  0.00503  0.18328  0.26666  1.0000
  H   H300      1.0  0.01351  0.21769  0.33031  1.0000
  H   H301      1.0  0.21765  0.99265  0.19751  1.0000
  H   H302      1.0  0.03344  0.23131  0.34137  1.0000
  C   C378      1.0  0.34062  0.22749  0.36883  1.0000
  H   H303      1.0  0.09398  0.21065  0.33159  1.0000
  C   C379      1.0  0.02078  0.43615  0.29505  1.0000
  C   C380      1.0  0.07858  0.28513  0.33912  1.0000
  H   H304      1.0  0.03485  0.38531  0.19512  1.0000
  C   C381      1.0  0.18513  0.45215  0.20417  1.0000
  C   C382      1.0  0.19937  0.45657  0.20484  1.0000
  C   C383      1.0  0.19878  0.46605  0.21591  1.0000
  C   C384      1.0  0.18408  0.47086  0.22702  1.0000
  C   C385      1.0  0.16969  0.46638  0.22657  1.0000
  C   C386      1.0  0.17016  0.45719  0.21502  1.0000
  H   H305      1.0  0.21098  0.45271  0.19665  1.0000
  H   H306      1.0  0.20994  0.46941  0.21608  1.0000
  C   C387      1.0  0.99786  0.14832  0.34398  1.0000
  H   H307      1.0  0.15908  0.45373  0.21479  1.0000
  C   C388      1.0  0.04367  0.33885  0.29926  1.0000
  C   C389      1.0  0.03141  0.32951  0.30611  1.0000
  C   C390      1.0  0.02583  0.32270  0.29606  1.0000
  C   C391      1.0  0.03245  0.32523  0.27906  1.0000
  C   C392      1.0  0.04518  0.33394  0.27239  1.0000
  C   C393      1.0  0.05083  0.34062  0.28243  1.0000
  H   H308      1.0  0.02590  0.32789  0.31914  1.0000
  H   H309      1.0  0.48950  0.29799  0.20060  1.0000
  H   H310      1.0  0.05080  0.33543  0.25941  1.0000
  H   H311      1.0  0.06067  0.34721  0.27710  1.0000
  C   C394      1.0  0.11805  0.38284  0.24010  1.0000
  C   C395      1.0  0.13154  0.38379  0.22670  1.0000
  C   C396      1.0  0.13014  0.39653  0.21260  1.0000
  C   C397      1.0  0.11515  0.40805  0.21189  1.0000
  C   C398      1.0  0.10174  0.40696  0.22521  1.0000
  C   C399      1.0  0.10322  0.39447  0.23922  1.0000
  H   H312      1.0  0.14295  0.37467  0.22717  1.0000
  H   H313      1.0  0.14366  0.46735  0.35736  1.0000
  H   H314      1.0  0.09011  0.41573  0.22474  1.0000
  H   H315      1.0  0.09256  0.39367  0.24907  1.0000
  C   C400      1.0  0.10303  0.41494  0.31981  1.0000
  C   C401      1.0  0.10689  0.42568  0.30449  1.0000
  C   C402      1.0  0.11750  0.43655  0.30220  1.0000
  C   C403      1.0  0.12436  0.43651  0.31524  1.0000
  C   C404      1.0  0.12045  0.42569  0.33040  1.0000
  C   C405      1.0  0.10979  0.41518  0.33271  1.0000
  H   H316      1.0  0.10147  0.42575  0.29457  1.0000
  H   H317      1.0  0.12058  0.44468  0.29038  1.0000
  H   H318      1.0  0.12570  0.42544  0.34052  1.0000
  H   H319      1.0  0.10687  0.40703  0.34459  1.0000
  C   C406      1.0  0.06689  0.45818  0.26576  1.0000
  C   C407      1.0  0.06338  0.44281  0.26764  1.0000
  C   C408      1.0  0.05412  0.44081  0.25764  1.0000
  C   C409      1.0  0.04802  0.45438  0.24599  1.0000
  C   C410      1.0  0.03064  0.24229  0.34616  1.0000
  H   H320      1.0  0.06767  0.43259  0.27702  1.0000
  H   H321      1.0  0.04067  0.45293  0.23837  1.0000
  C   C411      1.0  0.18918  0.08894  0.36816  1.0000
  H   H322      1.0  0.43212  0.27572  0.19820  1.0000
  H   H323      1.0  0.09086  0.39380  0.19708  1.0000
  C   C412      1.0  0.28131  0.05239  0.35599  1.0000
  C   C413      1.0  0.26662  0.04695  0.36385  1.0000
  C   C414      1.0  0.25995  0.03887  0.35586  1.0000
  C   C415      1.0  0.26792  0.03611  0.34000  1.0000
  C   C416      1.0  0.28273  0.04133  0.33228  1.0000
  C   C417      1.0  0.28938  0.04941  0.34025  1.0000
  C   C418      1.0  0.04486  0.47989  0.34295  1.0000
  H   H324      1.0  0.24857  0.03475  0.36197  1.0000
  H   H325      1.0  0.28902  0.03926  0.32009  1.0000
  H   H326      1.0  0.30079  0.05347  0.33411  1.0000
  S   S74       1.0  0.01987  0.13353  0.36542  1.0000
  H   H327      1.0  0.22932  0.02830  0.20817  1.0000
  H   H328      1.0  0.01860  0.24268  0.25345  1.0000
  H   H329      1.0  0.04489  0.09347  0.20045  1.0000
  H   H330      1.0  0.14237  0.26324  0.30101  1.0000
  C   C419      1.0  0.00554  0.13395  0.35387  1.0000
  C   C420      1.0  0.32900  0.01513  0.20714  1.0000
  C   C421      1.0  0.02723  0.08654  0.22277  1.0000
  H   H331      1.0  0.04375  0.48390  0.29166  1.0000
  H   H332      1.0  0.44482  0.21238  0.20315  1.0000
  H   H333      1.0  0.45988  0.23262  0.20386  1.0000
  C   C422      1.0  0.03387  0.36804  0.21871  1.0000
  C   C423      1.0  0.02870  0.22457  0.23835  1.0000
  C   C424      1.0  0.06675  0.44033  0.19283  1.0000
  H   H334      1.0  0.11378  0.21862  0.30550  1.0000
  C   C425      1.0  0.07365  0.25009  0.36579  1.0000
  H   H335      1.0  0.26095  0.19903  0.36777  1.0000
  H   H336      1.0  0.39575  0.35025  0.25948  1.0000
  C   C426      1.0  0.25707  0.06756  0.23496  1.0000
  H   H337      1.0  0.07743  0.25943  0.36925  1.0000
  H   H338      1.0  0.02471  0.41271  0.28875  1.0000
  C   C427      1.0  0.00189  0.11886  0.35475  1.0000
  C   C428      1.0  0.00847  0.21161  0.32397  1.0000
  H   H339      1.0  0.03153  0.32786  0.22500  1.0000
  H   H340      1.0  0.25184  0.09243  0.23837  1.0000
  H   H341      1.0  0.25199  0.06242  0.24772  1.0000
  H   H342      1.0  0.26437  0.04406  0.22826  1.0000
  C   C429      1.0  0.14891  0.39179  0.30361  1.0000
  C   C430      1.0  0.13649  0.38318  0.30637  1.0000
  C   C431      1.0  0.13147  0.38137  0.29302  1.0000
  C   C432      1.0  0.13851  0.38853  0.27696  1.0000
  C   C433      1.0  0.15094  0.39726  0.27402  1.0000
  C   C434      1.0  0.15622  0.39871  0.28751  1.0000
  P   P13       1.0  0.15740  0.40909  0.25349  1.0000
  C   C435      1.0  0.17040  0.42177  0.25460  1.0000
  C   C436      1.0  0.16813  0.39648  0.23856  1.0000
  C   C437      1.0  0.17665  0.40369  0.22306  1.0000
  C   C438      1.0  0.18448  0.39437  0.21107  1.0000
  C   C439      1.0  0.18402  0.37768  0.21450  1.0000
  C   C440      1.0  0.17584  0.37030  0.23000  1.0000
  C   C441      1.0  0.16788  0.37965  0.24199  1.0000
  C   C442      1.0  0.16327  0.43578  0.26139  1.0000
  C   C443      1.0  0.17330  0.44488  0.26360  1.0000
  C   C444      1.0  0.19049  0.44025  0.25892  1.0000
  C   C445      1.0  0.19771  0.42633  0.25213  1.0000
  C   C446      1.0  0.18773  0.41697  0.25016  1.0000
  C   C447      1.0  0.13871  0.42236  0.24764  1.0000
  C   C448      1.0  0.12517  0.42732  0.25996  1.0000
  C   C449      1.0  0.11017  0.43645  0.25599  1.0000
  C   C450      1.0  0.10858  0.44096  0.23964  1.0000
  C   C451      1.0  0.12214  0.43672  0.22719  1.0000
  C   C452      1.0  0.13715  0.42733  0.23113  1.0000
  H   H343      1.0  0.15249  0.39359  0.31397  1.0000
  H   H344      1.0  0.13042  0.37828  0.31884  1.0000
  H   H345      1.0  0.12172  0.37491  0.29510  1.0000
  H   H346      1.0  0.13375  0.38791  0.26682  1.0000
  H   H347      1.0  0.16547  0.40570  0.28580  1.0000
  H   H348      1.0  0.17702  0.41665  0.22017  1.0000
  H   H349      1.0  0.19068  0.40024  0.19904  1.0000
  H   H350      1.0  0.06243  0.43315  0.21939  1.0000
  H   H351      1.0  0.17528  0.35742  0.23262  1.0000
  H   H352      1.0  0.16134  0.37374  0.25374  1.0000
  H   H353      1.0  0.14999  0.43963  0.26520  1.0000
  H   H354      1.0  0.16770  0.45580  0.26856  1.0000
  H   H355      1.0  0.19814  0.44771  0.26025  1.0000
  H   H356      1.0  0.21104  0.42286  0.24833  1.0000
  H   H357      1.0  0.19357  0.40598  0.24529  1.0000
  H   H358      1.0  0.12609  0.42381  0.27271  1.0000
  H   H359      1.0  0.09971  0.43979  0.26565  1.0000
  H   H360      1.0  0.09688  0.44786  0.23667  1.0000
  H   H361      1.0  0.12088  0.44036  0.21449  1.0000
  H   H362      1.0  0.14725  0.42383  0.22126  1.0000
  C   C453      1.0  0.26413  0.09075  0.21335  1.0000
  C   C454      1.0  0.00489  0.47050  0.33519  1.0000
  C   C455      1.0  0.22303  0.18391  0.35907  1.0000
  C   C456      1.0  0.23095  0.17184  0.34984  1.0000
  C   C457      1.0  0.24493  0.16023  0.35389  1.0000
  C   C458      1.0  0.25096  0.16059  0.36724  1.0000
  C   C459      1.0  0.25167  0.03737  0.20221  1.0000
  C   C460      1.0  0.06910  0.48042  0.35862  1.0000
  C   C461      1.0  0.03366  0.37295  0.20185  1.0000
  H   H363      1.0  0.22554  0.04970  0.34394  1.0000
  C   C462      1.0  0.00058  0.15884  0.27481  1.0000
  H   H364      1.0  0.04351  0.31034  0.35589  1.0000
  S   S75       1.0  0.30113  0.00715  0.30350  1.0000
  C   C463      1.0  0.27061  0.00407  0.22582  1.0000
  C   C464      1.0  0.40924  0.37322  0.21428  1.0000
  H   H365      1.0  0.24513  0.07228  0.34561  1.0000
  C   C465      1.0  0.30214  0.03260  0.21493  1.0000
  C   C466      1.0  0.07747  0.16677  0.30005  1.0000
  C   C467      1.0  0.25702  0.08440  0.22970  1.0000
  H   H366      1.0  0.07086  0.47671  0.29858  1.0000
  H   H367      1.0  0.22263  0.19364  0.37957  1.0000
  H   H368      1.0  0.23822  0.01367  0.18508  1.0000
  C   C468      1.0  0.00765  0.17149  0.27509  1.0000
  C   C469      1.0  0.01203  0.09166  0.23307  1.0000
  C   C470      1.0  0.03350  0.38335  0.26193  1.0000
  H   H369      1.0  0.21216  0.19290  0.35598  1.0000
  H   H370      1.0  0.22620  0.17140  0.33961  1.0000
  H   H371      1.0  0.25095  0.15068  0.34694  1.0000
  H   H372      1.0  0.04346  0.41330  0.22990  1.0000
  H   H373      1.0  0.17810  0.09024  0.34797  1.0000
  C   C471      1.0  0.07653  0.45202  0.20985  1.0000
  Fe  Fe41      1.0  0.16846  0.48644  0.26570  1.0000
  S   S76       1.0  0.31614  0.07427  0.19454  1.0000
  C   C472      1.0  0.31675  0.02228  0.21903  1.0000
  H   H374      1.0  0.03850  0.20384  0.22662  1.0000
  C   C473      1.0  0.99941  0.42078  0.30086  1.0000
  H   H375      1.0  0.10152  0.29308  0.32660  1.0000
  C   C474      1.0  0.26409  0.05713  0.22387  1.0000
  C   C475      1.0  0.02564  0.43264  0.21860  1.0000
  H   H376      1.0  0.26457  0.10370  0.20934  1.0000
  C   C476      1.0  0.03222  0.36179  0.19349  1.0000
  C   C477      1.0  0.21050  0.08680  0.31035  1.0000
  C   C478      1.0  0.21849  0.07146  0.30648  1.0000
  C   C479      1.0  0.22364  0.05814  0.31875  1.0000
  C   C480      1.0  0.07911  0.26836  0.31388  1.0000
  C   C481      1.0  0.21211  0.07528  0.33908  1.0000
  C   C482      1.0  0.20753  0.08878  0.32653  1.0000
  P   P14       1.0  0.20974  0.07842  0.35953  1.0000
  H   H377      1.0  0.48009  0.46440  0.24777  1.0000
  C   C483      1.0  0.22531  0.08973  0.35742  1.0000
  C   C484      1.0  0.22132  0.10467  0.36264  1.0000
  C   C485      1.0  0.23363  0.11324  0.36057  1.0000
  C   C486      1.0  0.25005  0.10681  0.35364  1.0000
  C   C487      1.0  0.25409  0.09206  0.34826  1.0000
  C   C488      1.0  0.24176  0.08364  0.34997  1.0000
  C   C489      1.0  0.40300  0.38201  0.22688  1.0000
  H   H378      1.0  0.06294  0.29269  0.31453  1.0000
  C   C490      1.0  0.06107  0.47167  0.25400  1.0000
  H   H379      1.0  0.16941  0.18505  0.35950  1.0000
  P   P15       1.0  0.08498  0.26539  0.33324  1.0000
  C   C491      1.0  0.06318  0.22505  0.37391  1.0000
  C   C492      1.0  0.08436  0.38633  0.20781  1.0000
  H   H380      1.0  0.10111  0.47274  0.24383  1.0000
  C   C493      1.0  0.40575  0.34781  0.23427  1.0000
  H   H381      1.0  0.18987  0.37054  0.20509  1.0000
  H   H382      1.0  0.03018  0.33691  0.19538  1.0000
  H   H383      1.0  0.20694  0.09723  0.30072  1.0000
  H   H384      1.0  0.22110  0.06992  0.29391  1.0000
  H   H385      1.0  0.04025  0.25716  0.32307  1.0000
  H   H386      1.0  0.99659  0.13437  0.28652  1.0000
  H   H387      1.0  0.20195  0.10089  0.32921  1.0000
  H   H388      1.0  0.29323  0.03817  0.22440  1.0000
  H   H389      1.0  0.23051  0.12473  0.36465  1.0000
  H   H390      1.0  0.25968  0.11313  0.35266  1.0000
  H   H391      1.0  0.26685  0.08697  0.34299  1.0000
  C   C494      1.0  0.04717  0.47223  0.29992  1.0000
  H   H392      1.0  0.39336  0.38055  0.25292  1.0000
  C   C495      1.0  0.06521  0.22494  0.35734  1.0000
  H   H393      1.0  0.10952  0.47349  0.28227  1.0000
  H   H394      1.0  0.05379  0.28187  0.35151  1.0000
  C   C496      1.0  0.38838  0.35937  0.19232  1.0000
  H   H395      1.0  0.48648  0.27020  0.20044  1.0000
  H   H396      1.0  0.15436  0.19118  0.32852  1.0000
  H   H397      1.0  0.40197  0.39526  0.22403  1.0000
  H   H398      1.0  0.06450  0.15712  0.32442  1.0000
  H   H399      1.0  0.20886  0.10977  0.36840  1.0000
  C   C497      1.0  0.03389  0.20775  0.23824  1.0000
  H   H400      1.0  0.07422  0.45961  0.27342  1.0000
  H   H401      1.0  0.03353  0.43710  0.28987  1.0000
  C   C498      1.0  0.32647  0.01804  0.19123  1.0000
  H   H402      1.0  0.09210  0.35570  0.24098  1.0000
  H   H403      1.0  0.02920  0.23372  0.22688  1.0000
  C   C499      1.0  0.06273  0.46817  0.30378  1.0000
  H   H404      1.0  0.40672  0.33460  0.23743  1.0000
  S   S77       1.0  0.05448  0.15190  0.37168  1.0000
  C   C500      1.0  0.05632  0.30630  0.35001  1.0000
  C   C501      1.0  0.44816  0.22143  0.19208  1.0000
  C   C502      1.0  0.24121  0.02876  0.19981  1.0000
  C   C503      1.0  0.39951  0.35665  0.24684  1.0000
  C   C504      1.0  0.24518  0.98745  0.23210  1.0000
  C   C505      1.0  0.03127  0.34559  0.20183  1.0000
  H   H405      1.0  0.03034  0.44238  0.22025  1.0000
  C   C506      1.0  0.02709  0.40339  0.22195  1.0000
  C   C507      1.0  0.25867  0.00415  0.24068  1.0000
  C   C508      1.0  0.01939  0.15400  0.29808  1.0000
  C   C509      1.0  0.07117  0.27311  0.28323  1.0000
  H   H406      1.0  0.14988  0.16083  0.33324  1.0000
  H   H407      1.0  0.14049  0.39714  0.20221  1.0000
  C   C510      1.0  0.12367  0.46408  0.34890  1.0000
  H   H408      1.0  0.18646  0.13348  0.37291  1.0000
  H   H409      1.0  0.13675  0.22829  0.34740  1.0000
  C   C511      1.0  0.32791  0.22027  0.36888  1.0000
  H   H410      1.0  0.03721  0.18300  0.25287  1.0000
  H   H411      1.0  0.30386  0.99313  0.23345  1.0000
  C   C512      1.0  0.02940  0.27142  0.34189  1.0000
  H   H412      1.0  0.09203  0.14726  0.37753  1.0000
  H   H413      1.0  0.10671  0.37223  0.21582  1.0000
  C   C513      1.0  0.25543  0.20410  0.37870  1.0000
  H   H414      1.0  0.01607  0.31590  0.30140  1.0000
  C   C514      1.0  0.08306  0.31256  0.33595  1.0000
  C   C515      1.0  0.00265  0.14389  0.28631  1.0000
  S   S78       1.0  0.99926  0.21322  0.36640  1.0000
  H   H415      1.0  0.27898  0.99578  0.20272  1.0000
  C   C516      1.0  0.04618  0.17797  0.29204  1.0000
  C   C517      1.0  0.09334  0.37416  0.21839  1.0000
  H   H416      1.0  0.34341  0.23807  0.35921  1.0000
  S   S79       1.0  0.04358  0.19139  0.37356  1.0000
  H   H417      1.0  0.03185  0.20346  0.30858  1.0000
  C   C518      1.0  0.06222  0.29016  0.34755  1.0000
  H   H418      1.0  0.03704  0.16712  0.31762  1.0000
  C   C519      1.0  0.05868  0.37979  0.22561  1.0000
  H   H419      1.0  0.23042  0.04638  0.31564  1.0000
  C   C520      1.0  0.02760  0.37792  0.25118  1.0000
  C   C521      1.0  0.12116  0.48453  0.24030  1.0000
  H   H420      1.0  0.38986  0.01338  0.22977  1.0000
  C   C522      1.0  0.06787  0.44118  0.20840  1.0000
  C   C523      1.0  0.06783  0.36751  0.23609  1.0000
  Fe  Fe42      1.0  0.99708  0.26827  0.27641  1.0000
  C   C524      1.0  0.02711  0.37965  0.27892  1.0000
  C   C525      1.0  0.06670  0.31753  0.34409  1.0000
  H   H421      1.0  0.06193  0.33026  0.34531  1.0000
  C   C526      1.0  0.06838  0.28296  0.30775  1.0000
  H   H422      1.0  0.01167  0.48488  0.24391  1.0000
  C   C527      1.0  0.25686  0.98753  0.21716  1.0000
  H   H423      1.0  0.40896  0.05782  0.21006  1.0000
  H   H424      1.0  0.00773  0.10771  0.36229  1.0000
  H   H425      1.0  0.01708  0.22226  0.27956  1.0000
  H   H426      1.0  0.06213  0.21513  0.35395  1.0000
  H   H427      1.0  0.46332  0.18318  0.19515  1.0000
  H   H428      1.0  0.06038  0.39827  0.20276  1.0000
  C   C528      1.0  0.07597  0.17573  0.28419  1.0000
  H   H429      1.0  0.05954  0.18864  0.26797  1.0000
  C   C529      1.0  0.06341  0.16351  0.31194  1.0000
  H   H430      1.0  0.38852  0.02182  0.25545  1.0000
  H   H431      1.0  0.26155  0.15119  0.37035  1.0000
  C   C530      1.0  0.08594  0.25630  0.30437  1.0000
  C   C531      1.0  0.02184  0.21794  0.26818  1.0000
  S   S80       1.0  0.30044  0.00251  0.26690  1.0000
  H   H432      1.0  0.27732  0.08532  0.18985  1.0000
  H   H433      1.0  0.42110  0.25114  0.20107  1.0000
  H   H434      1.0  0.48214  0.48386  0.26297  1.0000
  C   C532      1.0  0.01440  0.36975  0.25757  1.0000
  C   C533      1.0  0.99405  0.47748  0.34805  1.0000
  H   H435      1.0  0.32087  0.22524  0.35930  1.0000
  C   C534      1.0  0.03311  0.41613  0.22396  1.0000
  H   H436      1.0  0.45180  0.32455  0.20603  1.0000
  C   C535      1.0  0.13454  0.25804  0.31233  1.0000
  H   H437      1.0  0.09092  0.32146  0.33103  1.0000
  C   C536      1.0  0.01235  0.19552  0.30365  1.0000
  C   C537      1.0  0.07103  0.23758  0.34498  1.0000
  C   C538      1.0  0.41489  0.06272  0.19756  1.0000
  C   C539      1.0  0.02690  0.20100  0.26821  1.0000
  C   C540      1.0  0.07522  0.25033  0.34909  1.0000
  H   H438      1.0  0.00915  0.36591  0.24957  1.0000
  C   C541      1.0  0.21333  0.05891  0.37396  1.0000
  C   C542      1.0  0.11744  0.26432  0.31530  1.0000
  H   H439      1.0  0.24722  0.04393  0.21206  1.0000
  C   C543      1.0  0.41071  0.35604  0.21789  1.0000
  C   C544      1.0  0.99870  0.10457  0.26876  1.0000
  C   C545      1.0  0.06710  0.38901  0.21127  1.0000
  C   C546      1.0  0.10920  0.48031  0.23512  1.0000
  H   H440      1.0  0.02825  0.12182  0.19312  1.0000
  H   H441      1.0  0.07215  0.23726  0.33230  1.0000
  H   H442      1.0  0.15476  0.24023  0.32156  1.0000
  C   C547      1.0  0.13139  0.23840  0.33845  1.0000
  C   C548      1.0  0.08901  0.29642  0.33347  1.0000
  C   C549      1.0  0.11429  0.24468  0.34150  1.0000
  C   C550      1.0  0.27127  0.08027  0.20226  1.0000
  C   C551      1.0  0.01201  0.14149  0.29797  1.0000
  C   C552      1.0  0.02347  0.24163  0.36280  1.0000
  H   H443      1.0  0.10677  0.23914  0.35281  1.0000
  H   H444      1.0  0.00072  0.16004  0.34304  1.0000
  C   C553      1.0  0.42617  0.32316  0.20990  1.0000
  C   C554      1.0  0.41499  0.31258  0.21596  1.0000
  C   C555      1.0  0.42050  0.29582  0.22247  1.0000
  C   C556      1.0  0.43718  0.28948  0.22297  1.0000
  C   C557      1.0  0.44835  0.29993  0.21708  1.0000
  C   C558      1.0  0.44288  0.31673  0.21062  1.0000
  H   H445      1.0  0.05649  0.46510  0.37979  1.0000
  C   C559      1.0  0.16369  0.20367  0.37351  1.0000
  H   H446      1.0  0.15832  0.46982  0.23520  1.0000
  H   H447      1.0  0.14705  0.48650  0.18641  1.0000
  P   P16       1.0  0.01586  0.46683  0.30255  1.0000
  P   P17       1.0  0.02581  0.18579  0.28742  1.0000
  C   C560      1.0  0.01882  0.20346  0.31178  1.0000
  H   H448      1.0  0.03458  0.34717  0.23953  1.0000
  P   P18       1.0  0.28084  0.04972  0.19317  1.0000
  C   C561      1.0  0.04783  0.16919  0.30801  1.0000
  C   C562      1.0  0.00859  0.11859  0.21463  1.0000
  H   H449      1.0  0.48861  0.32895  0.19670  1.0000
  H   H450      1.0  0.46128  0.29497  0.21741  1.0000
  H   H451      1.0  0.40202  0.31728  0.21565  1.0000
  H   H452      1.0  0.41185  0.28769  0.22698  1.0000
  H   H453      1.0  0.44150  0.27643  0.22778  1.0000
  C   C563      1.0  0.33143  0.10704  0.19735  1.0000
  H   H454      1.0  0.17644  0.20463  0.37125  1.0000
  H   H455      1.0  0.31438  0.20117  0.38120  1.0000
  H   H456      1.0  0.06015  0.43173  0.19187  1.0000
  Fe  Fe43      1.0  0.01910  0.19055  0.37006  1.0000
  H   H457      1.0  0.31872  0.02016  0.23138  1.0000
  C   C564      1.0  0.14151  0.24509  0.32389  1.0000
  H   H458      1.0  0.06773  0.27474  0.27161  1.0000
  C   C565      1.0  0.02276  0.22964  0.25332  1.0000
  C   C566      1.0  0.13249  0.47338  0.35275  1.0000
  H   H459      1.0  0.05624  0.29653  0.28778  1.0000
  C   C567      1.0  0.41974  0.26143  0.19065  1.0000
  C   C568      1.0  0.45662  0.23303  0.19250  1.0000
  C   C569      1.0  0.32461  0.10017  0.21361  1.0000
  C   C570      1.0  0.33480  0.09214  0.22484  1.0000
  C   C571      1.0  0.35194  0.09119  0.21994  1.0000
  C   C572      1.0  0.35871  0.09791  0.20347  1.0000
  P   P19       1.0  0.36532  0.08086  0.23432  1.0000
  C   C573      1.0  0.38209  0.09144  0.22955  1.0000
  C   C574      1.0  0.35350  0.08139  0.25503  1.0000
  C   C575      1.0  0.35353  0.09358  0.26295  1.0000
  C   C576      1.0  0.34417  0.09382  0.27898  1.0000
  C   C577      1.0  0.33468  0.08196  0.28714  1.0000
  C   C578      1.0  0.33451  0.06988  0.27927  1.0000
  C   C579      1.0  0.34386  0.06960  0.26330  1.0000
  C   C580      1.0  0.39795  0.08264  0.23179  1.0000
  C   C581      1.0  0.41120  0.09064  0.22663  1.0000
  C   C582      1.0  0.40874  0.10742  0.21912  1.0000
  C   C583      1.0  0.39292  0.11637  0.21731  1.0000
  C   C584      1.0  0.37959  0.10850  0.22274  1.0000
  C   C585      1.0  0.37348  0.05952  0.23278  1.0000
  C   C586      1.0  0.37431  0.05458  0.21837  1.0000
  C   C587      1.0  0.38034  0.03804  0.21724  1.0000
  C   C588      1.0  0.38553  0.02626  0.23057  1.0000
  C   C589      1.0  0.38480  0.03104  0.24500  1.0000
  C   C590      1.0  0.37888  0.04761  0.24610  1.0000
  H   H460      1.0  0.04325  0.39019  0.25720  1.0000
  H   H461      1.0  0.02613  0.15192  0.30755  1.0000
  H   H462      1.0  0.31148  0.10037  0.21729  1.0000
  H   H463      1.0  0.32924  0.08641  0.23717  1.0000
  H   H464      1.0  0.37194  0.09676  0.19918  1.0000
  H   H465      1.0  0.36071  0.10291  0.25678  1.0000
  H   H466      1.0  0.34422  0.10322  0.28508  1.0000
  H   H467      1.0  0.32739  0.08212  0.29954  1.0000
  H   H468      1.0  0.32711  0.06067  0.28545  1.0000
  H   H469      1.0  0.34347  0.06021  0.25736  1.0000
  H   H470      1.0  0.40020  0.06957  0.23723  1.0000
  H   H471      1.0  0.42347  0.08377  0.22814  1.0000
  H   H472      1.0  0.41908  0.11354  0.21448  1.0000
  H   H473      1.0  0.39111  0.12933  0.21121  1.0000
  H   H474      1.0  0.36745  0.11568  0.22107  1.0000
  H   H475      1.0  0.36999  0.06342  0.20812  1.0000
  H   H476      1.0  0.38064  0.03427  0.20615  1.0000
  H   H477      1.0  0.26043  0.04903  0.37603  1.0000
  C   C591      1.0  0.25476  0.22071  0.37778  1.0000
  H   H478      1.0  0.37822  0.05106  0.25744  1.0000
  C   C592      1.0  0.06039  0.18133  0.28018  1.0000
  H   H479      1.0  0.28010  0.01101  0.22304  1.0000
  H   H480      1.0  0.08681  0.17875  0.27515  1.0000
  C   C593      1.0  0.10716  0.25775  0.32995  1.0000
  C   C594      1.0  0.14322  0.19062  0.37063  1.0000
  H   H481      1.0  0.14399  0.20921  0.30416  1.0000
  P   P20       1.0  0.13760  0.17698  0.36160  1.0000
  C   C595      1.0  0.15512  0.16072  0.35642  1.0000
  H   H482      1.0  0.23631  0.99631  0.25464  1.0000
  H   H483      1.0  0.32358  0.11264  0.18851  1.0000
  C   C596      1.0  0.22064  0.06005  0.33493  1.0000
  C   C597      1.0  0.22899  0.18426  0.37248  1.0000
  H   H484      1.0  0.11221  0.27426  0.30613  1.0000
  H   H485      1.0  0.15069  0.10549  0.35990  1.0000
  C   C598      1.0  0.16527  0.15250  0.36776  1.0000
  C   C599      1.0  0.17873  0.13969  0.36406  1.0000
  C   C600      1.0  0.18197  0.13476  0.34916  1.0000
  C   C601      1.0  0.17156  0.14247  0.33808  1.0000
  C   C602      1.0  0.15808  0.15532  0.34174  1.0000
  C   C603      1.0  0.12996  0.19017  0.34387  1.0000
  C   C604      1.0  0.14115  0.19525  0.32927  1.0000
  C   C605      1.0  0.13534  0.20555  0.31549  1.0000
  C   C606      1.0  0.11834  0.21101  0.31628  1.0000
  C   C607      1.0  0.10716  0.20655  0.33097  1.0000
  C   C608      1.0  0.11291  0.19639  0.34481  1.0000
  H   H486      1.0  0.08683  0.24915  0.28203  1.0000
  H   H487      1.0  0.06165  0.36005  0.24703  1.0000
  H   H488      1.0  0.03234  0.38308  0.28723  1.0000
  C   C609      1.0  0.15966  0.19240  0.36709  1.0000
  H   H489      1.0  0.34049  0.00746  0.21021  1.0000
  H   H490      1.0  0.11171  0.16300  0.35759  1.0000
  C   C610      1.0  0.08191  0.25865  0.28916  1.0000
  C   C611      1.0  0.03308  0.19599  0.25311  1.0000
  C   C612      1.0  0.06456  0.28531  0.29244  1.0000
  C   C613      1.0  0.40281  0.34686  0.19083  1.0000
  C   C614      1.0  0.10031  0.48513  0.30304  1.0000
  H   H491      1.0  0.99480  0.42695  0.20454  1.0000
  H   H492      1.0  0.19237  0.12479  0.34635  1.0000
  H   H493      1.0  0.17384  0.13838  0.32671  1.0000
  C   C615      1.0  0.42966  0.06793  0.19441  1.0000
  C   C616      1.0  0.99892  0.10130  0.28549  1.0000
  P   P21       1.0  0.41890  0.34481  0.20151  1.0000
  H   H494      1.0  0.02133  0.22994  0.37044  1.0000
  Fe  Fe44      1.0  0.29611  0.98836  0.29308  1.0000
  H   H495      1.0  0.25970  0.22838  0.36623  1.0000
  H   H496      1.0  0.01769  0.28229  0.36287  1.0000
  C   C617      1.0  0.04192  0.44582  0.31651  1.0000
  H   H497      1.0  0.01313  0.13013  0.30728  1.0000
  H   H498      1.0  0.19656  0.04872  0.36698  1.0000
  H   H499      1.0  0.03126  0.28303  0.33359  1.0000
  H   H500      1.0  0.01056  0.09847  0.28931  1.0000
  H   H501      1.0  0.43519  0.06717  0.20451  1.0000
  C   C618      1.0  0.04460  0.47137  0.35927  1.0000
  H   H502      1.0  0.39670  0.05912  0.18683  1.0000
  C   C619      1.0  0.24595  0.99584  0.24360  1.0000
  C   C620      1.0  0.26986  0.99560  0.21417  1.0000
  H   H503      1.0  0.07758  0.45246  0.22188  1.0000
  H   H504      1.0  0.41291  0.37984  0.20171  1.0000
  H   H505      1.0  0.03405  0.43696  0.32163  1.0000
  H   H506      1.0  0.48514  0.18961  0.20465  1.0000
  C   C621      1.0  0.13082  0.20085  0.37992  1.0000
  H   H507      1.0  0.01430  0.46416  0.26962  1.0000
  H   H508      1.0  0.40379  0.10464  0.18382  1.0000
  C   C622      1.0  0.05758  0.44177  0.32020  1.0000
  S   S81       1.0  0.11231  0.42360  0.19441  1.0000
  H   H509      1.0  0.36514  0.37057  0.18487  1.0000
  C   C623      1.0  0.17625  0.09337  0.35972  1.0000
  S   S82       1.0  0.18738  0.43954  0.19013  1.0000
  C   C624      1.0  0.01910  0.25586  0.36922  1.0000
  C   C625      1.0  0.02169  0.27092  0.35850  1.0000
  Fe  Fe45      1.0  0.02871  0.15489  0.36815  1.0000
  C   C626      1.0  0.11183  0.16029  0.37057  1.0000
  C   C627      1.0  0.10966  0.47190  0.34228  1.0000
  H   H510      1.0  0.01029  0.10443  0.25980  1.0000
  H   H511      1.0  0.10766  0.47534  0.31055  1.0000
  C   C628      1.0  0.00281  0.10786  0.22929  1.0000
  C   C629      1.0  0.29950  0.03579  0.19887  1.0000
  C   C630      1.0  0.03656  0.46113  0.30634  1.0000
  H   H512      1.0  0.37458  0.00936  0.18517  1.0000
  C   C631      1.0  0.03201  0.34048  0.21846  1.0000
  H   H513      1.0  0.46858  0.36840  0.18753  1.0000
  C   C632      1.0  0.05665  0.47173  0.36714  1.0000
  C   C633      1.0  0.47417  0.18663  0.18637  1.0000
  S   S83       1.0  0.18487  0.48256  0.24078  1.0000
  S   S84       1.0  0.26858  0.99792  0.29804  1.0000
  C   C634      1.0  0.16057  0.10184  0.36655  1.0000
  H   H514      1.0  0.99857  0.35884  0.27952  1.0000
  H   H515      1.0  0.16271  0.15590  0.37955  1.0000
  C   C635      1.0  0.01195  0.43655  0.21143  1.0000
  C   C636      1.0  0.02379  0.11344  0.20436  1.0000
  H   H516      1.0  0.35557  0.15027  0.36651  1.0000
  H   H517      1.0  0.09128  0.47002  0.19693  1.0000
  C   C637      1.0  0.48645  0.19027  0.19167  1.0000
  H   H518      1.0  0.06179  0.42984  0.32781  1.0000
  C   C638      1.0  0.20494  0.04668  0.37504  1.0000
  H   H519      1.0  0.38647  0.36808  0.19994  1.0000
  C   C639      1.0  0.08418  0.46198  0.19579  1.0000
  C   C640      1.0  0.32425  0.20666  0.38132  1.0000
  H   H520      1.0  0.00134  0.13087  0.21099  1.0000
  C   C641      1.0  0.03315  0.09746  0.20846  1.0000
  H   H521      1.0  0.08011  0.44982  0.31674  1.0000
  H   H522      1.0  0.12280  0.47964  0.25280  1.0000
  C   C642      1.0  0.12270  0.16598  0.37614  1.0000
  H   H523      1.0  0.01553  0.46090  0.33781  1.0000
  H   H524      1.0  0.10317  0.46441  0.33919  1.0000
  C   C643      1.0  0.15758  0.10559  0.38199  1.0000
  C   C644      1.0  0.00937  0.44872  0.30217  1.0000
  C   C645      1.0  0.24619  0.02053  0.18682  1.0000
  C   C646      1.0  0.44670  0.35848  0.19351  1.0000
  C   C647      1.0  0.06756  0.23754  0.37814  1.0000
  C   C648      1.0  0.43586  0.35328  0.18741  1.0000
  C   C649      1.0  0.99530  0.19606  0.30763  1.0000
  C   C650      1.0  0.35087  0.14979  0.37959  1.0000
  S   S85       1.0  0.14145  0.48607  0.27301  1.0000
  H   H525      1.0  0.99647  0.47333  0.36037  1.0000
  C   C651      1.0  0.24290  0.17246  0.37681  1.0000
  H   H526      1.0  0.00772  0.39775  0.21426  1.0000
  H   H527      1.0  0.00610  0.44935  0.20744  1.0000
  C   C652      1.0  0.00562  0.42393  0.20977  1.0000
  H   H528      1.0  0.99565  0.40997  0.30030  1.0000
  C   C653      1.0  0.34971  0.22108  0.38118  1.0000
  H   H529      1.0  0.35955  0.22670  0.38115  1.0000
  H   H530      1.0  0.07838  0.48050  0.36489  1.0000
  C   C654      1.0  0.49212  0.46494  0.24892  1.0000
  C   C655      1.0  0.10144  0.48403  0.28690  1.0000
  C   C656      1.0  0.46015  0.36455  0.18275  1.0000
  C   C657      1.0  0.49328  0.47613  0.25742  1.0000
  C   C658      1.0  0.46855  0.19892  0.50366  1.0000
  Fe  Fe46      1.0  0.40522  0.22565  0.53197  1.0000
  S   S86       1.0  0.39882  0.23082  0.55727  1.0000
  S   S87       1.0  0.42943  0.22882  0.51373  1.0000
  Fe  Fe47      1.0  0.37237  0.21450  0.53633  1.0000
  S   S88       1.0  0.36366  0.21939  0.56202  1.0000
  S   S89       1.0  0.35866  0.19928  0.52841  1.0000
  Fe  Fe48      1.0  0.37369  0.24251  0.55192  1.0000
  S   S90       1.0  0.35951  0.26693  0.55871  1.0000
  H   H531      1.0  0.48394  0.32491  0.57203  1.0000
  C   C659      1.0  0.12294  0.16165  0.39298  1.0000
  S   S91       1.0  0.38036  0.23887  0.52574  1.0000
  S   S92       1.0  0.39796  0.20101  0.54037  1.0000
  Fe  Fe49      1.0  0.20314  0.05393  0.52610  1.0000
  S   S93       1.0  0.20364  0.08057  0.51504  1.0000
  S   S94       1.0  0.20280  0.03681  0.51080  1.0000
  Fe  Fe50      1.0  0.20302  0.05615  0.56066  1.0000
  S   S95       1.0  0.20422  0.08285  0.55227  1.0000
  Fe  Fe51      1.0  0.18515  0.08524  0.53812  1.0000
  S   S96       1.0  0.16306  0.10597  0.54217  1.0000
  Fe  Fe52      1.0  0.22259  0.07585  0.53011  1.0000
  S   S97       1.0  0.24620  0.08462  0.51818  1.0000
  S   S98       1.0  0.18263  0.05893  0.54800  1.0000
  S   S99       1.0  0.22345  0.04873  0.53966  1.0000
  Fe  Fe53      1.0  0.25120  0.06887  0.42107  1.0000
  S   S100      1.0  0.25282  0.09200  0.42719  1.0000
  S   S101      1.0  0.23391  0.05167  0.43426  1.0000
  Fe  Fe54      1.0  0.28014  0.08416  0.41761  1.0000
  S   S102      1.0  0.30015  0.08551  0.42921  1.0000
  H   H532      1.0  0.32771  0.01035  0.49135  1.0000
  S   S103      1.0  0.27867  0.05982  0.41383  1.0000
  Fe  Fe55      1.0  0.28788  0.16180  0.47066  1.0000
  S   S104      1.0  0.28563  0.18915  0.46132  1.0000
  S   S105      1.0  0.30686  0.14437  0.45599  1.0000
  Fe  Fe56      1.0  0.26386  0.16640  0.50233  1.0000
  S   S106      1.0  0.25982  0.19399  0.49550  1.0000
  S   S107      1.0  0.24961  0.15403  0.52617  1.0000
  Fe  Fe57      1.0  0.25822  0.19074  0.47106  1.0000
  S   S108      1.0  0.23890  0.20809  0.45717  1.0000
  Fe  Fe58      1.0  0.28755  0.18973  0.48665  1.0000
  S   S109      1.0  0.30226  0.20714  0.48928  1.0000
  S   S110      1.0  0.26054  0.16338  0.47849  1.0000
  S   S111      1.0  0.29154  0.16217  0.49541  1.0000
  Fe  Fe59      1.0  0.13511  0.16040  0.46253  1.0000
  S   S112      1.0  0.13158  0.18793  0.45335  1.0000
  S   S113      1.0  0.12274  0.14995  0.48835  1.0000
  Fe  Fe60      1.0  0.15304  0.15366  0.42914  1.0000
  S   S114      1.0  0.15163  0.18038  0.41741  1.0000
  S   S115      1.0  0.16238  0.13402  0.41435  1.0000
  Fe  Fe61      1.0  0.15842  0.18194  0.44035  1.0000
  S   S116      1.0  0.17564  0.19881  0.43824  1.0000
  Fe  Fe62      1.0  0.12520  0.18371  0.43151  1.0000
  S   S117      1.0  0.10436  0.19835  0.41855  1.0000
  S   S118      1.0  0.16218  0.15460  0.45089  1.0000
  S   S119      1.0  0.12646  0.15689  0.44183  1.0000
  C   C660      1.0  0.34401  0.16442  0.38532  1.0000
  S   S120      1.0  0.05209  0.16039  0.41454  1.0000
  H   H533      1.0  0.24712  0.24030  0.39110  1.0000
  H   H534      1.0  0.00316  0.22207  0.39582  1.0000
  C   C661      1.0  0.29025  0.13407  0.39820  1.0000
  H   H535      1.0  0.13849  0.10203  0.48718  1.0000
  C   C662      1.0  0.09022  0.18736  0.41747  1.0000
  C   C663      1.0  0.08490  0.17503  0.43070  1.0000
  C   C664      1.0  0.07320  0.16686  0.42970  1.0000
  C   C665      1.0  0.06696  0.17073  0.41537  1.0000
  C   C666      1.0  0.07255  0.18284  0.40206  1.0000
  C   C667      1.0  0.08387  0.19131  0.40321  1.0000
  H   H536      1.0  0.08953  0.17202  0.44184  1.0000
  H   H537      1.0  0.06899  0.15752  0.44008  1.0000
  C   C668      1.0  0.22110  0.20421  0.45344  1.0000
  C   C669      1.0  0.21107  0.21751  0.44480  1.0000
  C   C670      1.0  0.19735  0.21543  0.44046  1.0000
  C   C671      1.0  0.19291  0.20010  0.44511  1.0000
  C   C672      1.0  0.20240  0.18682  0.45452  1.0000
  C   C673      1.0  0.21667  0.18876  0.45845  1.0000
  H   H538      1.0  0.21405  0.22958  0.44120  1.0000
  H   H539      1.0  0.19006  0.22587  0.43343  1.0000
  H   H540      1.0  0.19885  0.17509  0.45859  1.0000
  H   H541      1.0  0.22410  0.17840  0.46539  1.0000
  C   C674      1.0  0.49157  0.20175  0.55123  1.0000
  C   C675      1.0  0.19431  0.11689  0.40884  1.0000
  C   C676      1.0  0.18359  0.13242  0.40716  1.0000
  C   C677      1.0  0.43374  0.32520  0.54152  1.0000
  H   H542      1.0  0.18945  0.10586  0.41447  1.0000
  C   C678      1.0  0.30076  0.10294  0.43581  1.0000
  C   C679      1.0  0.28661  0.11489  0.44051  1.0000
  C   C680      1.0  0.28798  0.12770  0.44709  1.0000
  C   C681      1.0  0.30354  0.12868  0.44855  1.0000
  C   C682      1.0  0.31751  0.11687  0.44357  1.0000
  C   C683      1.0  0.31612  0.10409  0.43736  1.0000
  H   H543      1.0  0.27465  0.11399  0.43952  1.0000
  H   H544      1.0  0.27707  0.13663  0.45115  1.0000
  H   H545      1.0  0.32948  0.11737  0.44491  1.0000
  H   H546      1.0  0.29240  0.12073  0.40218  1.0000
  H   H547      1.0  0.30123  0.21187  0.41250  1.0000
  H   H548      1.0  0.22120  0.11612  0.44842  1.0000
  H   H549      1.0  0.34505  0.46529  0.58108  1.0000
  C   C684      1.0  0.13474  0.13743  0.50254  1.0000
  C   C685      1.0  0.12760  0.13635  0.51930  1.0000
  C   C686      1.0  0.13653  0.12669  0.53120  1.0000
  C   C687      1.0  0.15251  0.11755  0.52650  1.0000
  C   C688      1.0  0.15965  0.11825  0.50974  1.0000
  C   C689      1.0  0.15085  0.12841  0.49768  1.0000
  H   H550      1.0  0.11517  0.14323  0.52310  1.0000
  H   H551      1.0  0.13096  0.12620  0.54413  1.0000
  H   H552      1.0  0.17202  0.11120  0.50610  1.0000
  H   H553      1.0  0.15637  0.12909  0.48473  1.0000
  C   C690      1.0  0.24614  0.10436  0.52008  1.0000
  C   C691      1.0  0.25887  0.11204  0.51007  1.0000
  C   C692      1.0  0.25979  0.12742  0.51178  1.0000
  C   C693      1.0  0.24800  0.13512  0.52364  1.0000
  C   C694      1.0  0.23511  0.12757  0.53358  1.0000
  C   C695      1.0  0.23412  0.11222  0.53171  1.0000
  H   H554      1.0  0.26799  0.10600  0.50101  1.0000
  H   H555      1.0  0.26986  0.13312  0.50420  1.0000
  H   H556      1.0  0.22593  0.13355  0.54270  1.0000
  H   H557      1.0  0.22425  0.10640  0.53945  1.0000
  C   C696      1.0  0.21128  0.04213  0.48956  1.0000
  C   C697      1.0  0.22280  0.05232  0.48318  1.0000
  C   C698      1.0  0.22991  0.05550  0.46612  1.0000
  C   C699      1.0  0.22537  0.04859  0.45555  1.0000
  C   C700      1.0  0.21382  0.03854  0.46201  1.0000
  C   C701      1.0  0.20686  0.03529  0.47891  1.0000
  H   H558      1.0  0.22635  0.05754  0.49138  1.0000
  H   H559      1.0  0.23893  0.06317  0.46118  1.0000
  H   H560      1.0  0.21027  0.03318  0.45391  1.0000
  P   P22       1.0  0.25005  0.17266  0.39459  1.0000
  C   C702      1.0  0.34308  0.20188  0.51724  1.0000
  C   C703      1.0  0.33722  0.18798  0.51769  1.0000
  C   C704      1.0  0.32480  0.18932  0.50924  1.0000
  C   C705      1.0  0.31799  0.20464  0.50021  1.0000
  C   C706      1.0  0.32392  0.21852  0.49967  1.0000
  C   C707      1.0  0.33636  0.21718  0.50809  1.0000
  H   H561      1.0  0.34230  0.17608  0.52470  1.0000
  H   H562      1.0  0.32040  0.17856  0.50978  1.0000
  H   H563      1.0  0.31886  0.23043  0.49266  1.0000
  H   H564      1.0  0.34071  0.22800  0.50753  1.0000
  H   H565      1.0  0.04675  0.21446  0.42641  1.0000
  H   H566      1.0  0.99474  0.12833  0.39634  1.0000
  C   C708      1.0  0.26503  0.01737  0.42613  1.0000
  H   H567      1.0  0.46686  0.20578  0.49148  1.0000
  H   H568      1.0  0.20136  0.02204  0.38689  1.0000
  H   H569      1.0  0.08796  0.20075  0.39289  1.0000
  P   P23       1.0  0.01038  0.25471  0.39099  1.0000
  C   C709      1.0  0.00943  0.13836  0.42413  1.0000
  H   H570      1.0  0.31767  0.45186  0.48190  1.0000
  C   C710      1.0  0.32271  0.00542  0.48397  1.0000
  H   H571      1.0  0.23602  0.19380  0.41907  1.0000
  C   C711      1.0  0.44299  0.18642  0.57413  1.0000
  C   C712      1.0  0.20757  0.03160  0.38635  1.0000
  C   C713      1.0  0.46853  0.25539  0.51557  1.0000
  C   C714      1.0  0.45886  0.24832  0.53041  1.0000
  C   C715      1.0  0.44647  0.24041  0.53026  1.0000
  C   C716      1.0  0.44420  0.23898  0.51523  1.0000
  C   C717      1.0  0.45427  0.24563  0.50054  1.0000
  C   C718      1.0  0.46602  0.25405  0.50070  1.0000
  H   H572      1.0  0.46079  0.24914  0.54193  1.0000
  H   H573      1.0  0.43885  0.23524  0.54170  1.0000
  H   H574      1.0  0.45267  0.24463  0.48889  1.0000
  Fe  Fe63      1.0  0.25269  0.10293  0.40049  1.0000
  H   H575      1.0  0.10463  0.12899  0.45609  1.0000
  C   C719      1.0  0.14721  0.10000  0.46154  1.0000
  H   H576      1.0  0.42229  0.32922  0.54984  1.0000
  H   H577      1.0  0.19263  0.12632  0.53291  1.0000
  H   H578      1.0  0.05830  0.21542  0.38348  1.0000
  C   C720      1.0  0.03104  0.20280  0.41995  1.0000
  C   C721      1.0  0.41850  0.27294  0.57448  1.0000
  H   H579      1.0  0.34082  0.16139  0.48854  1.0000
  H   H580      1.0  0.23467  0.03902  0.40428  1.0000
  C   C722      1.0  0.21142  0.11568  0.40441  1.0000
  C   C723      1.0  0.34609  0.20747  0.39364  1.0000
  C   C724      1.0  0.01830  0.23442  0.40260  1.0000
  C   C725      1.0  0.45631  0.19088  0.51425  1.0000
  C   C726      1.0  0.20701  0.14540  0.39525  1.0000
  C   C727      1.0  0.18251  0.15417  0.56437  1.0000
  H   H581      1.0  0.26036  0.07873  0.48410  1.0000
  C   C728      1.0  0.27930  0.01672  0.44709  1.0000
  H   H582      1.0  0.31773  0.07594  0.54552  1.0000
  C   C729      1.0  0.42610  0.19019  0.57416  1.0000
  H   H583      1.0  0.15669  0.05335  0.42987  1.0000
  C   C730      1.0  0.29367  0.01844  0.43474  1.0000
  H   H584      1.0  0.31597  0.13459  0.39327  1.0000
  C   C731      1.0  0.33119  0.12683  0.51590  1.0000
  C   C732      1.0  0.03216  0.27348  0.39088  1.0000
  C   C733      1.0  0.27944  0.01875  0.41399  1.0000
  C   C734      1.0  0.48411  0.19087  0.52525  1.0000
  C   C735      1.0  0.29953  0.09313  0.47933  1.0000
  H   H585      1.0  0.19804  0.02738  0.48375  1.0000
  C   C736      1.0  0.14324  0.10555  0.44592  1.0000
  C   C737      1.0  0.22389  0.05607  0.38470  1.0000
  H   H586      1.0  0.22043  0.01710  0.40558  1.0000
  C   C738      1.0  0.30299  0.10020  0.49041  1.0000
  C   C739      1.0  0.33485  0.08635  0.52415  1.0000
  C   C740      1.0  0.21014  0.09605  0.46388  1.0000
  C   C741      1.0  0.18452  0.13706  0.56974  1.0000
  H   H587      1.0  0.14882  0.06825  0.45252  1.0000
  C   C742      1.0  0.21023  0.11101  0.45242  1.0000
  H   H588      1.0  0.35523  0.09375  0.50486  1.0000
  C   C743      1.0  0.99530  0.14921  0.43056  1.0000
  C   C744      1.0  0.29947  0.10326  0.52829  1.0000
  H   H589      1.0  0.22093  0.08970  0.46903  1.0000
  H   H590      1.0  0.18948  0.11394  0.56242  1.0000
  H   H591      1.0  0.31104  0.16515  0.38430  1.0000
  C   C745      1.0  0.37340  0.31828  0.55213  1.0000
  H   H592      1.0  0.33077  0.12082  0.52874  1.0000
  C   C746      1.0  0.32359  0.07103  0.48226  1.0000
  H   H593      1.0  0.44515  0.19168  0.51029  1.0000
  C   C747      1.0  0.01251  0.22067  0.40262  1.0000
  H   H594      1.0  0.33733  0.07153  0.49930  1.0000
  H   H595      1.0  0.15990  0.04531  0.52874  1.0000
  C   C748      1.0  0.18899  0.07192  0.43838  1.0000
  C   C749      1.0  0.16083  0.05301  0.51643  1.0000
  C   C750      1.0  0.19631  0.08899  0.46836  1.0000
  C   C751      1.0  0.44625  0.14683  0.57138  1.0000
  C   C752      1.0  0.38947  0.31106  0.54497  1.0000
  C   C753      1.0  0.27263  0.03545  0.47314  1.0000
  H   H596      1.0  0.28229  0.04834  0.44851  1.0000
  H   H597      1.0  0.47326  0.25954  0.48915  1.0000
  H   H598      1.0  0.46952  0.33789  0.52117  1.0000
  C   C754      1.0  0.45780  0.30208  0.57363  1.0000
  H   H599      1.0  0.22415  0.00510  0.49886  1.0000
  C   C755      1.0  0.16129  0.06960  0.51385  1.0000
  C   C756      1.0  0.45820  0.18235  0.53011  1.0000
  C   C757      1.0  0.30006  0.00615  0.47186  1.0000
  H   H600      1.0  0.40540  0.27770  0.57531  1.0000
  H   H601      1.0  0.29437  0.47397  0.49066  1.0000
  C   C758      1.0  0.27061  0.48036  0.53506  1.0000
  C   C759      1.0  0.03706  0.21630  0.41987  1.0000
  C   C760      1.0  0.36219  0.27417  0.57496  1.0000
  H   H602      1.0  0.37557  0.46132  0.57558  1.0000
  H   H603      1.0  0.47764  0.28334  0.56455  1.0000
  H   H604      1.0  0.33162  0.05981  0.47893  1.0000
  C   C761      1.0  0.16222  0.04621  0.50303  1.0000
  H   H605      1.0  0.35685  0.12319  0.38626  1.0000
  H   H606      1.0  0.18516  0.05043  0.41247  1.0000
  H   H607      1.0  0.30472  0.01948  0.43769  1.0000
  C   C762      1.0  0.11215  0.15214  0.40411  1.0000
  H   H608      1.0  0.20579  0.06219  0.41811  1.0000
  H   H609      1.0  0.48383  0.31718  0.54678  1.0000
  C   C763      1.0  0.10103  0.14696  0.39855  1.0000
  C   C764      1.0  0.24903  0.19409  0.39363  1.0000
  H   H610      1.0  0.27454  0.47039  0.54489  1.0000
  C   C765      1.0  0.33706  0.14967  0.49322  1.0000
  H   H611      1.0  0.16037  0.07493  0.52415  1.0000
  C   C766      1.0  0.42970  0.15072  0.57019  1.0000
  H   H612      1.0  0.28280  0.18177  0.38512  1.0000
  H   H613      1.0  0.29944  0.02271  0.48703  1.0000
  H   H614      1.0  0.25347  0.01575  0.45162  1.0000
  C   C767      1.0  0.19332  0.06355  0.42555  1.0000
  H   H615      1.0  0.47500  0.35742  0.56911  1.0000
  C   C768      1.0  0.00904  0.13072  0.41196  1.0000
  H   H616      1.0  0.44853  0.17643  0.53839  1.0000
  C   C769      1.0  0.16324  0.07932  0.49790  1.0000
  H   H617      1.0  0.30724  0.07337  0.46632  1.0000
  C   C770      1.0  0.24764  0.22745  0.39174  1.0000
  H   H618      1.0  0.49270  0.22601  0.51466  1.0000
  C   C771      1.0  0.23320  0.14803  0.44163  1.0000
  H   H619      1.0  0.19860  0.01979  0.57520  1.0000
  C   C772      1.0  0.29377  0.01923  0.41831  1.0000
  C   C773      1.0  0.01884  0.20496  0.41127  1.0000
  C   C774      1.0  0.27415  0.14340  0.39825  1.0000
  C   C775      1.0  0.22554  0.24329  0.57534  1.0000
  C   C776      1.0  0.18587  0.09219  0.38396  1.0000
  C   C777      1.0  0.24824  0.00912  0.48525  1.0000
  P   P24       1.0  0.27936  0.01515  0.46842  1.0000
  H   H620      1.0  0.45572  0.22550  0.56825  1.0000
  C   C778      1.0  0.33231  0.99214  0.47691  1.0000
  H   H621      1.0  0.21390  0.17540  0.40497  1.0000
  C   C779      1.0  0.32685  0.07782  0.49371  1.0000
  H   H622      1.0  0.35328  0.20272  0.40310  1.0000
  C   C780      1.0  0.30985  0.07860  0.47517  1.0000
  C   C781      1.0  0.46410  0.31506  0.52084  1.0000
  C   C782      1.0  0.45224  0.25958  0.57240  1.0000
  S   S121      1.0  0.48294  0.26723  0.51449  1.0000
  C   C783      1.0  0.47218  0.18214  0.53552  1.0000
  H   H623      1.0  0.02087  0.13634  0.42814  1.0000
  H   H624      1.0  0.16242  0.03322  0.50501  1.0000
  C   C784      1.0  0.26387  0.06667  0.48104  1.0000
  H   H625      1.0  0.32368  0.12256  0.48067  1.0000
  H   H626      1.0  0.15603  0.16438  0.53446  1.0000
  H   H627      1.0  0.47591  0.31093  0.51299  1.0000
  C   C785      1.0  0.47285  0.29070  0.57378  1.0000
  C   C786      1.0  0.15080  0.02991  0.57921  1.0000
  H   H628      1.0  0.45558  0.29332  0.52287  1.0000
  C   C787      1.0  0.20937  0.16090  0.42943  1.0000
  C   C788      1.0  0.26066  0.05281  0.49325  1.0000
  C   C789      1.0  0.33890  0.48184  0.47544  1.0000
  H   H629      1.0  0.03553  0.24229  0.41149  1.0000
  P   P25       1.0  0.31923  0.10069  0.51388  1.0000
  H   H630      1.0  0.15584  0.00355  0.58170  1.0000
  H   H631      1.0  0.15659  0.03230  0.56621  1.0000
  C   C790      1.0  0.27162  0.06497  0.46494  1.0000
  C   C791      1.0  0.24859  0.22040  0.57031  1.0000
  H   H632      1.0  0.27938  0.01994  0.40117  1.0000
  H   H633      1.0  0.12889  0.17243  0.52682  1.0000
  H   H634      1.0  0.42173  0.19799  0.56341  1.0000
  C   C792      1.0  0.47538  0.21129  0.55313  1.0000
  C   C793      1.0  0.44536  0.33521  0.53585  1.0000
  C   C794      1.0  0.31646  0.09244  0.49795  1.0000
  H   H635      1.0  0.40878  0.30886  0.57539  1.0000
  H   H636      1.0  0.29532  0.48065  0.52094  1.0000
  H   H637      1.0  0.17956  0.16188  0.57323  1.0000
  C   C795      1.0  0.42996  0.27978  0.56115  1.0000
  P   P26       1.0  0.42281  0.29641  0.54494  1.0000
  C   C796      1.0  0.43725  0.30998  0.53692  1.0000
  C   C797      1.0  0.42091  0.28724  0.52930  1.0000
  C   C798      1.0  0.41263  0.27421  0.53402  1.0000
  C   C799      1.0  0.41001  0.26768  0.52209  1.0000
  C   C800      1.0  0.41584  0.27385  0.50538  1.0000
  C   C801      1.0  0.42393  0.28695  0.50055  1.0000
  C   C802      1.0  0.42622  0.29384  0.51244  1.0000
  C   C803      1.0  0.40242  0.30750  0.55327  1.0000
  H   H638      1.0  0.23848  0.14066  0.45203  1.0000
  H   H639      1.0  0.25649  0.15223  0.42668  1.0000
  H   H640      1.0  0.02017  0.12284  0.40644  1.0000
  H   H641      1.0  0.40796  0.26920  0.54690  1.0000
  H   H642      1.0  0.40377  0.25754  0.52580  1.0000
  H   H643      1.0  0.41425  0.26828  0.49625  1.0000
  H   H644      1.0  0.42845  0.29173  0.48758  1.0000
  H   H645      1.0  0.43199  0.30433  0.50837  1.0000
  H   H646      1.0  0.47338  0.17574  0.54797  1.0000
  H   H647      1.0  0.04906  0.28795  0.39068  1.0000
  H   H648      1.0  0.26258  0.02667  0.49909  1.0000
  C   C804      1.0  0.18991  0.14669  0.40036  1.0000
  H   H649      1.0  0.37686  0.07425  0.51857  1.0000
  C   C805      1.0  0.35955  0.06414  0.53961  1.0000
  C   C806      1.0  0.28184  0.17336  0.42711  1.0000
  C   C807      1.0  0.27182  0.18902  0.42752  1.0000
  H   H650      1.0  0.36339  0.32044  0.54594  1.0000
  C   C808      1.0  0.29596  0.20103  0.41615  1.0000
  C   C809      1.0  0.30618  0.18523  0.41580  1.0000
  C   C810      1.0  0.29890  0.17145  0.42125  1.0000
  P   P27       1.0  0.32845  0.18267  0.40987  1.0000
  C   C811      1.0  0.33634  0.18189  0.42751  1.0000
  C   C812      1.0  0.33775  0.16388  0.40226  1.0000
  C   C813      1.0  0.33880  0.14847  0.41334  1.0000
  C   C814      1.0  0.34564  0.13388  0.40756  1.0000
  C   C815      1.0  0.33600  0.46651  0.47598  1.0000
  C   C816      1.0  0.27883  0.20289  0.42189  1.0000
  H   H651      1.0  0.19550  0.08846  0.39095  1.0000
  C   C817      1.0  0.35208  0.17231  0.42940  1.0000
  C   C818      1.0  0.35840  0.17227  0.44272  1.0000
  C   C819      1.0  0.34916  0.18192  0.45413  1.0000
  C   C820      1.0  0.33357  0.19155  0.45226  1.0000
  C   C821      1.0  0.32721  0.19161  0.43899  1.0000
  C   C822      1.0  0.46831  0.21837  0.56686  1.0000
  C   C823      1.0  0.26493  0.01637  0.44260  1.0000
  C   C824      1.0  0.16131  0.06691  0.44511  1.0000
  C   C825      1.0  0.33649  0.14173  0.50974  1.0000
  H   H652      1.0  0.19666  0.07707  0.47675  1.0000
  H   H653      1.0  0.15442  0.22200  0.38843  1.0000
  H   H654      1.0  0.27648  0.16260  0.43182  1.0000
  H   H655      1.0  0.25870  0.19031  0.43276  1.0000
  C   C826      1.0  0.31994  0.46373  0.48152  1.0000
  C   C827      1.0  0.24103  0.21763  0.40655  1.0000
  H   H656      1.0  0.30626  0.15910  0.42142  1.0000
  H   H657      1.0  0.33413  0.14772  0.42647  1.0000
  H   H658      1.0  0.34618  0.12203  0.41616  1.0000
  H   H659      1.0  0.24347  0.02188  0.47998  1.0000
  C   C828      1.0  0.30663  0.01241  0.48148  1.0000
  H   H660      1.0  0.27098  0.21499  0.42270  1.0000
  H   H661      1.0  0.35957  0.16500  0.42053  1.0000
  H   H662      1.0  0.37052  0.16485  0.44415  1.0000
  H   H663      1.0  0.35406  0.18206  0.46438  1.0000
  H   H664      1.0  0.32642  0.19908  0.46108  1.0000
  H   H665      1.0  0.31521  0.19936  0.43772  1.0000
  C   C829      1.0  0.27113  0.16073  0.39362  1.0000
  C   C830      1.0  0.13576  0.10548  0.47508  1.0000
  C   C831      1.0  0.21619  0.15105  0.44274  1.0000
  S   S122      1.0  0.24850  0.08072  0.39506  1.0000
  C   C832      1.0  0.15358  0.17502  0.48848  1.0000
  C   C833      1.0  0.13912  0.17601  0.50076  1.0000
  C   C834      1.0  0.14011  0.17211  0.51731  1.0000
  C   C835      1.0  0.15556  0.16745  0.52157  1.0000
  C   C836      1.0  0.17013  0.16651  0.50923  1.0000
  C   C837      1.0  0.16899  0.17015  0.49269  1.0000
  P   P28       1.0  0.19024  0.16093  0.51425  1.0000
  C   C838      1.0  0.19901  0.17890  0.50946  1.0000
  C   C839      1.0  0.21111  0.17882  0.51756  1.0000
  C   C840      1.0  0.21850  0.19234  0.51355  1.0000
  C   C841      1.0  0.21408  0.20596  0.50121  1.0000
  C   C842      1.0  0.20199  0.20619  0.49313  1.0000
  C   C843      1.0  0.19445  0.19274  0.49722  1.0000
  C   C844      1.0  0.20353  0.14620  0.50232  1.0000
  C   C845      1.0  0.19695  0.13445  0.49926  1.0000
  C   C846      1.0  0.20715  0.12243  0.49077  1.0000
  C   C847      1.0  0.22405  0.12212  0.48514  1.0000
  C   C848      1.0  0.23064  0.13407  0.48774  1.0000
  C   C849      1.0  0.22046  0.14603  0.49639  1.0000
  H   H666      1.0  0.15291  0.17788  0.47567  1.0000
  H   H667      1.0  0.12718  0.17938  0.49744  1.0000
  H   H668      1.0  0.18002  0.16928  0.48300  1.0000
  H   H669      1.0  0.21512  0.16813  0.52674  1.0000
  H   H670      1.0  0.22799  0.19199  0.51973  1.0000
  H   H671      1.0  0.22027  0.21618  0.49761  1.0000
  H   H672      1.0  0.19882  0.21659  0.48329  1.0000
  H   H673      1.0  0.18542  0.19314  0.49048  1.0000
  H   H674      1.0  0.18395  0.13439  0.50382  1.0000
  H   H675      1.0  0.20194  0.11319  0.48890  1.0000
  H   H676      1.0  0.23206  0.11250  0.47898  1.0000
  C   C850      1.0  0.18247  0.09685  0.46139  1.0000
  H   H677      1.0  0.35759  0.32726  0.57333  1.0000
  C   C851      1.0  0.44690  0.27284  0.56014  1.0000
  H   H678      1.0  0.46534  0.25439  0.57145  1.0000
  C   C852      1.0  0.24964  0.24791  0.55371  1.0000
  C   C853      1.0  0.25702  0.23103  0.55738  1.0000
  C   C854      1.0  0.21832  0.02879  0.39685  1.0000
  P   P29       1.0  0.27741  0.22303  0.54617  1.0000
  C   C855      1.0  0.28195  0.23712  0.52656  1.0000
  C   C856      1.0  0.29277  0.22099  0.55769  1.0000
  C   C857      1.0  0.28832  0.22091  0.57462  1.0000
  H   H679      1.0  0.23025  0.06537  0.38428  1.0000
  C   C858      1.0  0.31704  0.21809  0.57502  1.0000
  C   C859      1.0  0.32151  0.21815  0.55821  1.0000
  C   C860      1.0  0.30945  0.21961  0.54958  1.0000
  C   C861      1.0  0.27836  0.23505  0.51245  1.0000
  C   C862      1.0  0.28192  0.24601  0.49733  1.0000
  C   C863      1.0  0.28902  0.25914  0.49618  1.0000
  C   C864      1.0  0.29249  0.26139  0.51020  1.0000
  C   C865      1.0  0.28892  0.25048  0.52535  1.0000
  C   C866      1.0  0.27779  0.20322  0.54257  1.0000
  C   C867      1.0  0.29222  0.19067  0.54223  1.0000
  C   C868      1.0  0.29232  0.17541  0.53943  1.0000
  C   C869      1.0  0.27806  0.17256  0.53697  1.0000
  C   C870      1.0  0.26369  0.18497  0.53726  1.0000
  C   C871      1.0  0.26355  0.20029  0.53991  1.0000
  C   C872      1.0  0.18425  0.16137  0.54755  1.0000
  H   H680      1.0  0.26402  0.13705  0.40217  1.0000
  H   H681      1.0  0.25462  0.05417  0.50574  1.0000
  H   H682      1.0  0.25592  0.25642  0.54394  1.0000
  C   C873      1.0  0.01617  0.27036  0.39716  1.0000
  H   H683      1.0  0.16047  0.10900  0.57685  1.0000
  H   H684      1.0  0.00100  0.29778  0.42242  1.0000
  H   H685      1.0  0.32647  0.21697  0.58164  1.0000
  H   H686      1.0  0.33435  0.21702  0.55177  1.0000
  H   H687      1.0  0.31315  0.21962  0.53656  1.0000
  H   H688      1.0  0.27323  0.22478  0.51287  1.0000
  H   H689      1.0  0.27962  0.24394  0.48641  1.0000
  H   H690      1.0  0.29203  0.26741  0.48438  1.0000
  H   H691      1.0  0.29813  0.27149  0.50928  1.0000
  H   H692      1.0  0.29171  0.25242  0.53607  1.0000
  H   H693      1.0  0.30350  0.19263  0.54384  1.0000
  H   H694      1.0  0.02908  0.30360  0.41075  1.0000
  H   H695      1.0  0.27817  0.16081  0.53461  1.0000
  H   H696      1.0  0.25269  0.18278  0.53519  1.0000
  H   H697      1.0  0.25239  0.20987  0.53968  1.0000
  H   H698      1.0  0.06828  0.18557  0.39081  1.0000
  H   H699      1.0  0.19634  0.13071  0.43682  1.0000
  C   C874      1.0  0.21957  0.16756  0.41491  1.0000
  H   H700      1.0  0.15210  0.10222  0.43512  1.0000
  H   H701      1.0  0.27413  0.07573  0.45550  1.0000
  H   H702      1.0  0.45523  0.15257  0.56169  1.0000
  H   H703      1.0  0.45117  0.30353  0.56424  1.0000
  C   C875      1.0  0.00504  0.27903  0.40875  1.0000
  H   H704      1.0  0.33283  0.14886  0.47003  1.0000
  H   H705      1.0  0.23558  0.22284  0.41738  1.0000
  C   C876      1.0  0.26509  0.03725  0.48938  1.0000
  H   H706      1.0  0.28887  0.09899  0.47386  1.0000
  C   C877      1.0  0.21776  0.12996  0.39771  1.0000
  H   H707      1.0  0.11212  0.14918  0.41713  1.0000
  C   C878      1.0  0.39905  0.31163  0.56867  1.0000
  C   C879      1.0  0.18171  0.05689  0.42245  1.0000
  H   H708      1.0  0.16397  0.09202  0.49603  1.0000
  C   C880      1.0  0.27610  0.04941  0.46100  1.0000
  H   H709      1.0  0.34620  0.45677  0.47211  1.0000
  C   C881      1.0  0.11639  0.12074  0.45762  1.0000
  P   P30       1.0  0.16667  0.08575  0.46397  1.0000
  C   C882      1.0  0.13486  0.21222  0.38618  1.0000
  H   H710      1.0  0.11189  0.12036  0.48349  1.0000
  H   H711      1.0  0.32704  0.09483  0.43396  1.0000
  H   H712      1.0  0.03592  0.19061  0.42666  1.0000
  C   C883      1.0  0.33256  0.14261  0.48281  1.0000
  H   H713      1.0  0.29922  0.12760  0.53109  1.0000
  H   H714      1.0  0.22594  0.15484  0.49869  1.0000
  H   H715      1.0  0.34002  0.14724  0.51777  1.0000
  H   H716      1.0  0.18162  0.15870  0.39899  1.0000
  C   C884      1.0  0.36393  0.07466  0.52440  1.0000
  H   H717      1.0  0.19610  0.16370  0.43044  1.0000
  C   C885      1.0  0.30075  0.15908  0.38816  1.0000
  C   C886      1.0  0.02552  0.29429  0.40702  1.0000
  H   H718      1.0  0.20820  0.14614  0.45409  1.0000
  H   H719      1.0  0.21966  0.10373  0.40652  1.0000
  C   C887      1.0  0.34287  0.06468  0.54711  1.0000
  C   C888      1.0  0.12046  0.11583  0.47308  1.0000
  H   H720      1.0  0.46811  0.21317  0.54410  1.0000
  H   H721      1.0  0.06645  0.23730  0.39101  1.0000
  H   H722      1.0  0.45138  0.19175  0.56356  1.0000
  C   C889      1.0  0.12786  0.11573  0.44401  1.0000
  C   C890      1.0  0.16393  0.05602  0.48705  1.0000
  C   C891      1.0  0.46050  0.33018  0.52546  1.0000
  C   C892      1.0  0.35164  0.08572  0.51669  1.0000
  C   C893      1.0  0.18816  0.12717  0.55829  1.0000
  H   H723      1.0  0.16533  0.05042  0.47686  1.0000
  H   H724      1.0  0.29502  0.11164  0.49326  1.0000
  C   C894      1.0  0.37013  0.32213  0.56755  1.0000
  H   H725      1.0  0.44269  0.34673  0.53978  1.0000
  H   H726      1.0  0.22826  0.26700  0.55966  1.0000
  C   C895      1.0  0.18998  0.13430  0.54146  1.0000
  C   C896      1.0  0.29290  0.11752  0.53483  1.0000
  C   C897      1.0  0.27762  0.11916  0.54598  1.0000
  C   C898      1.0  0.26870  0.10672  0.55054  1.0000
  C   C899      1.0  0.27498  0.09265  0.54387  1.0000
  C   C900      1.0  0.29026  0.09093  0.53276  1.0000
  H   H727      1.0  0.27230  0.13041  0.55056  1.0000
  H   H728      1.0  0.25656  0.10831  0.55867  1.0000
  H   H729      1.0  0.26766  0.08338  0.54680  1.0000
  H   H730      1.0  0.29473  0.08009  0.52746  1.0000
  H   H731      1.0  0.13143  0.16555  0.39760  1.0000
  H   H732      1.0  0.19832  0.07690  0.44046  1.0000
  Fe  Fe64      1.0  0.04264  0.16696  0.39097  1.0000
  H   H733      1.0  0.18242  0.17467  0.54359  1.0000
  H   H734      1.0  0.12504  0.12012  0.43188  1.0000
  C   C901      1.0  0.17290  0.07376  0.44821  1.0000
  C   C902      1.0  0.00969  0.29102  0.41358  1.0000
  C   C903      1.0  0.16430  0.07273  0.48441  1.0000
  C   C904      1.0  0.18823  0.15146  0.53594  1.0000
  C   C905      1.0  0.16571  0.05853  0.43225  1.0000
  C   C906      1.0  0.19625  0.11920  0.44588  1.0000
  C   C907      1.0  0.30977  0.99274  0.46488  1.0000
  H   H735      1.0  0.39158  0.30792  0.53316  1.0000
  C   C908      1.0  0.24148  0.20107  0.40748  1.0000
  H   H736      1.0  0.25376  0.01755  0.42274  1.0000
  C   C909      1.0  0.18241  0.11214  0.45034  1.0000
  H   H737      1.0  0.01443  0.19440  0.41109  1.0000
  H   H738      1.0  0.17195  0.11833  0.44471  1.0000
  C   C910      1.0  0.32620  0.11987  0.50562  1.0000
  C   C911      1.0  0.33054  0.07574  0.53944  1.0000
  C   C912      1.0  0.23676  0.16417  0.41345  1.0000
  H   H739      1.0  0.12524  0.21966  0.39385  1.0000
  C   C913      1.0  0.32719  0.12773  0.48896  1.0000
  H   H740      1.0  0.30477  0.02084  0.40879  1.0000
  Fe  Fe65      1.0  0.27601  0.07313  0.38815  1.0000
  H   H741      1.0  0.36908  0.05556  0.54557  1.0000
  H   H742      1.0  0.35136  0.48399  0.47115  1.0000
  C   C914      1.0  0.38294  0.31883  0.57578  1.0000
  H   H743      1.0  0.25417  0.20737  0.57350  1.0000
  H   H744      1.0  0.09225  0.14013  0.40729  1.0000
  C   C915      1.0  0.45253  0.30504  0.52652  1.0000
  H   H745      1.0  0.24376  0.13378  0.48348  1.0000
  C   C916      1.0  0.03676  0.28549  0.39570  1.0000
  C   C917      1.0  0.03068  0.23207  0.41131  1.0000
  C   C918      1.0  0.15129  0.21354  0.38311  1.0000
  S   S123      1.0  0.28007  0.09670  0.39124  1.0000
  C   C919      1.0  0.24342  0.15464  0.42712  1.0000
  Fe  Fe66      1.0  0.38946  0.20739  0.56518  1.0000
  C   C920      1.0  0.30678  0.47627  0.48654  1.0000
  H   H746      1.0  0.40564  0.38729  0.56720  1.0000
  C   C921      1.0  0.22641  0.04106  0.39608  1.0000
  H   H747      1.0  0.45610  0.27743  0.54988  1.0000
  C   C922      1.0  0.26527  0.00231  0.48158  1.0000
  C   C923      1.0  0.17016  0.10056  0.39078  1.0000
  H   H748      1.0  0.33946  0.05653  0.55890  1.0000
  S   S124      1.0  0.01674  0.16754  0.38937  1.0000
  H   H749      1.0  0.33998  0.29313  0.57411  1.0000
  H   H750      1.0  0.14551  0.11233  0.38723  1.0000
  C   C924      1.0  0.23393  0.25398  0.56263  1.0000
  H   H751      1.0  0.30357  0.16589  0.53892  1.0000
  H   H752      1.0  0.16773  0.10329  0.40285  1.0000
  C   C925      1.0  0.99453  0.13390  0.40623  1.0000
  C   C926      1.0  0.40348  0.38452  0.58053  1.0000
  C   C927      1.0  0.48251  0.19879  0.50905  1.0000
  H   H753      1.0  0.49170  0.20518  0.50061  1.0000
  H   H754      1.0  0.99576  0.15546  0.43967  1.0000
  S   S125      1.0  0.23905  0.12870  0.39250  1.0000
  H   H755      1.0  0.21194  0.15638  0.38972  1.0000
  C   C928      1.0  0.33328  0.20021  0.39383  1.0000
  C   C929      1.0  0.30354  0.14190  0.39318  1.0000
  H   H756      1.0  0.42279  0.22643  0.58180  1.0000
  H   H757      1.0  0.42578  0.15953  0.55959  1.0000
  C   C930      1.0  0.28233  0.48617  0.52143  1.0000
  C   C931      1.0  0.35164  0.13453  0.39070  1.0000
  C   C932      1.0  0.47734  0.21593  0.57884  1.0000
  H   H758      1.0  0.30491  0.98769  0.45747  1.0000
  H   H759      1.0  0.38463  0.25661  0.57913  1.0000
  H   H760      1.0  0.27558  0.22200  0.58123  1.0000
  C   C933      1.0  0.23288  0.22651  0.57920  1.0000
  H   H761      1.0  0.24473  0.48345  0.54691  1.0000
  C   C934      1.0  0.23725  0.99957  0.49587  1.0000
  H   H762      1.0  0.14432  0.05544  0.58028  1.0000
  C   C935      1.0  0.35023  0.28747  0.58020  1.0000
  C   C936      1.0  0.28461  0.16849  0.38853  1.0000
  H   H763      1.0  0.11803  0.19987  0.38256  1.0000
  H   H764      1.0  0.41419  0.35849  0.58232  1.0000
  H   H765      1.0  0.21335  0.24801  0.58220  1.0000
  H   H766      1.0  0.40512  0.14722  0.58222  1.0000
  Fe  Fe67      1.0  0.46222  0.17921  0.64590  1.0000
  S   S126      1.0  0.47579  0.19170  0.62170  1.0000
  S   S127      1.0  0.43953  0.19241  0.66147  1.0000
  C   C937      1.0  0.24487  0.45210  0.66018  1.0000
  Fe  Fe68      1.0  0.47513  0.16993  0.61259  1.0000
  Fe  Fe69      1.0  0.38479  0.29969  0.62449  1.0000
  S   S128      1.0  0.45982  0.15862  0.63615  1.0000
  C   C938      1.0  0.45834  0.43288  0.70397  1.0000
  S   S129      1.0  0.42025  0.31266  0.63428  1.0000
  C   C939      1.0  0.42314  0.42635  0.63138  1.0000
  C   C940      1.0  0.12922  0.08976  0.59936  1.0000
  S   S130      1.0  0.38618  0.29881  0.65039  1.0000
  C   C941      1.0  0.45929  0.30865  0.59862  1.0000
  Fe  Fe70      1.0  0.39324  0.32344  0.64067  1.0000
  S   S131      1.0  0.38324  0.34450  0.65410  1.0000
  Fe  Fe71      1.0  0.41318  0.28801  0.64228  1.0000
  S   S132      1.0  0.42567  0.26855  0.66116  1.0000
  H   H767      1.0  0.16322  0.05814  0.60078  1.0000
  C   C942      1.0  0.17982  0.01135  0.62230  1.0000
  Fe  Fe72      1.0  0.41581  0.40255  0.68318  1.0000
  S   S133      1.0  0.39315  0.39900  0.70292  1.0000
  S   S134      1.0  0.42941  0.38302  0.66818  1.0000
  Fe  Fe73      1.0  0.41404  0.43689  0.68946  1.0000
  S   S135      1.0  0.39120  0.43556  0.70950  1.0000
  S   S136      1.0  0.42643  0.45886  0.68003  1.0000
  Fe  Fe74      1.0  0.40402  0.40916  0.71783  1.0000
  S   S137      1.0  0.40770  0.39512  0.74324  1.0000
  Fe  Fe75      1.0  0.38298  0.42549  0.69237  1.0000
  S   S138      1.0  0.35771  0.43376  0.68663  1.0000
  S   S139      1.0  0.42753  0.41103  0.69876  1.0000
  S   S140      1.0  0.40495  0.42850  0.67172  1.0000
  C   C943      1.0  0.40988  0.48275  0.69884  1.0000
  Fe  Fe76      1.0  0.48397  0.14489  0.64311  1.0000
  C   C944      1.0  0.02094  0.10978  0.73577  1.0000
  C   C945      1.0  0.02897  0.01902  0.67226  1.0000
  C   C946      1.0  0.48831  0.06216  0.73579  1.0000
  C   C947      1.0  0.18110  0.99969  0.61327  1.0000
  P   P31       1.0  0.42649  0.30775  0.70187  1.0000
  C   C948      1.0  0.44826  0.43411  0.71951  1.0000
  H   H768      1.0  0.09635  0.06935  0.73065  1.0000
  H   H769      1.0  0.34138  0.30304  0.59786  1.0000
  Fe  Fe77      1.0  0.02692  0.01545  0.74957  1.0000
  S   S141      1.0  0.05089  0.01306  0.73097  1.0000
  C   C949      1.0  0.35482  0.40232  0.66512  1.0000
  Fe  Fe78      1.0  0.03119  0.04714  0.75700  1.0000
  S   S142      1.0  0.05530  0.04700  0.73877  1.0000
  Fe  Fe79      1.0  0.04309  0.04046  0.72240  1.0000
  S   S143      1.0  0.04467  0.05347  0.69586  1.0000
  Fe  Fe80      1.0  0.06066  0.01973  0.74934  1.0000
  S   S144      1.0  0.01829  0.04268  0.73975  1.0000
  C   C950      1.0  0.08292  0.02469  0.65985  1.0000
  C   C951      1.0  0.06985  0.03695  0.65459  1.0000
  C   C952      1.0  0.05803  0.04560  0.66575  1.0000
  C   C953      1.0  0.05909  0.04186  0.68228  1.0000
  C   C954      1.0  0.07200  0.02941  0.68762  1.0000
  C   C955      1.0  0.08403  0.02092  0.67639  1.0000
  H   H770      1.0  0.06891  0.03977  0.64185  1.0000
  H   H771      1.0  0.04801  0.05516  0.66158  1.0000
  H   H772      1.0  0.07280  0.02644  0.70036  1.0000
  H   H773      1.0  0.45962  0.99887  0.71980  1.0000
  C   C956      1.0  0.19258  0.02888  0.59744  1.0000
  C   C957      1.0  0.43770  0.17001  0.60186  1.0000
  C   C958      1.0  0.43986  0.30192  0.67029  1.0000
  H   H774      1.0  0.36278  0.38468  0.62624  1.0000
  C   C959      1.0  0.18589  0.02574  0.61445  1.0000
  H   H775      1.0  0.42006  0.45761  0.72357  1.0000
  H   H776      1.0  0.18552  0.03441  0.62157  1.0000
  C   C960      1.0  0.40096  0.21577  0.62105  1.0000
  H   H777      1.0  0.10646  0.12617  0.71420  1.0000
  C   C961      1.0  0.39373  0.40280  0.75986  1.0000
  H   H778      1.0  0.41497  0.25494  0.59730  1.0000
  C   C962      1.0  0.37537  0.26689  0.58305  1.0000
  C   C963      1.0  0.28762  0.45044  0.71911  1.0000
  C   C964      1.0  0.05235  0.99070  0.63045  1.0000
  C   C965      1.0  0.38017  0.41573  0.75733  1.0000
  C   C966      1.0  0.36606  0.40796  0.65092  1.0000
  H   H779      1.0  0.05559  0.06402  0.76470  1.0000
  H   H780      1.0  0.35878  0.43191  0.76872  1.0000
  H   H781      1.0  0.37830  0.42116  0.74497  1.0000
  C   C967      1.0  0.48506  0.34733  0.59113  1.0000
  C   C968      1.0  0.39278  0.39352  0.60651  1.0000
  H   H782      1.0  0.43805  0.09784  0.59578  1.0000
  H   H783      1.0  0.33098  0.44475  0.60230  1.0000
  H   H784      1.0  0.37899  0.44261  0.65497  1.0000
  S   S145      1.0  0.14094  0.00200  0.65699  1.0000
  H   H785      1.0  0.43176  0.29336  0.67348  1.0000
  C   C969      1.0  0.36883  0.45298  0.65672  1.0000
  P   P32       1.0  0.38073  0.21991  0.63414  1.0000
  C   C970      1.0  0.25408  0.46129  0.66367  1.0000
  H   H786      1.0  0.40560  0.31931  0.67721  1.0000
  C   C971      1.0  0.33994  0.25201  0.60660  1.0000
  C   C972      1.0  0.39665  0.35469  0.65789  1.0000
  C   C973      1.0  0.41388  0.35054  0.65261  1.0000
  C   C974      1.0  0.42388  0.35945  0.65556  1.0000
  C   C975      1.0  0.41672  0.37253  0.66377  1.0000
  C   C976      1.0  0.39954  0.37678  0.66877  1.0000
  C   C977      1.0  0.38963  0.36782  0.66594  1.0000
  H   H787      1.0  0.41953  0.34053  0.64629  1.0000
  H   H788      1.0  0.43718  0.35609  0.65168  1.0000
  H   H789      1.0  0.39382  0.38703  0.67478  1.0000
  H   H790      1.0  0.37641  0.37115  0.66994  1.0000
  C   C978      1.0  0.43749  0.21363  0.66025  1.0000
  C   C979      1.0  0.43563  0.22549  0.64568  1.0000
  C   C980      1.0  0.43181  0.24245  0.64573  1.0000
  C   C981      1.0  0.43064  0.24755  0.66016  1.0000
  C   C982      1.0  0.43319  0.23567  0.67448  1.0000
  C   C983      1.0  0.43615  0.21883  0.67463  1.0000
  H   H791      1.0  0.43653  0.22166  0.63454  1.0000
  H   H792      1.0  0.42970  0.25153  0.63466  1.0000
  H   H793      1.0  0.43226  0.23950  0.68567  1.0000
  H   H794      1.0  0.43738  0.20978  0.68596  1.0000
  C   C984      1.0  0.41962  0.32260  0.72872  1.0000
  C   C985      1.0  0.39462  0.45842  0.73561  1.0000
  H   H795      1.0  0.09489  0.08423  0.75182  1.0000
  H   H796      1.0  0.45098  0.32861  0.68582  1.0000
  C   C986      1.0  0.39761  0.29609  0.71628  1.0000
  C   C987      1.0  0.16368  0.08331  0.58900  1.0000
  H   H797      1.0  0.17699  0.08065  0.58454  1.0000
  C   C988      1.0  0.09786  0.09006  0.73889  1.0000
  C   C989      1.0  0.30071  0.38612  0.76039  1.0000
  H   H798      1.0  0.44332  0.47735  0.73418  1.0000
  H   H799      1.0  0.46808  0.27603  0.73506  1.0000
  H   H800      1.0  0.39010  0.26469  0.65330  1.0000
  C   C990      1.0  0.30085  0.48669  0.73382  1.0000
  H   H801      1.0  0.31344  0.44348  0.66840  1.0000
  C   C991      1.0  0.02068  0.03440  0.67594  1.0000
  C   C992      1.0  0.15033  0.01374  0.58789  1.0000
  H   H802      1.0  0.45392  0.31544  0.60833  1.0000
  H   H803      1.0  0.05861  0.07520  0.61982  1.0000
  C   C993      1.0  0.40858  0.43764  0.62846  1.0000
  C   C994      1.0  0.09873  0.05585  0.60800  1.0000
  H   H804      1.0  0.38323  0.25320  0.63358  1.0000
  H   H805      1.0  0.17468  0.00903  0.63541  1.0000
  H   H806      1.0  0.45176  0.30172  0.72103  1.0000
  H   H807      1.0  0.35693  0.20942  0.66420  1.0000
  C   C995      1.0  0.48995  0.04896  0.74930  1.0000
  C   C996      1.0  0.45893  0.41951  0.76912  1.0000
  C   C997      1.0  0.14956  0.08624  0.66741  1.0000
  H   H808      1.0  0.44212  0.16204  0.61246  1.0000
  C   C998      1.0  0.37429  0.17297  0.64172  1.0000
  C   C999      1.0  0.36266  0.17132  0.65665  1.0000
  C   C1000     1.0  0.35649  0.18446  0.66476  1.0000
  C   C1001     1.0  0.36203  0.19921  0.65800  1.0000
  H   H809      1.0  0.43978  0.19354  0.62397  1.0000
  H   H810      1.0  0.41173  0.19873  0.64092  1.0000
  H   H811      1.0  0.37882  0.16301  0.63515  1.0000
  H   H812      1.0  0.35825  0.15997  0.66179  1.0000
  H   H813      1.0  0.34730  0.18329  0.67620  1.0000
  H   H814      1.0  0.38859  0.18890  0.62326  1.0000
  C   C1002     1.0  0.34399  0.35268  0.70127  1.0000
  C   C1003     1.0  0.36071  0.35232  0.69951  1.0000
  C   C1004     1.0  0.36526  0.36264  0.70664  1.0000
  C   C1005     1.0  0.35312  0.37331  0.71561  1.0000
  C   C1006     1.0  0.33626  0.37369  0.71753  1.0000
  C   C1007     1.0  0.33180  0.36333  0.71024  1.0000
  P   P33       1.0  0.32032  0.38765  0.72876  1.0000
  C   C1008     1.0  0.32974  0.40179  0.73311  1.0000
  C   C1009     1.0  0.30559  0.39857  0.71590  1.0000
  C   C1010     1.0  0.31129  0.40505  0.69912  1.0000
  C   C1011     1.0  0.30013  0.41274  0.68879  1.0000
  C   C1012     1.0  0.28315  0.41415  0.69516  1.0000
  C   C1013     1.0  0.27734  0.40790  0.71189  1.0000
  C   C1014     1.0  0.28849  0.40010  0.72223  1.0000
  H   H815      1.0  0.45196  0.26865  0.60230  1.0000
  C   C1015     1.0  0.45244  0.35770  0.60807  1.0000
  C   C1016     1.0  0.34521  0.42303  0.73991  1.0000
  C   C1017     1.0  0.34497  0.40741  0.75011  1.0000
  C   C1018     1.0  0.33735  0.39676  0.74668  1.0000
  C   C1019     1.0  0.31020  0.37701  0.74846  1.0000
  H   H816      1.0  0.40278  0.29084  0.72716  1.0000
  S   S146      1.0  0.41140  0.28725  0.61701  1.0000
  C   C1020     1.0  0.39924  0.31206  0.68824  1.0000
  H   H817      1.0  0.35283  0.40699  0.67611  1.0000
  C   C1021     1.0  0.45639  0.26899  0.62537  1.0000
  H   H818      1.0  0.34054  0.34480  0.69551  1.0000
  H   H819      1.0  0.37016  0.34428  0.69232  1.0000
  H   H820      1.0  0.37824  0.36256  0.70501  1.0000
  H   H821      1.0  0.35706  0.38133  0.72077  1.0000
  H   H822      1.0  0.31888  0.36356  0.71141  1.0000
  H   H823      1.0  0.32440  0.40429  0.69411  1.0000
  H   H824      1.0  0.30467  0.41759  0.67585  1.0000
  H   H825      1.0  0.27448  0.42020  0.68718  1.0000
  H   H826      1.0  0.26416  0.40908  0.71687  1.0000
  H   H827      1.0  0.28368  0.39526  0.73510  1.0000
  H   H828      1.0  0.39460  0.23227  0.59868  1.0000
  H   H829      1.0  0.39016  0.46335  0.72432  1.0000
  H   H830      1.0  0.35094  0.43144  0.74254  1.0000
  H   H831      1.0  0.35068  0.40361  0.76066  1.0000
  H   H832      1.0  0.33748  0.38461  0.75460  1.0000
  C   C1022     1.0  0.48977  0.22328  0.66291  1.0000
  H   H833      1.0  0.34842  0.48218  0.74037  1.0000
  P   P34       1.0  0.43915  0.44365  0.74966  1.0000
  H   H834      1.0  0.45501  0.42706  0.69608  1.0000
  C   C1023     1.0  0.45911  0.27538  0.72869  1.0000
  C   C1024     1.0  0.36071  0.38971  0.63700  1.0000
  C   C1025     1.0  0.09644  0.07429  0.62562  1.0000
  H   H835      1.0  0.02499  0.26904  0.76322  1.0000
  C   C1026     1.0  0.47858  0.27253  0.67958  1.0000
  H   H836      1.0  0.99998  0.19080  0.77165  1.0000
  H   H837      1.0  0.49057  0.99279  0.76243  1.0000
  H   H838      1.0  0.47026  0.31512  0.63883  1.0000
  H   H839      1.0  0.45122  0.29604  0.64652  1.0000
  P   P35       1.0  0.38280  0.40959  0.61803  1.0000
  C   C1027     1.0  0.39861  0.41611  0.62329  1.0000
  C   C1028     1.0  0.39630  0.43254  0.62455  1.0000
  C   C1029     1.0  0.44564  0.25916  0.71977  1.0000
  C   C1030     1.0  0.42539  0.40994  0.63048  1.0000
  C   C1031     1.0  0.41318  0.40479  0.62653  1.0000
  H   H840      1.0  0.48722  0.29401  0.67865  1.0000
  C   C1032     1.0  0.44882  0.00705  0.76981  1.0000
  C   C1033     1.0  0.36293  0.22854  0.60945  1.0000
  C   C1034     1.0  0.38194  0.29404  0.71666  1.0000
  C   C1035     1.0  0.40551  0.36465  0.60619  1.0000
  C   C1036     1.0  0.39777  0.37719  0.61488  1.0000
  C   C1037     1.0  0.36944  0.45229  0.58480  1.0000
  H   H841      1.0  0.39842  0.48082  0.69767  1.0000
  H   H842      1.0  0.43643  0.40106  0.63335  1.0000
  H   H843      1.0  0.41508  0.39191  0.62639  1.0000
  H   H844      1.0  0.42572  0.07357  0.60210  1.0000
  C   C1038     1.0  0.45205  0.44238  0.72947  1.0000
  C   C1039     1.0  0.41950  0.34118  0.70204  1.0000
  H   H845      1.0  0.40921  0.35205  0.61281  1.0000
  H   H846      1.0  0.39559  0.37415  0.62817  1.0000
  H   H847      1.0  0.48017  0.43863  0.68632  1.0000
  H   H848      1.0  0.37029  0.45788  0.75089  1.0000
  C   C1040     1.0  0.41742  0.44810  0.74975  1.0000
  H   H849      1.0  0.48768  0.45231  0.70421  1.0000
  C   C1041     1.0  0.38383  0.22878  0.64940  1.0000
  H   H850      1.0  0.44622  0.27941  0.62730  1.0000
  C   C1042     1.0  0.42076  0.17391  0.60195  1.0000
  H   H851      1.0  0.47017  0.45442  0.73167  1.0000
  C   C1043     1.0  0.10580  0.10519  0.70555  1.0000
  H   H852      1.0  0.13699  0.08298  0.69283  1.0000
  H   H853      1.0  0.43981  0.36147  0.61464  1.0000
  H   H854      1.0  0.41213  0.16922  0.61273  1.0000
  H   H855      1.0  0.44555  0.20741  0.59462  1.0000
  C   C1044     1.0  0.38504  0.24538  0.64541  1.0000
  C   C1045     1.0  0.13406  0.08585  0.64808  1.0000
  C   C1046     1.0  0.09892  0.08161  0.72682  1.0000
  H   H856      1.0  0.43495  0.00627  0.70788  1.0000
  C   C1047     1.0  0.12047  0.08334  0.66104  1.0000
  C   C1048     1.0  0.35385  0.24635  0.62904  1.0000
  C   C1049     1.0  0.38913  0.44915  0.76521  1.0000
  C   C1050     1.0  0.33780  0.42803  0.72636  1.0000
  S   S147      1.0  0.48785  0.11717  0.65213  1.0000
  H   H857      1.0  0.04900  0.11520  0.69079  1.0000
  C   C1051     1.0  0.10051  0.10612  0.73436  1.0000
  H   H858      1.0  0.37796  0.31555  0.67811  1.0000
  C   C1052     1.0  0.29944  0.45825  0.70748  1.0000
  C   C1053     1.0  0.37401  0.20076  0.64324  1.0000
  H   H859      1.0  0.13339  0.05419  0.70315  1.0000
  C   C1054     1.0  0.10306  0.08907  0.71004  1.0000
  S   S148      1.0  0.00888  0.99846  0.75660  1.0000
  C   C1055     1.0  0.47970  0.21401  0.66085  1.0000
  C   C1056     1.0  0.33002  0.41753  0.72296  1.0000
  H   H860      1.0  0.34146  0.43915  0.65099  1.0000
  C   C1057     1.0  0.46156  0.32325  0.66185  1.0000
  S   S149      1.0  0.38878  0.32567  0.61569  1.0000
  H   H861      1.0  0.00409  0.35390  0.77750  1.0000
  C   C1058     1.0  0.41390  0.20488  0.62803  1.0000
  C   C1059     1.0  0.27403  0.44866  0.71439  1.0000
  H   H862      1.0  0.03084  0.99010  0.65021  1.0000
  H   H863      1.0  0.08608  0.04122  0.75354  1.0000
  H   H864      1.0  0.39521  0.21737  0.68648  1.0000
  H   H865      1.0  0.46222  0.34899  0.63001  1.0000
  H   H866      1.0  0.35466  0.24968  0.63993  1.0000
  H   H867      1.0  0.47211  0.25110  0.67717  1.0000
  C   C1060     1.0  0.18795  0.00276  0.59628  1.0000
  C   C1061     1.0  0.36493  0.23277  0.62327  1.0000
  H   H868      1.0  0.22640  0.21822  0.58908  1.0000
  C   C1062     1.0  0.41598  0.35465  0.70938  1.0000
  C   C1063     1.0  0.46173  0.31406  0.65073  1.0000
  C   C1064     1.0  0.40605  0.44551  0.76478  1.0000
  C   C1065     1.0  0.31200  0.35979  0.75228  1.0000
  H   H869      1.0  0.01433  0.02355  0.71777  1.0000
  C   C1066     1.0  0.14304  0.01065  0.60468  1.0000
  H   H870      1.0  0.42041  0.34341  0.68891  1.0000
  C   C1067     1.0  0.33199  0.44948  0.64686  1.0000
  C   C1068     1.0  0.39575  0.39711  0.58921  1.0000
  C   C1069     1.0  0.13846  0.07364  0.60374  1.0000
  C   C1070     1.0  0.42032  0.22065  0.59479  1.0000
  C   C1071     1.0  0.47668  0.44722  0.70849  1.0000
  H   H871      1.0  0.34710  0.42053  0.61820  1.0000
  C   C1072     1.0  0.02683  0.00703  0.70140  1.0000
  C   C1073     1.0  0.15578  0.07056  0.59839  1.0000
  P   P36       1.0  0.12838  0.05671  0.61502  1.0000
  C   C1074     1.0  0.37493  0.30094  0.70284  1.0000
  C   C1075     1.0  0.13705  0.03992  0.60435  1.0000
  C   C1076     1.0  0.10448  0.11368  0.71768  1.0000
  S   S150      1.0  0.36336  0.29239  0.61986  1.0000
  C   C1077     1.0  0.41157  0.45498  0.73520  1.0000
  H   H872      1.0  0.33677  0.47797  0.70612  1.0000
  H   H873      1.0  0.33396  0.46435  0.68467  1.0000
  C   C1078     1.0  0.41587  0.33615  0.73608  1.0000
  H   H874      1.0  0.38834  0.20552  0.66699  1.0000
  H   H875      1.0  0.03366  0.21760  0.74544  1.0000
  H   H876      1.0  0.44196  0.04276  0.73989  1.0000
  H   H877      1.0  0.44631  0.36565  0.58418  1.0000
  C   C1079     1.0  0.13190  0.04974  0.63582  1.0000
  C   C1080     1.0  0.14758  0.04810  0.63877  1.0000
  C   C1081     1.0  0.15049  0.04208  0.65472  1.0000
  C   C1082     1.0  0.13777  0.03763  0.66788  1.0000
  C   C1083     1.0  0.12208  0.03929  0.66515  1.0000
  C   C1084     1.0  0.11919  0.04512  0.64918  1.0000
  H   H878      1.0  0.46890  0.27407  0.69042  1.0000
  H   H879      1.0  0.06733  0.03538  0.78057  1.0000
  C   C1085     1.0  0.08160  0.06037  0.60931  1.0000
  C   C1086     1.0  0.29767  0.46446  0.69118  1.0000
  H   H880      1.0  0.22199  0.99911  0.61211  1.0000
  C   C1087     1.0  0.45701  0.26001  0.72821  1.0000
  C   C1088     1.0  0.43315  0.20998  0.60194  1.0000
  C   C1089     1.0  0.38897  0.25198  0.65655  1.0000
  C   C1090     1.0  0.15439  0.09927  0.58473  1.0000
  C   C1091     1.0  0.43628  0.41115  0.76430  1.0000
  C   C1092     1.0  0.48131  0.34529  0.60836  1.0000
  H   H881      1.0  0.46430  0.24876  0.73426  1.0000
  C   C1093     1.0  0.03654  0.10002  0.73078  1.0000
  C   C1094     1.0  0.38459  0.47603  0.67315  1.0000
  H   H882      1.0  0.15773  0.05109  0.62880  1.0000
  H   H883      1.0  0.16276  0.04042  0.65678  1.0000
  H   H884      1.0  0.14026  0.03215  0.68006  1.0000
  H   H885      1.0  0.11239  0.03522  0.67528  1.0000
  H   H886      1.0  0.10720  0.04538  0.64729  1.0000
  H   H887      1.0  0.41373  0.03182  0.71181  1.0000
  C   C1095     1.0  0.05032  0.10180  0.73515  1.0000
  C   C1096     1.0  0.44353  0.47024  0.78042  1.0000
  C   C1097     1.0  0.42991  0.20201  0.61848  1.0000
  H   H888      1.0  0.41736  0.05001  0.72780  1.0000
  C   C1098     1.0  0.47714  0.03367  0.73830  1.0000
  Fe  Fe81      1.0  0.32078  0.45890  0.76699  1.0000
  C   C1099     1.0  0.48252  0.24201  0.62037  1.0000
  C   C1100     1.0  0.14862  0.08723  0.65126  1.0000
  H   H889      1.0  0.09939  0.11269  0.74381  1.0000
  H   H890      1.0  0.15921  0.08894  0.64121  1.0000
  H   H891      1.0  0.48038  0.07127  0.71281  1.0000
  C   C1101     1.0  0.34323  0.46516  0.67334  1.0000
  C   C1102     1.0  0.45112  0.13621  0.58547  1.0000
  H   H892      1.0  0.40660  0.38565  0.77792  1.0000
  S   S151      1.0  0.09798  0.01476  0.64536  1.0000
  C   C1103     1.0  0.47252  0.43945  0.69845  1.0000
  C   C1104     1.0  0.41495  0.18402  0.58813  1.0000
  C   C1105     1.0  0.45058  0.32173  0.67723  1.0000
  C   C1106     1.0  0.44884  0.17637  0.58798  1.0000
  C   C1107     1.0  0.46657  0.44857  0.72400  1.0000
  H   H893      1.0  0.14285  0.99809  0.61142  1.0000
  H   H894      1.0  0.43741  0.42876  0.72364  1.0000
  C   C1108     1.0  0.32398  0.47456  0.62721  1.0000
  H   H895      1.0  0.06322  0.99756  0.69338  1.0000
  C   C1109     1.0  0.14400  0.04300  0.58733  1.0000
  H   H896      1.0  0.05115  0.39046  0.75983  1.0000
  C   C1110     1.0  0.30430  0.35185  0.76778  1.0000
  C   C1111     1.0  0.37990  0.18765  0.63502  1.0000
  H   H897      1.0  0.41423  0.33430  0.74931  1.0000
  H   H898      1.0  0.09415  0.01154  0.68052  1.0000
  C   C1112     1.0  0.03281  0.12262  0.75007  1.0000
  H   H899      1.0  0.48062  0.18407  0.69593  1.0000
  H   H900      1.0  0.04275  0.09998  0.67345  1.0000
  S   S152      1.0  0.43135  0.32378  0.58653  1.0000
  C   C1113     1.0  0.39179  0.22530  0.67529  1.0000
  C   C1114     1.0  0.42190  0.32503  0.71155  1.0000
  C   C1115     1.0  0.46507  0.35051  0.61675  1.0000
  H   H901      1.0  0.39572  0.24712  0.67989  1.0000
  C   C1116     1.0  0.10461  0.04567  0.76319  1.0000
  C   C1117     1.0  0.27145  0.45691  0.66007  1.0000
  C   C1118     1.0  0.38777  0.21865  0.66421  1.0000
  C   C1119     1.0  0.27019  0.43401  0.64947  1.0000
  C   C1120     1.0  0.38353  0.31001  0.68872  1.0000
  H   H902      1.0  0.28892  0.44603  0.73182  1.0000
  C   C1121     1.0  0.25291  0.43847  0.65308  1.0000
  H   H903      1.0  0.37106  0.21788  0.60499  1.0000
  H   H904      1.0  0.02921  0.99661  0.71141  1.0000
  C   C1122     1.0  0.05506  0.23957  0.77962  1.0000
  H   H905      1.0  0.38992  0.46317  0.67297  1.0000
  H   H906      1.0  0.40663  0.45024  0.62971  1.0000
  C   C1123     1.0  0.48133  0.28849  0.58613  1.0000
  C   C1124     1.0  0.03198  0.00517  0.68501  1.0000
  H   H907      1.0  0.01862  0.04511  0.66609  1.0000
  C   C1125     1.0  0.41420  0.35218  0.72639  1.0000
  H   H908      1.0  0.41145  0.36273  0.73203  1.0000
  H   H909      1.0  0.11521  0.00978  0.72422  1.0000
  C   C1126     1.0  0.40427  0.22371  0.60436  1.0000
  H   H910      1.0  0.18903  0.99372  0.58928  1.0000
  C   C1127     1.0  0.13595  0.08385  0.68039  1.0000
  H   H911      1.0  0.41473  0.36704  0.70183  1.0000
  C   C1128     1.0  0.34662  0.39033  0.66529  1.0000
  S   S153      1.0  0.48505  0.16435  0.65530  1.0000
  C   C1129     1.0  0.37635  0.27283  0.59644  1.0000
  H   H912      1.0  0.06228  0.09387  0.73176  1.0000
  H   H913      1.0  0.34852  0.45925  0.62489  1.0000
  C   C1130     1.0  0.48316  0.19505  0.68680  1.0000
  C   C1131     1.0  0.34153  0.25602  0.62060  1.0000
  C   C1132     1.0  0.47583  0.04690  0.72459  1.0000
  H   H914      1.0  0.30992  0.45964  0.71118  1.0000
  H   H915      1.0  0.24766  0.47184  0.66918  1.0000
  H   H916      1.0  0.32728  0.48366  0.61612  1.0000
  C   C1133     1.0  0.47463  0.29750  0.59855  1.0000
  C   C1134     1.0  0.43797  0.28914  0.71276  1.0000
  C   C1135     1.0  0.04729  0.25128  0.76775  1.0000
  H   H917      1.0  0.32446  0.42187  0.71234  1.0000
  C   C1136     1.0  0.42663  0.03888  0.72604  1.0000
  C   C1137     1.0  0.44973  0.28991  0.72086  1.0000
  C   C1138     1.0  0.38341  0.45537  0.75058  1.0000
  Fe  Fe82      1.0  0.11805  0.99528  0.65573  1.0000
  H   H918      1.0  0.47510  0.24438  0.59789  1.0000
  H   H919      1.0  0.36419  0.47083  0.69312  1.0000
  C   C1139     1.0  0.47582  0.09279  0.60987  1.0000
  C   C1140     1.0  0.47750  0.11924  0.61323  1.0000
  C   C1141     1.0  0.44565  0.48532  0.76975  1.0000
  H   H920      1.0  0.02166  0.18100  0.74886  1.0000
  P   P37       1.0  0.44562  0.11519  0.61666  1.0000
  C   C1142     1.0  0.43650  0.09746  0.62135  1.0000
  C   C1143     1.0  0.43855  0.12474  0.63431  1.0000
  C   C1144     1.0  0.44729  0.11937  0.64705  1.0000
  C   C1145     1.0  0.44210  0.12686  0.66060  1.0000
  C   C1146     1.0  0.42813  0.13977  0.66156  1.0000
  C   C1147     1.0  0.41919  0.14500  0.64909  1.0000
  C   C1148     1.0  0.42427  0.13740  0.63561  1.0000
  H   H921      1.0  0.07270  0.07880  0.77204  1.0000
  C   C1149     1.0  0.13718  0.10249  0.58989  1.0000
  C   C1150     1.0  0.42271  0.06968  0.62838  1.0000
  C   C1151     1.0  0.42498  0.07523  0.64120  1.0000
  C   C1152     1.0  0.43189  0.08904  0.63772  1.0000
  C   C1153     1.0  0.35355  0.42921  0.60887  1.0000
  C   C1154     1.0  0.46647  0.26203  0.63679  1.0000
  H   H922      1.0  0.47082  0.04616  0.71467  1.0000
  C   C1155     1.0  0.02541  0.22077  0.75660  1.0000
  C   C1156     1.0  0.47641  0.19997  0.67280  1.0000
  H   H923      1.0  0.07587  0.99084  0.61330  1.0000
  H   H924      1.0  0.33839  0.38551  0.67643  1.0000
  C   C1157     1.0  0.10631  0.06283  0.61610  1.0000
  H   H925      1.0  0.49087  0.33968  0.61534  1.0000
  H   H926      1.0  0.47167  0.13149  0.61553  1.0000
  H   H927      1.0  0.03152  0.13042  0.75844  1.0000
  H   H928      1.0  0.45833  0.10959  0.64646  1.0000
  H   H929      1.0  0.44933  0.12303  0.67003  1.0000
  H   H930      1.0  0.42449  0.14597  0.67176  1.0000
  H   H931      1.0  0.40852  0.15520  0.64971  1.0000
  H   H932      1.0  0.41718  0.14166  0.62615  1.0000
  C   C1158     1.0  0.46789  0.10853  0.61304  1.0000
  C   C1159     1.0  0.30045  0.21947  0.58324  1.0000
  H   H933      1.0  0.41735  0.05898  0.63110  1.0000
  H   H934      1.0  0.42142  0.06881  0.65386  1.0000
  H   H935      1.0  0.43364  0.09305  0.64782  1.0000
  H   H936      1.0  0.10592  0.04672  0.60088  1.0000
  C   C1160     1.0  0.30797  0.47706  0.63695  1.0000
  C   C1161     1.0  0.43623  0.27366  0.71197  1.0000
  C   C1162     1.0  0.44495  0.42345  0.76226  1.0000
  H   H937      1.0  0.41367  0.12767  0.60680  1.0000
  C   C1163     1.0  0.12122  0.08245  0.67733  1.0000
  H   H938      1.0  0.33815  0.44014  0.71843  1.0000
  H   H939      1.0  0.29932  0.39941  0.75780  1.0000
  C   C1164     1.0  0.42502  0.47339  0.69174  1.0000
  H   H940      1.0  0.23147  0.45563  0.66290  1.0000
  C   C1165     1.0  0.45099  0.30331  0.65503  1.0000
  C   C1166     1.0  0.44061  0.03476  0.73282  1.0000
  H   H941      1.0  0.37234  0.41717  0.65114  1.0000
  C   C1167     1.0  0.45944  0.26265  0.61137  1.0000
  H   H942      1.0  0.37521  0.28711  0.72767  1.0000
  C   C1168     1.0  0.45096  0.31096  0.58606  1.0000
  C   C1169     1.0  0.37006  0.48040  0.68455  1.0000
  C   C1170     1.0  0.01899  0.12141  0.74518  1.0000
  H   H943      1.0  0.13079  0.02104  0.62590  1.0000
  P   P38       1.0  0.10403  0.07839  0.69437  1.0000
  C   C1171     1.0  0.10764  0.05650  0.70322  1.0000
  C   C1172     1.0  0.09469  0.04803  0.70808  1.0000
  C   C1173     1.0  0.09755  0.03123  0.71547  1.0000
  C   C1174     1.0  0.11316  0.02280  0.71833  1.0000
  C   C1175     1.0  0.12602  0.03115  0.71386  1.0000
  C   C1176     1.0  0.12328  0.04796  0.70639  1.0000
  C   C1177     1.0  0.08471  0.08556  0.68745  1.0000
  C   C1178     1.0  0.07309  0.09948  0.69202  1.0000
  C   C1179     1.0  0.05806  0.10471  0.68691  1.0000
  C   C1180     1.0  0.05455  0.09623  0.67709  1.0000
  C   C1181     1.0  0.06609  0.08255  0.67233  1.0000
  C   C1182     1.0  0.08099  0.07706  0.67765  1.0000
  H   H944      1.0  0.10953  0.08200  0.65820  1.0000
  H   H945      1.0  0.10872  0.11127  0.69268  1.0000
  H   H946      1.0  0.08229  0.05427  0.70646  1.0000
  H   H947      1.0  0.08759  0.02468  0.71938  1.0000
  H   H948      1.0  0.05355  0.25310  0.75489  1.0000
  H   H949      1.0  0.13810  0.02443  0.71616  1.0000
  H   H950      1.0  0.07537  0.10622  0.69972  1.0000
  C   C1183     1.0  0.48888  0.28381  0.67289  1.0000
  C   C1184     1.0  0.40650  0.30486  0.70195  1.0000
  H   H951      1.0  0.06317  0.07574  0.66508  1.0000
  H   H952      1.0  0.08942  0.06597  0.67438  1.0000
  H   H953      1.0  0.16090  0.08722  0.66988  1.0000
  C   C1185     1.0  0.27945  0.44319  0.65294  1.0000
  H   H954      1.0  0.11303  0.04760  0.75130  1.0000
  H   H955      1.0  0.36281  0.29933  0.70306  1.0000
  C   C1186     1.0  0.45055  0.01010  0.72159  1.0000
  H   H956      1.0  0.42589  0.41364  0.75850  1.0000
  H   H957      1.0  0.03312  0.01806  0.65950  1.0000
  H   H958      1.0  0.01033  0.10788  0.73266  1.0000
  C   C1187     1.0  0.01511  0.23647  0.75594  1.0000
  H   H959      1.0  0.05901  0.11400  0.74877  1.0000
  C   C1188     1.0  0.35056  0.23823  0.60109  1.0000
  Fe  Fe83      1.0  0.41545  0.31321  0.61001  1.0000
  C   C1189     1.0  0.39218  0.24202  0.67154  1.0000
  H   H960      1.0  0.31942  0.35243  0.74345  1.0000
  C   C1190     1.0  0.00439  0.24090  0.77018  1.0000
  H   H961      1.0  0.13341  0.08644  0.63557  1.0000
  H   H962      1.0  0.42062  0.31030  0.73644  1.0000
  C   C1191     1.0  0.43933  0.31135  0.68140  1.0000
  H   H963      1.0  0.99739  0.22246  0.74056  1.0000
  H   H964      1.0  0.10201  0.07961  0.63216  1.0000
  C   C1192     1.0  0.47996  0.24883  0.63410  1.0000
  H   H965      1.0  0.34947  0.23537  0.59006  1.0000
  C   C1193     1.0  0.13643  0.02367  0.61290  1.0000
  C   C1194     1.0  0.43433  0.09171  0.60852  1.0000
  H   H966      1.0  0.38490  0.44137  0.62286  1.0000
  C   C1195     1.0  0.27246  0.45440  0.69795  1.0000
  S   S154      1.0  0.32855  0.46276  0.73963  1.0000
  C   C1196     1.0  0.37872  0.43852  0.59373  1.0000
  H   H967      1.0  0.33354  0.26693  0.62466  1.0000
  C   C1197     1.0  0.39882  0.48377  0.78041  1.0000
  H   H968      1.0  0.33078  0.25983  0.59971  1.0000
  H   H969      1.0  0.26470  0.44286  0.72351  1.0000
  H   H970      1.0  0.43891  0.01494  0.76405  1.0000
  H   H971      1.0  0.46858  0.19288  0.67121  1.0000
  H   H972      1.0  0.27642  0.42352  0.64385  1.0000
  C   C1198     1.0  0.28445  0.46212  0.68616  1.0000
  H   H973      1.0  0.26189  0.45284  0.69457  1.0000
  H   H974      1.0  0.01546  0.24526  0.74426  1.0000
  C   C1199     1.0  0.44124  0.39531  0.77353  1.0000
  S   S155      1.0  0.01975  0.06754  0.77128  1.0000
  H   H975      1.0  0.00923  0.04801  0.69519  1.0000
  C   C1200     1.0  0.33597  0.46078  0.63214  1.0000
  C   C1201     1.0  0.36921  0.40157  0.63679  1.0000
  S   S156      1.0  0.20060  0.04673  0.58816  1.0000
  H   H976      1.0  0.38036  0.44712  0.77685  1.0000
  H   H977      1.0  0.42779  0.27276  0.70510  1.0000
  H   H978      1.0  0.47174  0.22095  0.58974  1.0000
  C   C1202     1.0  0.36416  0.28600  0.60176  1.0000
  H   H979      1.0  0.30576  0.33855  0.77072  1.0000
  C   C1203     1.0  0.01154  0.17469  0.75465  1.0000
  C   C1204     1.0  0.07190  0.07187  0.61869  1.0000
  C   C1205     1.0  0.41803  0.14377  0.58300  1.0000
  H   H980      1.0  0.49285  0.07305  0.73472  1.0000
  C   C1206     1.0  0.30392  0.46595  0.65196  1.0000
  C   C1207     1.0  0.35661  0.45186  0.67123  1.0000
  C   C1208     1.0  0.49320  0.20422  0.68895  1.0000
  H   H981      1.0  0.48607  0.02468  0.76103  1.0000
  C   C1209     1.0  0.34960  0.38401  0.65125  1.0000
  C   C1210     1.0  0.43947  0.12919  0.59845  1.0000
  H   H982      1.0  0.07177  0.08767  0.63418  1.0000
  C   C1211     1.0  0.42741  0.07790  0.61205  1.0000
  H   H983      1.0  0.29280  0.43959  0.64993  1.0000
  C   C1212     1.0  0.04847  0.11315  0.74471  1.0000
  C   C1213     1.0  0.44201  0.45978  0.75755  1.0000
  C   C1214     1.0  0.44373  0.47508  0.74703  1.0000
  C   C1215     1.0  0.99927  0.18028  0.76751  1.0000
  H   H984      1.0  0.06745  0.36166  0.76148  1.0000
  C   C1216     1.0  0.07932  0.07884  0.62683  1.0000
  C   C1217     1.0  0.43654  0.01425  0.71483  1.0000
  H   H985      1.0  0.46997  0.33152  0.65863  1.0000
  C   C1218     1.0  0.01115  0.16063  0.74978  1.0000
  C   C1219     1.0  0.45611  0.36009  0.59091  1.0000
  H   H986      1.0  0.38615  0.26687  0.60302  1.0000
  H   H987      1.0  0.46621  0.42862  0.76706  1.0000
  C   C1220     1.0  0.10908  0.04637  0.77731  1.0000
  C   C1221     1.0  0.36770  0.46742  0.64433  1.0000
  C   C1222     1.0  0.31608  0.45208  0.65677  1.0000
  H   H988      1.0  0.44420  0.24726  0.71915  1.0000
  H   H989      1.0  0.24575  0.43143  0.65027  1.0000
  C   C1223     1.0  0.34433  0.44294  0.59984  1.0000
  C   C1224     1.0  0.01839  0.02234  0.70505  1.0000
  C   C1225     1.0  0.48053  0.25946  0.67209  1.0000
  H   H990      1.0  0.03784  0.09068  0.72400  1.0000
  H   H991      1.0  0.43243  0.43018  0.63491  1.0000
  C   C1226     1.0  0.04407  0.98932  0.64698  1.0000
  H   H992      1.0  0.02821  0.29408  0.77321  1.0000
  S   S157      1.0  0.08632  0.00824  0.75348  1.0000
  C   C1227     1.0  0.08941  0.04204  0.76446  1.0000
  H   H993      1.0  0.30659  0.47111  0.68249  1.0000
  H   H994      1.0  0.47433  0.21752  0.65008  1.0000
  C   C1228     1.0  0.47240  0.24904  0.60894  1.0000
  C   C1229     1.0  0.19338  0.01748  0.58831  1.0000
  H   H995      1.0  0.46391  0.13391  0.58623  1.0000
  H   H996      1.0  0.11588  0.09254  0.60262  1.0000
  C   C1230     1.0  0.36916  0.42176  0.77078  1.0000
  P   P39       1.0  0.28319  0.46885  0.66469  1.0000
  S   S158      1.0  0.03724  0.02017  0.76880  1.0000
  C   C1231     1.0  0.99537  0.14390  0.71974  1.0000
  C   C1232     1.0  0.40833  0.36829  0.58902  1.0000
  C   C1233     1.0  0.04974  0.07369  0.77143  1.0000
  H   H997      1.0  0.07584  0.05474  0.60323  1.0000
  H   H998      1.0  0.17040  0.99935  0.67274  1.0000
  C   C1234     1.0  0.39633  0.39591  0.77587  1.0000
  H   H999      1.0  0.18315  0.13144  0.58275  1.0000
  H   H1000     1.0  0.44480  0.24286  0.59534  1.0000
  C   C1235     1.0  0.42290  0.13292  0.59700  1.0000
  H   H1001     1.0  0.46878  0.08432  0.60950  1.0000
  C   C1236     1.0  0.43974  0.47666  0.69263  1.0000
  H   H1002     1.0  0.34363  0.37436  0.65151  1.0000
  H   H1003     1.0  0.37711  0.46831  0.63309  1.0000
  C   C1237     1.0  0.03127  0.26034  0.77244  1.0000
  C   C1238     1.0  0.46531  0.00475  0.76092  1.0000
  H   H1004     1.0  0.29510  0.48275  0.74661  1.0000
  H   H1005     1.0  0.48113  0.29563  0.60823  1.0000
  S   S159      1.0  0.33677  0.46574  0.77940  1.0000
  H   H1006     1.0  0.02086  0.15644  0.73989  1.0000
  S   S160      1.0  0.47000  0.17219  0.58782  1.0000
  H   H1007     1.0  0.41036  0.44062  0.77611  1.0000
  S   S161      1.0  0.39378  0.18890  0.58836  1.0000
  C   C1239     1.0  0.02499  0.20909  0.77146  1.0000
  H   H1008     1.0  0.40344  0.48447  0.65317  1.0000
  P   P40       1.0  0.47067  0.01501  0.73950  1.0000
  S   S162      1.0  0.03817  0.18948  0.77080  1.0000
  H   H1009     1.0  0.17626  0.99242  0.70061  1.0000
  C   C1240     1.0  0.45271  0.02037  0.73058  1.0000
  H   H1010     1.0  0.46371  0.26712  0.64758  1.0000
  C   C1241     1.0  0.03394  0.29827  0.78056  1.0000
  C   C1242     1.0  0.42459  0.02863  0.71704  1.0000
  H   H1011     1.0  0.45146  0.47001  0.68672  1.0000
  P   P41       1.0  0.99854  0.13307  0.75247  1.0000
  C   C1243     1.0  0.48127  0.06113  0.72344  1.0000
  C   C1244     1.0  0.37083  0.42695  0.60597  1.0000
  C   C1245     1.0  0.44148  0.45758  0.77440  1.0000
  C   C1246     1.0  0.29487  0.36101  0.77956  1.0000
  C   C1247     1.0  0.48729  0.00161  0.72822  1.0000
  C   C1248     1.0  0.29310  0.37814  0.77587  1.0000
  H   H1012     1.0  0.29700  0.21945  0.59628  1.0000
  H   H1013     1.0  0.05469  0.27751  0.78072  1.0000
  C   C1249     1.0  0.44072  0.25306  0.58575  1.0000
  C   C1250     1.0  0.47779  0.99455  0.76898  1.0000
  C   C1251     1.0  0.35225  0.45453  0.58789  1.0000
  C   C1252     1.0  0.46376  0.40369  0.77848  1.0000
  C   C1253     1.0  0.04821  0.35099  0.77945  1.0000
  H   H1014     1.0  0.38021  0.32139  0.58792  1.0000
  C   C1254     1.0  0.08820  0.99500  0.77257  1.0000
  H   H1015     1.0  0.06748  0.23263  0.77582  1.0000
  C   C1255     1.0  0.06942  0.98977  0.62608  1.0000
  C   C1256     1.0  0.07875  0.03880  0.77987  1.0000
  H   H1016     1.0  0.07238  0.18289  0.77329  1.0000
  C   C1257     1.0  0.45489  0.39160  0.78072  1.0000
  C   C1258     1.0  0.48438  0.03479  0.75058  1.0000
  C   C1259     1.0  0.04586  0.38032  0.76801  1.0000
  C   C1260     1.0  0.99859  0.15188  0.75796  1.0000
  C   C1261     1.0  0.05502  0.36410  0.76892  1.0000
  C   C1262     1.0  0.49306  0.08773  0.60736  1.0000
  C   C1263     1.0  0.31714  0.47921  0.72758  1.0000
  H   H1017     1.0  0.04555  0.99246  0.62104  1.0000
  C   C1264     1.0  0.17988  0.98865  0.67614  1.0000
  C   C1265     1.0  0.01534  0.03605  0.69233  1.0000
  C   C1266     1.0  0.35105  0.29314  0.59365  1.0000
  H   H1018     1.0  0.12095  0.04898  0.77638  1.0000
  H   H1019     1.0  0.05557  0.33855  0.78002  1.0000
  C   C1267     1.0  0.32436  0.48411  0.71096  1.0000
  C   C1268     1.0  0.02988  0.38346  0.77768  1.0000
  H   H1020     1.0  0.00866  0.14273  0.71651  1.0000
  H   H1021     1.0  0.11481  0.98877  0.76566  1.0000
  C   C1269     1.0  0.42388  0.25986  0.58685  1.0000
  H   H1022     1.0  0.13001  0.11476  0.58602  1.0000
  C   C1270     1.0  0.05941  0.08224  0.77542  1.0000
  C   C1271     1.0  0.35428  0.48073  0.64644  1.0000
  H   H1023     1.0  0.02279  0.39604  0.77703  1.0000
  H   H1024     1.0  0.43466  0.38582  0.77480  1.0000
  C   C1272     1.0  0.34207  0.47962  0.66097  1.0000
  H   H1025     1.0  0.39203  0.43699  0.59122  1.0000
  C   C1273     1.0  0.03249  0.07781  0.77605  1.0000
  S   S163      1.0  0.14124  0.98863  0.70465  1.0000
  H   H1026     1.0  0.45081  0.48691  0.65408  1.0000
  C   C1274     1.0  0.07818  0.98751  0.63823  1.0000
  H   H1027     1.0  0.49265  0.23163  0.61818  1.0000
  C   C1275     1.0  0.49286  0.25755  0.65779  1.0000
  S   S164      1.0  0.32262  0.43318  0.78220  1.0000
  C   C1276     1.0  0.47239  0.35522  0.58243  1.0000
  H   H1028     1.0  0.39208  0.40954  0.58238  1.0000
  H   H1029     1.0  0.11225  0.40219  0.91304  1.0000
  C   C1277     1.0  0.04833  0.30898  0.79995  1.0000
  C   C1278     1.0  0.18846  0.35386  0.96699  1.0000
  H   H1030     1.0  0.02469  0.19699  0.92915  1.0000
  H   H1031     1.0  0.00405  0.26827  0.90041  1.0000
  P   P42       1.0  0.38312  0.47072  0.81218  1.0000
  Fe  Fe84      1.0  0.21548  0.42911  0.88832  1.0000
  S   S165      1.0  0.23178  0.40404  0.89383  1.0000
  S   S166      1.0  0.22347  0.45000  0.86798  1.0000
  Fe  Fe85      1.0  0.18948  0.42147  0.91965  1.0000
  S   S167      1.0  0.20355  0.39582  0.92776  1.0000
  S   S168      1.0  0.16591  0.43309  0.93506  1.0000
  Fe  Fe86      1.0  0.22572  0.40729  0.91975  1.0000
  S   S169      1.0  0.24433  0.40291  0.93520  1.0000
  Fe  Fe87      1.0  0.20826  0.39478  0.90109  1.0000
  S   S170      1.0  0.20885  0.37147  0.89368  1.0000
  S   S171      1.0  0.21117  0.43309  0.91380  1.0000
  S   S172      1.0  0.19225  0.41972  0.89346  1.0000
  Fe  Fe88      1.0  0.17365  0.28909  0.95828  1.0000
  C   C1279     1.0  0.16010  0.44115  0.96470  1.0000
  H   H1032     1.0  0.19478  0.42632  0.97509  1.0000
  Fe  Fe89      1.0  0.14441  0.28163  0.94864  1.0000
  S   S173      1.0  0.12771  0.30510  0.95481  1.0000
  S   S174      1.0  0.13883  0.26426  0.93560  1.0000
  Fe  Fe90      1.0  0.14916  0.31723  0.94210  1.0000
  S   S175      1.0  0.14448  0.34242  0.92538  1.0000
  C   C1280     1.0  0.10236  0.99110  0.82714  1.0000
  S   S176      1.0  0.16543  0.29429  0.93444  1.0000
  S   S177      1.0  0.29151  0.33222  0.94172  1.0000
  Fe  Fe91      1.0  0.06767  0.23926  0.90343  1.0000
  S   S178      1.0  0.08104  0.23595  0.87776  1.0000
  S   S179      1.0  0.07461  0.25045  0.92142  1.0000
  Fe  Fe92      1.0  0.03648  0.23012  0.90019  1.0000
  S   S180      1.0  0.04727  0.22667  0.87449  1.0000
  S   S181      1.0  0.00977  0.22853  0.91186  1.0000
  Fe  Fe93      1.0  0.07027  0.21332  0.88359  1.0000
  S   S182      1.0  0.08419  0.19052  0.87335  1.0000
  Fe  Fe94      1.0  0.05700  0.24926  0.87030  1.0000
  S   S183      1.0  0.05584  0.26646  0.84564  1.0000
  S   S184      1.0  0.05895  0.21517  0.91009  1.0000
  S   S185      1.0  0.04411  0.25426  0.89528  1.0000
  Fe  Fe95      1.0  0.04278  0.14884  0.82523  1.0000
  C   C1281     1.0  0.03218  0.33126  0.85494  1.0000
  S   S186      1.0  0.04833  0.14942  0.84932  1.0000
  Fe  Fe96      1.0  0.01496  0.14385  0.81311  1.0000
  H   H1033     1.0  0.99710  0.28942  0.86304  1.0000
  C   C1282     1.0  0.03208  0.35402  0.78906  1.0000
  Fe  Fe97      1.0  0.05007  0.12939  0.79792  1.0000
  C   C1283     1.0  0.13533  0.39401  0.94188  1.0000
  H   H1034     1.0  0.06741  0.28698  0.79805  1.0000
  H   H1035     1.0  0.33212  0.34556  0.90028  1.0000
  S   S187      1.0  0.03548  0.12606  0.82396  1.0000
  S   S188      1.0  0.02052  0.16641  0.81665  1.0000
  H   H1036     1.0  0.28107  0.45325  0.85604  1.0000
  H   H1037     1.0  0.26839  0.34340  0.88628  1.0000
  C   C1284     1.0  0.01438  0.13171  0.87237  1.0000
  H   H1038     1.0  0.06434  0.29283  0.90543  1.0000
  P   P43       1.0  0.02329  0.33724  0.80306  1.0000
  C   C1285     1.0  0.10257  0.28479  0.88087  1.0000
  H   H1039     1.0  0.37033  0.44024  0.83058  1.0000
  C   C1286     1.0  0.20910  0.30554  0.90873  1.0000
  H   H1040     1.0  0.13454  0.41692  0.89645  1.0000
  H   H1041     1.0  0.21098  0.30735  0.96324  1.0000
  H   H1042     1.0  0.99496  0.14739  0.93975  1.0000
  H   H1043     1.0  0.01058  0.26465  0.79259  1.0000
  H   H1044     1.0  0.38804  0.39726  0.80150  1.0000
  H   H1045     1.0  0.34243  0.43611  0.84437  1.0000
  H   H1046     1.0  0.13946  0.34977  0.96068  1.0000
  H   H1047     1.0  0.25648  0.45691  0.87889  1.0000
  H   H1048     1.0  0.24877  0.43253  0.89973  1.0000
  C   C1287     1.0  0.07424  0.99202  0.78484  1.0000
  H   H1049     1.0  0.06088  0.00215  0.82150  1.0000
  H   H1050     1.0  0.10984  0.27664  0.87270  1.0000
  H   H1051     1.0  0.33832  0.40077  0.81081  1.0000
  C   C1288     1.0  0.00076  0.08163  0.82894  1.0000
  C   C1289     1.0  0.09325  0.00384  0.85073  1.0000
  C   C1290     1.0  0.08202  0.19281  0.81034  1.0000
  C   C1291     1.0  0.31617  0.36663  0.88815  1.0000
  Fe  Fe98      1.0  0.33645  0.44092  0.79618  1.0000
  C   C1292     1.0  0.23453  0.44256  0.95201  1.0000
  C   C1293     1.0  0.06168  0.07990  0.82558  1.0000
  C   C1294     1.0  0.03539  0.27278  0.84309  1.0000
  C   C1295     1.0  0.03184  0.27409  0.82782  1.0000
  C   C1296     1.0  0.01570  0.28097  0.82524  1.0000
  H   H1052     1.0  0.02759  0.36062  0.82018  1.0000
  C   C1297     1.0  0.03075  0.24606  0.80086  1.0000
  C   C1298     1.0  0.02270  0.27766  0.85598  1.0000
  H   H1053     1.0  0.04159  0.26982  0.81805  1.0000
  C   C1299     1.0  0.21122  0.28138  0.97237  1.0000
  H   H1054     1.0  0.02534  0.27649  0.86783  1.0000
  C   C1300     1.0  0.05773  0.16406  0.85210  1.0000
  C   C1301     1.0  0.07494  0.16229  0.84748  1.0000
  C   C1302     1.0  0.08288  0.17091  0.85359  1.0000
  C   C1303     1.0  0.07369  0.18159  0.86416  1.0000
  C   C1304     1.0  0.05643  0.18402  0.86807  1.0000
  C   C1305     1.0  0.04857  0.17497  0.86242  1.0000
  H   H1055     1.0  0.08224  0.15347  0.84006  1.0000
  H   H1056     1.0  0.09623  0.16887  0.85055  1.0000
  H   H1057     1.0  0.04919  0.19184  0.87652  1.0000
  H   H1058     1.0  0.03544  0.17570  0.86691  1.0000
  C   C1306     1.0  0.30402  0.38112  0.88988  1.0000
  S   S189      1.0  0.15907  0.31320  0.96468  1.0000
  C   C1307     1.0  0.12069  0.26122  0.93141  1.0000
  C   C1308     1.0  0.10471  0.26671  0.94019  1.0000
  C   C1309     1.0  0.09085  0.26345  0.93681  1.0000
  C   C1310     1.0  0.09268  0.25467  0.92461  1.0000
  C   C1311     1.0  0.10865  0.24938  0.91566  1.0000
  C   C1312     1.0  0.12251  0.25256  0.91911  1.0000
  H   H1059     1.0  0.10306  0.27316  0.94983  1.0000
  H   H1060     1.0  0.07862  0.26758  0.94388  1.0000
  H   H1061     1.0  0.11036  0.24260  0.90628  1.0000
  H   H1062     1.0  0.13478  0.24814  0.91228  1.0000
  C   C1313     1.0  0.25460  0.28944  0.93658  1.0000
  H   H1063     1.0  0.26495  0.40462  0.89747  1.0000
  H   H1064     1.0  0.01300  0.28220  0.81340  1.0000
  C   C1314     1.0  0.19087  0.36367  0.90297  1.0000
  C   C1315     1.0  0.19225  0.34699  0.91086  1.0000
  C   C1316     1.0  0.17802  0.34044  0.91801  1.0000
  C   C1317     1.0  0.16240  0.35044  0.91675  1.0000
  C   C1318     1.0  0.16103  0.36707  0.90864  1.0000
  C   C1319     1.0  0.17522  0.37377  0.90203  1.0000
  H   H1065     1.0  0.20433  0.33925  0.91176  1.0000
  H   H1066     1.0  0.17912  0.32768  0.92449  1.0000
  H   H1067     1.0  0.14897  0.37484  0.90771  1.0000
  H   H1068     1.0  0.17410  0.38664  0.89589  1.0000
  C   C1320     1.0  0.25805  0.38363  0.93628  1.0000
  C   C1321     1.0  0.26151  0.37479  0.92392  1.0000
  C   C1322     1.0  0.27230  0.35922  0.92525  1.0000
  C   C1323     1.0  0.27911  0.35222  0.93923  1.0000
  C   C1324     1.0  0.27569  0.36111  0.95152  1.0000
  C   C1325     1.0  0.26552  0.37695  0.94983  1.0000
  H   H1069     1.0  0.25582  0.37986  0.91339  1.0000
  H   H1070     1.0  0.27493  0.35248  0.91570  1.0000
  H   H1071     1.0  0.28101  0.35585  0.96229  1.0000
  H   H1072     1.0  0.26316  0.38385  0.95926  1.0000
  C   C1326     1.0  0.16573  0.42831  0.95624  1.0000
  H   H1073     1.0  0.99445  0.15126  0.97485  1.0000
  H   H1074     1.0  0.31978  0.36247  0.87668  1.0000
  C   C1327     1.0  0.17017  0.41199  0.96492  1.0000
  H   H1075     1.0  0.15665  0.45374  0.95806  1.0000
  C   C1328     1.0  0.14800  0.40210  0.93231  1.0000
  H   H1076     1.0  0.17449  0.40199  0.95845  1.0000
  C   C1329     1.0  0.26455  0.43482  0.82507  1.0000
  C   C1330     1.0  0.25359  0.42449  0.83396  1.0000
  C   C1331     1.0  0.24101  0.42902  0.84725  1.0000
  C   C1332     1.0  0.23910  0.44410  0.85139  1.0000
  C   C1333     1.0  0.24970  0.45471  0.84210  1.0000
  C   C1334     1.0  0.26259  0.44996  0.82913  1.0000
  C   C1335     1.0  0.03675  0.00745  0.81648  1.0000
  H   H1077     1.0  0.23269  0.42093  0.85422  1.0000
  H   H1078     1.0  0.24814  0.46646  0.84519  1.0000
  H   H1079     1.0  0.27093  0.45806  0.82223  1.0000
  C   C1336     1.0  0.02457  0.03624  0.80715  1.0000
  C   C1337     1.0  0.02358  0.01966  0.81137  1.0000
  H   H1080     1.0  0.01188  0.10698  0.87499  1.0000
  C   C1338     1.0  0.05089  0.01183  0.81745  1.0000
  C   C1339     1.0  0.05201  0.02848  0.81313  1.0000
  C   C1340     1.0  0.03876  0.04064  0.80792  1.0000
  P   P44       1.0  0.07006  0.03460  0.81426  1.0000
  C   C1341     1.0  0.05189  0.09543  0.78344  1.0000
  C   C1342     1.0  0.06238  0.05189  0.82435  1.0000
  C   C1343     1.0  0.06800  0.06666  0.81762  1.0000
  H   H1081     1.0  0.06602  0.09130  0.82028  1.0000
  S   S190      1.0  0.31378  0.44984  0.81440  1.0000
  C   C1344     1.0  0.04357  0.06416  0.84668  1.0000
  C   C1345     1.0  0.04994  0.05084  0.83883  1.0000
  C   C1346     1.0  0.12930  0.41558  0.96920  1.0000
  C   C1347     1.0  0.34440  0.44850  0.83884  1.0000
  C   C1348     1.0  0.00072  0.21541  0.90614  1.0000
  C   C1349     1.0  0.23624  0.30845  0.90924  1.0000
  C   C1350     1.0  0.41088  0.42441  0.80890  1.0000
  C   C1351     1.0  0.08283  0.01761  0.82583  1.0000
  C   C1352     1.0  0.08337  0.01726  0.84203  1.0000
  H   H1082     1.0  0.01447  0.04568  0.80293  1.0000
  H   H1083     1.0  0.38737  0.43885  0.80421  1.0000
  C   C1353     1.0  0.38593  0.48624  0.82095  1.0000
  Fe  Fe99      1.0  0.31290  0.47431  0.79620  1.0000
  H   H1084     1.0  0.09567  0.16489  0.78575  1.0000
  H   H1085     1.0  0.10071  0.38763  0.98043  1.0000
  H   H1086     1.0  0.43769  0.43729  0.82254  1.0000
  C   C1354     1.0  0.26593  0.28773  0.94630  1.0000
  H   H1087     1.0  0.03392  0.06331  0.85778  1.0000
  H   H1088     1.0  0.04513  0.03971  0.84399  1.0000
  C   C1355     1.0  0.23890  0.31509  0.89218  1.0000
  H   H1089     1.0  0.07698  0.06825  0.80610  1.0000
  C   C1356     1.0  0.04952  0.07866  0.84011  1.0000
  H   H1090     1.0  0.09359  0.00355  0.86324  1.0000
  C   C1357     1.0  0.28077  0.31808  0.91115  1.0000
  H   H1091     1.0  0.07627  0.02727  0.84801  1.0000
  C   C1358     1.0  0.12215  0.40228  0.91846  1.0000
  H   H1092     1.0  0.01403  0.20444  0.79749  1.0000
  C   C1359     1.0  0.02826  0.34861  0.82839  1.0000
  C   C1360     1.0  0.02612  0.31283  0.78614  1.0000
  C   C1361     1.0  0.08306  0.03968  0.79409  1.0000
  C   C1362     1.0  0.12173  0.36993  0.97036  1.0000
  C   C1363     1.0  0.15622  0.29085  0.89894  1.0000
  C   C1364     1.0  0.16629  0.30228  0.89455  1.0000
  C   C1365     1.0  0.15917  0.31917  0.89233  1.0000
  C   C1366     1.0  0.14204  0.32462  0.89395  1.0000
  C   C1367     1.0  0.13192  0.31320  0.89765  1.0000
  C   C1368     1.0  0.13909  0.29628  0.90076  1.0000
  P   P45       1.0  0.10978  0.32024  0.90005  1.0000
  C   C1369     1.0  0.10187  0.32346  0.92083  1.0000
  C   C1370     1.0  0.10516  0.33933  0.88537  1.0000
  C   C1371     1.0  0.11534  0.34188  0.86953  1.0000
  C   C1372     1.0  0.11183  0.35672  0.85814  1.0000
  C   C1373     1.0  0.09802  0.36900  0.86242  1.0000
  C   C1374     1.0  0.08761  0.36639  0.87804  1.0000
  C   C1375     1.0  0.09110  0.35156  0.88945  1.0000
  C   C1376     1.0  0.10389  0.33743  0.92480  1.0000
  C   C1377     1.0  0.09761  0.34019  0.94078  1.0000
  C   C1378     1.0  0.08938  0.32897  0.95294  1.0000
  C   C1379     1.0  0.08784  0.31474  0.94923  1.0000
  C   C1380     1.0  0.09429  0.31187  0.93331  1.0000
  C   C1381     1.0  0.10048  0.30610  0.89533  1.0000
  C   C1382     1.0  0.10959  0.29612  0.88404  1.0000
  C   C1383     1.0  0.08383  0.30542  0.90238  1.0000
  H   H1093     1.0  0.16155  0.27771  0.90173  1.0000
  H   H1094     1.0  0.17947  0.29798  0.89376  1.0000
  H   H1095     1.0  0.16680  0.32804  0.88998  1.0000
  H   H1096     1.0  0.13670  0.33770  0.89274  1.0000
  H   H1097     1.0  0.13147  0.28720  0.90488  1.0000
  H   H1098     1.0  0.12604  0.33243  0.86602  1.0000
  H   H1099     1.0  0.11987  0.35870  0.84603  1.0000
  H   H1100     1.0  0.09538  0.38054  0.85363  1.0000
  H   H1101     1.0  0.07687  0.37588  0.88134  1.0000
  H   H1102     1.0  0.08285  0.34968  0.90145  1.0000
  H   H1103     1.0  0.11064  0.34602  0.91565  1.0000
  H   H1104     1.0  0.09963  0.35077  0.94383  1.0000
  H   H1105     1.0  0.08480  0.33092  0.96540  1.0000
  H   H1106     1.0  0.08217  0.30564  0.95884  1.0000
  H   H1107     1.0  0.09361  0.30047  0.93087  1.0000
  H   H1108     1.0  0.12221  0.29686  0.87785  1.0000
  H   H1109     1.0  0.07629  0.31344  0.91057  1.0000
  H   H1110     1.0  0.29752  0.42552  0.85361  1.0000
  C   C1384     1.0  0.08629  0.28360  0.88863  1.0000
  H   H1111     1.0  0.05403  0.31284  0.80758  1.0000
  C   C1385     1.0  0.29676  0.31841  0.90176  1.0000
  H   H1112     1.0  0.01335  0.15761  0.86930  1.0000
  C   C1386     1.0  0.03018  0.31782  0.85021  1.0000
  H   H1113     1.0  0.26321  0.24974  0.97050  1.0000
  H   H1114     1.0  0.11261  0.38776  0.94187  1.0000
  C   C1387     1.0  0.03464  0.09929  0.78836  1.0000
  C   C1388     1.0  0.14759  0.41045  0.91605  1.0000
  P   P46       1.0  0.29354  0.39216  0.87320  1.0000
  C   C1389     1.0  0.13471  0.41052  0.90910  1.0000
  H   H1115     1.0  0.15729  0.41692  0.90892  1.0000
  C   C1390     1.0  0.32319  0.35702  0.90147  1.0000
  H   H1116     1.0  0.03112  0.30583  0.85858  1.0000
  H   H1117     1.0  0.30936  0.39987  0.81253  1.0000
  C   C1391     1.0  0.33534  0.39689  0.83710  1.0000
  H   H1118     1.0  0.08102  0.27440  0.88665  1.0000
  H   H1119     1.0  0.03621  0.14683  0.89201  1.0000
  H   H1120     1.0  0.25498  0.41284  0.83074  1.0000
  P   P47       1.0  0.13569  0.38388  0.96308  1.0000
  H   H1121     1.0  0.24588  0.44648  0.94519  1.0000
  C   C1392     1.0  0.09839  0.04332  0.79271  1.0000
  H   H1122     1.0  0.07219  0.24955  0.79715  1.0000
  H   H1123     1.0  0.27721  0.27252  0.96636  1.0000
  C   C1393     1.0  0.20664  0.44094  0.95299  1.0000
  H   H1124     1.0  0.44319  0.46849  0.79340  1.0000
  H   H1125     1.0  0.15812  0.40210  0.93749  1.0000
  H   H1126     1.0  0.24403  0.25202  0.95273  1.0000
  C   C1394     1.0  0.00675  0.28500  0.85325  1.0000
  C   C1395     1.0  0.33350  0.47791  0.83222  1.0000
  H   H1127     1.0  0.03609  0.99456  0.81948  1.0000
  H   H1128     1.0  0.01068  0.37304  0.79577  1.0000
  S   S191      1.0  0.20111  0.27957  0.95784  1.0000
  C   C1396     1.0  0.41389  0.45183  0.81831  1.0000
  C   C1397     1.0  0.33103  0.46199  0.83966  1.0000
  P   P48       1.0  0.25087  0.30810  0.92094  1.0000
  C   C1398     1.0  0.18307  0.35678  0.95241  1.0000
  C   C1399     1.0  0.04887  0.28901  0.78472  1.0000
  H   H1129     1.0  0.19629  0.44369  0.94707  1.0000
  H   H1130     1.0  0.19744  0.30215  0.91530  1.0000
  H   H1131     1.0  0.22184  0.45386  0.93202  1.0000
  C   C1400     1.0  0.25037  0.26187  0.95076  1.0000
  C   C1401     1.0  0.02512  0.19478  0.94200  1.0000
  H   H1132     1.0  0.02556  0.30920  0.83121  1.0000
  H   H1133     1.0  0.20082  0.34682  0.96787  1.0000
  H   H1134     1.0  0.43224  0.00101  0.79325  1.0000
  Fe  Fe100     1.0  0.13888  0.29935  0.97701  1.0000
  C   C1402     1.0  0.02648  0.18948  0.97504  1.0000
  H   H1135     1.0  0.40970  0.41390  0.80504  1.0000
  C   C1403     1.0  0.03555  0.11835  0.97039  1.0000
  H   H1136     1.0  0.27095  0.29195  0.89392  1.0000
  C   C1404     1.0  0.24720  0.27615  0.93862  1.0000
  C   C1405     1.0  0.26750  0.35632  0.88045  1.0000
  C   C1406     1.0  0.30332  0.30949  0.88930  1.0000
  C   C1407     1.0  0.15637  0.37218  0.96466  1.0000
  C   C1408     1.0  0.11634  0.34302  0.97338  1.0000
  H   H1137     1.0  0.13345  0.41996  0.95610  1.0000
  C   C1409     1.0  0.10529  0.37515  0.97849  1.0000
  H   H1138     1.0  0.02407  0.24426  0.81358  1.0000
  H   H1139     1.0  0.23047  0.30755  0.98003  1.0000
  H   H1140     1.0  0.06475  0.15038  0.88771  1.0000
  H   H1141     1.0  0.01271  0.01630  0.81039  1.0000
  C   C1410     1.0  0.28274  0.41284  0.87565  1.0000
  H   H1142     1.0  0.24214  0.38864  0.86067  1.0000
  C   C1411     1.0  0.24290  0.32655  0.92918  1.0000
  H   H1143     1.0  0.29005  0.39579  0.83933  1.0000
  H   H1144     1.0  0.01548  0.18627  0.84043  1.0000
  C   C1412     1.0  0.05608  0.29438  0.79440  1.0000
  Fe  Fe101     1.0  0.03686  0.16697  0.79149  1.0000
  H   H1145     1.0  0.04455  0.08906  0.84607  1.0000
  S   S192      1.0  0.29228  0.29401  0.97914  1.0000
  C   C1413     1.0  0.16707  0.36581  0.95127  1.0000
  C   C1414     1.0  0.02930  0.20426  0.96416  1.0000
  C   C1415     1.0  0.26480  0.38983  0.86594  1.0000
  C   C1416     1.0  0.31371  0.39791  0.82371  1.0000
  C   C1417     1.0  0.25277  0.38177  0.86592  1.0000
  H   H1146     1.0  0.24427  0.35904  0.87390  1.0000
  H   H1147     1.0  0.27603  0.32462  0.92108  1.0000
  C   C1418     1.0  0.05967  0.16006  0.90947  1.0000
  H   H1148     1.0  0.32318  0.35411  0.92708  1.0000
  C   C1419     1.0  0.32998  0.39855  0.82274  1.0000
  C   C1420     1.0  0.29394  0.30006  0.88642  1.0000
  H   H1149     1.0  0.23889  0.27664  0.93107  1.0000
  H   H1150     1.0  0.06960  0.21112  0.84136  1.0000
  H   H1151     1.0  0.03051  0.21846  0.93925  1.0000
  C   C1421     1.0  0.03114  0.34668  0.84407  1.0000
  C   C1422     1.0  0.25399  0.36506  0.87337  1.0000
  H   H1152     1.0  0.29017  0.39711  0.90689  1.0000
  C   C1423     1.0  0.28723  0.42676  0.86403  1.0000
  H   H1153     1.0  0.30409  0.32535  0.90449  1.0000
  C   C1424     1.0  0.31827  0.36188  0.91654  1.0000
  C   C1425     1.0  0.36028  0.45093  0.83066  1.0000
  H   H1154     1.0  0.03265  0.35711  0.84777  1.0000
  C   C1426     1.0  0.39817  0.43857  0.80853  1.0000
  H   H1155     1.0  0.10151  0.17098  0.80981  1.0000
  C   C1427     1.0  0.26904  0.27344  0.95843  1.0000
  H   H1156     1.0  0.28981  0.35731  0.88613  1.0000
  C   C1428     1.0  0.38435  0.47886  0.79040  1.0000
  H   H1157     1.0  0.28593  0.38527  0.78506  1.0000
  C   C1429     1.0  0.22684  0.31665  0.88347  1.0000
  H   H1158     1.0  0.21798  0.30067  0.93084  1.0000
  H   H1159     1.0  0.07202  0.16229  0.90709  1.0000
  H   H1160     1.0  0.23851  0.34247  0.90585  1.0000
  C   C1430     1.0  0.39941  0.45229  0.81352  1.0000
  H   H1161     1.0  0.43929  0.44621  0.78290  1.0000
  C   C1431     1.0  0.27794  0.29966  0.89592  1.0000
  C   C1432     1.0  0.22670  0.37147  0.98080  1.0000
  C   C1433     1.0  0.09256  0.00450  0.81840  1.0000
  C   C1434     1.0  0.30661  0.37652  0.91821  1.0000
  C   C1435     1.0  0.29950  0.38612  0.90497  1.0000
  H   H1162     1.0  0.22849  0.36784  0.91648  1.0000
  H   H1163     1.0  0.03941  0.05354  0.80442  1.0000
  C   C1436     1.0  0.00325  0.28675  0.83790  1.0000
  H   H1164     1.0  0.22882  0.32205  0.87038  1.0000
  C   C1437     1.0  0.03324  0.31831  0.79592  1.0000
  C   C1438     1.0  0.22102  0.44666  0.94454  1.0000
  C   C1439     1.0  0.12242  0.39407  0.93482  1.0000
  H   H1165     1.0  0.02863  0.10931  0.79466  1.0000
  C   C1440     1.0  0.07688  0.29401  0.89926  1.0000
  H   H1166     1.0  0.31578  0.30963  0.88212  1.0000
  H   H1167     1.0  0.20256  0.31322  0.88503  1.0000
  P   P49       1.0  0.01721  0.16467  0.94533  1.0000
  C   C1441     1.0  0.30278  0.39550  0.83903  1.0000
  H   H1168     1.0  0.24568  0.31478  0.95410  1.0000
  H   H1169     1.0  0.23612  0.39356  0.97344  1.0000
  Fe  Fe102     1.0  0.29978  0.44409  0.79899  1.0000
  C   C1442     1.0  0.00582  0.11991  0.87277  1.0000
  C   C1443     1.0  0.42661  0.43762  0.81870  1.0000
  C   C1444     1.0  0.42509  0.42391  0.81402  1.0000
  C   C1445     1.0  0.06540  0.19938  0.78996  1.0000
  C   C1446     1.0  0.03165  0.16178  0.92614  1.0000
  H   H1170     1.0  0.10215  0.04357  0.80361  1.0000
  C   C1447     1.0  0.02212  0.17997  0.95285  1.0000
  C   C1448     1.0  0.01919  0.14524  0.96013  1.0000
  H   H1171     1.0  0.43495  0.41293  0.81423  1.0000
  C   C1449     1.0  0.12703  0.35394  0.96739  1.0000
  H   H1172     1.0  0.22618  0.36694  0.94589  1.0000
  C   C1450     1.0  0.02099  0.21722  0.85427  1.0000
  C   C1451     1.0  0.01437  0.20431  0.85379  1.0000
  C   C1452     1.0  0.02053  0.19641  0.84058  1.0000
  C   C1453     1.0  0.03351  0.20121  0.82790  1.0000
  C   C1454     1.0  0.04040  0.21401  0.82840  1.0000
  C   C1455     1.0  0.03379  0.22225  0.84148  1.0000
  P   P50       1.0  0.05636  0.22095  0.81147  1.0000
  C   C1456     1.0  0.06956  0.22940  0.81848  1.0000
  C   C1457     1.0  0.09166  0.17909  0.80402  1.0000
  C   C1458     1.0  0.23788  0.34171  0.91871  1.0000
  C   C1459     1.0  0.27825  0.38128  0.87329  1.0000
  C   C1460     1.0  0.07581  0.24321  0.80868  1.0000
  C   C1461     1.0  0.08684  0.24902  0.81378  1.0000
  C   C1462     1.0  0.09187  0.24095  0.82856  1.0000
  C   C1463     1.0  0.08575  0.22719  0.83831  1.0000
  C   C1464     1.0  0.07440  0.22164  0.83348  1.0000
  C   C1465     1.0  0.04669  0.23661  0.79622  1.0000
  C   C1466     1.0  0.44496  0.99916  0.78643  1.0000
  C   C1467     1.0  0.22702  0.29623  0.98066  1.0000
  C   C1468     1.0  0.32444  0.39447  0.85248  1.0000
  H   H1173     1.0  0.27216  0.29758  0.94475  1.0000
  H   H1174     1.0  0.02357  0.19908  0.89770  1.0000
  H   H1175     1.0  0.01606  0.22343  0.86450  1.0000
  C   C1469     1.0  0.00594  0.14211  0.97341  1.0000
  C   C1470     1.0  0.36281  0.46691  0.82277  1.0000
  H   H1176     1.0  0.03817  0.19483  0.81782  1.0000
  H   H1177     1.0  0.03848  0.23258  0.84180  1.0000
  H   H1178     1.0  0.19130  0.35208  0.94196  1.0000
  C   C1471     1.0  0.00403  0.22938  0.78528  1.0000
  C   C1472     1.0  0.37218  0.41536  0.78668  1.0000
  H   H1179     1.0  0.09141  0.25983  0.80639  1.0000
  H   H1180     1.0  0.10027  0.24550  0.83265  1.0000
  H   H1181     1.0  0.08970  0.22083  0.84970  1.0000
  H   H1182     1.0  0.34784  0.39793  0.83618  1.0000
  C   C1473     1.0  0.22093  0.30441  0.91752  1.0000
  C   C1474     1.0  0.02639  0.33509  0.82349  1.0000
  C   C1475     1.0  0.02508  0.09031  0.78490  1.0000
  C   C1476     1.0  0.06895  0.20325  0.80321  1.0000
  C   C1477     1.0  0.23194  0.35617  0.92474  1.0000
  C   C1478     1.0  0.27794  0.44261  0.86537  1.0000
  C   C1479     1.0  0.26119  0.26056  0.96073  1.0000
  H   H1183     1.0  0.00982  0.18053  0.89119  1.0000
  C   C1480     1.0  0.27965  0.36434  0.88034  1.0000
  C   C1481     1.0  0.30810  0.39357  0.85357  1.0000
  H   H1184     1.0  0.29915  0.29284  0.87702  1.0000
  H   H1185     1.0  0.99354  0.12788  0.78836  1.0000
  C   C1482     1.0  0.02754  0.15552  0.91473  1.0000
  S   S193      1.0  0.35961  0.42403  0.80330  1.0000
  C   C1483     1.0  0.20577  0.43112  0.96889  1.0000
  C   C1484     1.0  0.12432  0.42694  0.97940  1.0000
  C   C1485     1.0  0.05557  0.15342  0.89849  1.0000
  S   S194      1.0  0.05961  0.15050  0.80004  1.0000
  S   S195      1.0  0.28062  0.42850  0.80899  1.0000
  C   C1486     1.0  0.26410  0.44470  0.87824  1.0000
  C   C1487     1.0  0.01432  0.21337  0.78591  1.0000
  H   H1186     1.0  0.23456  0.34019  0.96467  1.0000
  C   C1488     1.0  0.23549  0.34061  0.95184  1.0000
  C   C1489     1.0  0.27112  0.30903  0.90808  1.0000
  C   C1490     1.0  0.04786  0.16404  0.92335  1.0000
  H   H1187     1.0  0.30253  0.38011  0.93002  1.0000
  H   H1188     1.0  0.23603  0.36567  0.97162  1.0000
  H   H1189     1.0  0.24998  0.31961  0.88566  1.0000
  C   C1491     1.0  0.25966  0.43096  0.88990  1.0000
  C   C1492     1.0  0.21201  0.31173  0.89172  1.0000
  C   C1493     1.0  0.03947  0.15138  0.90097  1.0000
  H   H1190     1.0  0.32863  0.39376  0.86343  1.0000
  H   H1191     1.0  0.05149  0.16876  0.93190  1.0000
  H   H1192     1.0  0.03458  0.32969  0.86702  1.0000
  C   C1494     1.0  0.23362  0.43288  0.96802  1.0000
  H   H1193     1.0  0.12072  0.33049  0.97170  1.0000
  C   C1495     1.0  0.12934  0.39880  0.97602  1.0000
  H   H1194     1.0  0.26342  0.40289  0.86061  1.0000
  H   H1195     1.0  0.08472  0.19495  0.82098  1.0000
  C   C1496     1.0  0.23066  0.35564  0.94131  1.0000
  C   C1497     1.0  0.21911  0.42728  0.97664  1.0000
  C   C1498     1.0  0.26887  0.41512  0.88856  1.0000
  C   C1499     1.0  0.01023  0.20171  0.89968  1.0000
  C   C1500     1.0  0.02852  0.20692  0.94768  1.0000
  C   C1501     1.0  0.24173  0.32615  0.94579  1.0000
  C   C1502     1.0  0.02715  0.31975  0.83463  1.0000
  H   H1196     1.0  0.05489  0.20664  0.78475  1.0000
  H   H1197     1.0  0.09239  0.00448  0.80589  1.0000
  C   C1503     1.0  0.00942  0.09183  0.83162  1.0000
  C   C1504     1.0  0.38576  0.40237  0.78921  1.0000
  C   C1505     1.0  0.16189  0.36908  0.97929  1.0000
  H   H1198     1.0  0.45875  0.37926  0.78777  1.0000
  H   H1199     1.0  0.01184  0.09313  0.78893  1.0000
  H   H1200     1.0  0.99452  0.32867  0.82867  1.0000
  H   H1201     1.0  0.02703  0.12795  0.87398  1.0000
  Fe  Fe103     1.0  0.28661  0.32130  0.96886  1.0000
  S   S196      1.0  0.02910  0.14610  0.78708  1.0000
  H   H1202     1.0  0.16307  0.36779  0.93995  1.0000
  H   H1203     1.0  0.04453  0.13545  0.94874  1.0000
  H   H1204     1.0  0.99567  0.25594  0.83807  1.0000
  H   H1205     1.0  0.35964  0.47719  0.79069  1.0000
  H   H1206     1.0  0.40913  0.48276  0.78574  1.0000
  H   H1207     1.0  0.01518  0.15391  0.91623  1.0000
  H   H1208     1.0  0.41551  0.46245  0.82157  1.0000
  C   C1506     1.0  0.00240  0.19114  0.89611  1.0000
  H   H1209     1.0  0.24439  0.42939  0.97336  1.0000
  C   C1507     1.0  0.03405  0.13328  0.95874  1.0000
  S   S197      1.0  0.15403  0.27458  0.97215  1.0000
  S   S198      1.0  0.06421  0.10735  0.78646  1.0000
  H   H1210     1.0  0.12803  0.01163  0.96796  1.0000
  H   H1211     1.0  0.04705  0.10918  0.96924  1.0000
  C   C1508     1.0  0.02303  0.37039  0.78823  1.0000
  C   C1509     1.0  0.45752  0.98899  0.79430  1.0000
  H   H1212     1.0  0.00741  0.99854  0.79294  1.0000
  C   C1510     1.0  0.02310  0.25784  0.78900  1.0000
  H   H1213     1.0  0.02124  0.09341  0.82356  1.0000
  H   H1214     1.0  0.38886  0.46960  0.84428  1.0000
  H   H1215     1.0  0.31869  0.46012  0.84583  1.0000
  H   H1216     1.0  0.00436  0.20050  0.86357  1.0000
  H   H1217     1.0  0.03212  0.21366  0.96844  1.0000
  C   C1511     1.0  0.99600  0.17117  0.94281  1.0000
  H   H1218     1.0  0.00597  0.07520  0.81889  1.0000
  H   H1219     1.0  0.15413  0.99122  0.97072  1.0000
  C   C1512     1.0  0.00672  0.14845  0.86965  1.0000
  C   C1513     1.0  0.08836  0.17566  0.79051  1.0000
  C   C1514     1.0  0.34928  0.48038  0.82374  1.0000
  C   C1515     1.0  0.07525  0.18581  0.78348  1.0000
  C   C1516     1.0  0.21569  0.29616  0.97150  1.0000
  C   C1517     1.0  0.37099  0.48071  0.78329  1.0000
  C   C1518     1.0  0.00149  0.34146  0.80328  1.0000
  C   C1519     1.0  0.10267  0.99073  0.84331  1.0000
  C   C1520     1.0  0.02282  0.17739  0.96945  1.0000
  H   H1220     1.0  0.12480  0.43977  0.97409  1.0000
  C   C1521     1.0  0.17786  0.36000  0.98042  1.0000
  H   H1221     1.0  0.00945  0.10854  0.84582  1.0000
  H   H1222     1.0  0.02060  0.16610  0.97811  1.0000
  C   C1522     1.0  0.38824  0.48216  0.83717  1.0000
  H   H1223     1.0  0.06207  0.99845  0.78299  1.0000
  C   C1523     1.0  0.16845  0.40857  0.98217  1.0000
  C   C1524     1.0  0.00271  0.10034  0.84442  1.0000
  H   H1224     1.0  0.99410  0.29809  0.90088  1.0000
  C   C1525     1.0  0.15894  0.43782  0.98171  1.0000
  C   C1526     1.0  0.22683  0.38726  0.98196  1.0000
  H   H1225     1.0  0.28901  0.35486  0.79161  1.0000
  H   H1226     1.0  0.99570  0.23271  0.79633  1.0000
  C   C1527     1.0  0.99566  0.34981  0.78884  1.0000
  C   C1528     1.0  0.10032  0.34796  0.98225  1.0000
  H   H1227     1.0  0.47457  0.40071  0.78374  1.0000
  S   S199      1.0  0.29670  0.46937  0.78239  1.0000
  H   H1228     1.0  0.01445  0.31961  0.78292  1.0000
  C   C1529     1.0  0.14320  0.99020  0.98049  1.0000
  C   C1530     1.0  0.12844  0.00183  0.97892  1.0000
  Fe  Fe104     1.0  0.21705  0.91746  0.03821  1.0000
  S   S200      1.0  0.21323  0.89237  0.05245  1.0000
  S   S201      1.0  0.22146  0.92424  0.01044  1.0000
  Fe  Fe105     1.0  0.21551  0.92985  0.06913  1.0000
  S   S202      1.0  0.21077  0.90581  0.08574  1.0000
  S   S203      1.0  0.21945  0.95202  0.07636  1.0000
  Fe  Fe106     1.0  0.23058  0.89403  0.06682  1.0000
  S   S204      1.0  0.25113  0.87389  0.07545  1.0000
  Fe  Fe107     1.0  0.19373  0.90628  0.06977  1.0000
  S   S205      1.0  0.16851  0.90011  0.08081  1.0000
  S   S206      1.0  0.23635  0.91789  0.05103  1.0000
  S   S207      1.0  0.19647  0.93160  0.05472  1.0000
  C   C1531     1.0  0.33100  0.73614  0.00225  1.0000
  S   S208      1.0  0.27919  0.81341  0.04057  1.0000
  S   S209      1.0  0.27563  0.79389  0.00698  1.0000
  Fe  Fe108     1.0  0.13396  0.83967  0.04759  1.0000
  S   S210      1.0  0.13570  0.81500  0.06532  1.0000
  S   S211      1.0  0.12764  0.86399  0.05575  1.0000
  Fe  Fe109     1.0  0.13667  0.82423  0.01882  1.0000
  S   S212      1.0  0.13943  0.79852  0.03409  1.0000
  C   C1532     1.0  0.11825  0.49831  0.14864  1.0000
  Fe  Fe110     1.0  0.11872  0.80956  0.05271  1.0000
  S   S213      1.0  0.09635  0.79837  0.06622  1.0000
  Fe  Fe111     1.0  0.15617  0.80630  0.04498  1.0000
  S   S214      1.0  0.18059  0.79054  0.05016  1.0000
  S   S215      1.0  0.11508  0.83499  0.03683  1.0000
  S   S216      1.0  0.15531  0.83130  0.02790  1.0000
  H   H1229     1.0  0.02821  0.76396  0.00655  1.0000
  H   H1230     1.0  0.00169  0.67419  0.11615  1.0000
  H   H1231     1.0  0.08861  0.53166  0.13695  1.0000
  C   C1533     1.0  0.30172  0.69274  0.04532  1.0000
  S   S217      1.0  0.01835  0.65236  0.14190  1.0000
  H   H1232     1.0  0.27664  0.88679  0.02901  1.0000
  Fe  Fe112     1.0  0.04783  0.74864  0.04405  1.0000
  S   S218      1.0  0.04865  0.73347  0.06945  1.0000
  S   S219      1.0  0.06920  0.76060  0.02895  1.0000
  Fe  Fe113     1.0  0.01260  0.74481  0.04650  1.0000
  S   S220      1.0  0.01062  0.72952  0.07230  1.0000
  H   H1233     1.0  0.07517  0.61183  0.17576  1.0000
  Fe  Fe114     1.0  0.02272  0.74758  0.07637  1.0000
  Fe  Fe115     1.0  0.03666  0.71676  0.06293  1.0000
  S   S221      1.0  0.04637  0.68929  0.06947  1.0000
  S   S222      1.0  0.02266  0.76403  0.05138  1.0000
  S   S223      1.0  0.03800  0.73071  0.03659  1.0000
  Fe  Fe116     1.0  0.26222  0.96795  0.14491  1.0000
  C   C1534     1.0  0.29476  0.71763  0.02476  1.0000
  S   S224      1.0  0.24732  0.95365  0.13750  1.0000
  C   C1535     1.0  0.18872  0.97552  0.14135  1.0000
  H   H1234     1.0  0.25820  0.95259  0.02635  1.0000
  S   S225      1.0  0.01477  0.75850  0.09873  1.0000
  C   C1536     1.0  0.28144  0.76076  0.99022  1.0000
  Fe  Fe117     1.0  0.29620  0.96099  0.15288  1.0000
  C   C1537     1.0  0.00739  0.57709  0.14869  1.0000
  S   S226      1.0  0.27255  0.95361  0.16732  1.0000
  H   H1235     1.0  0.28854  0.86088  0.04624  1.0000
  H   H1236     1.0  0.19057  0.94634  0.01276  1.0000
  H   H1237     1.0  0.24358  0.95020  0.00631  1.0000
  H   H1238     1.0  0.04655  0.54329  0.13815  1.0000
  H   H1239     1.0  0.05752  0.81895  0.06451  1.0000
  H   H1240     1.0  0.18738  0.96156  0.10855  1.0000
  H   H1241     1.0  0.14020  0.82633  0.10914  1.0000
  H   H1242     1.0  0.05858  0.76497  0.11666  1.0000
  C   C1538     1.0  0.00694  0.61706  0.09256  1.0000
  C   C1539     1.0  0.01866  0.84492  0.00705  1.0000
  Fe  Fe118     1.0  0.27745  0.81619  0.01440  1.0000
  C   C1540     1.0  0.02568  0.66291  0.12174  1.0000
  C   C1541     1.0  0.04275  0.66100  0.11559  1.0000
  C   C1542     1.0  0.04897  0.66898  0.09948  1.0000
  C   C1543     1.0  0.03815  0.67955  0.08966  1.0000
  C   C1544     1.0  0.02105  0.68174  0.09586  1.0000
  C   C1545     1.0  0.01484  0.67304  0.11172  1.0000
  H   H1243     1.0  0.05121  0.65309  0.12320  1.0000
  H   H1244     1.0  0.06219  0.66718  0.09469  1.0000
  H   H1245     1.0  0.01262  0.68981  0.08831  1.0000
  C   C1546     1.0  0.34689  0.97882  0.16587  1.0000
  C   C1547     1.0  0.28631  0.70937  0.01894  1.0000
  C   C1548     1.0  0.18502  0.96605  0.13258  1.0000
  H   H1246     1.0  0.06435  0.82862  0.01916  1.0000
  H   H1247     1.0  0.05492  0.80530  0.04008  1.0000
  H   H1248     1.0  0.01964  0.74279  0.14019  1.0000
  C   C1549     1.0  0.39139  0.93160  0.15645  1.0000
  H   H1249     1.0  0.35971  0.95363  0.12873  1.0000
  C   C1550     1.0  0.07177  0.82010  0.01142  1.0000
  C   C1551     1.0  0.01468  0.80720  0.14755  1.0000
  C   C1552     1.0  0.28608  0.87773  0.02312  1.0000
  H   H1250     1.0  0.25412  0.92744  0.99172  1.0000
  P   P51       1.0  0.99600  0.72421  0.13861  1.0000
  H   H1251     1.0  0.02376  0.60367  0.12649  1.0000
  C   C1553     1.0  0.08951  0.78721  0.05591  1.0000
  C   C1554     1.0  0.09723  0.78562  0.03974  1.0000
  C   C1555     1.0  0.09120  0.77702  0.03176  1.0000
  C   C1556     1.0  0.07728  0.77021  0.03971  1.0000
  C   C1557     1.0  0.06985  0.77142  0.05602  1.0000
  C   C1558     1.0  0.07596  0.77987  0.06406  1.0000
  H   H1252     1.0  0.10774  0.79112  0.03332  1.0000
  H   H1253     1.0  0.09730  0.77567  0.01934  1.0000
  H   H1254     1.0  0.05916  0.76614  0.06234  1.0000
  H   H1255     1.0  0.07001  0.78084  0.07658  1.0000
  C   C1559     1.0  0.22087  0.80274  0.00479  1.0000
  C   C1560     1.0  0.22497  0.79589  0.02019  1.0000
  C   C1561     1.0  0.21271  0.79129  0.03401  1.0000
  C   C1562     1.0  0.19630  0.79409  0.03255  1.0000
  C   C1563     1.0  0.19233  0.80064  0.01710  1.0000
  C   C1564     1.0  0.20465  0.80469  0.00322  1.0000
  H   H1256     1.0  0.23751  0.79423  0.02146  1.0000
  H   H1257     1.0  0.21577  0.78618  0.04593  1.0000
  H   H1258     1.0  0.17973  0.80263  0.01585  1.0000
  C   C1565     1.0  0.11065  0.49373  0.16528  1.0000
  C   C1566     1.0  0.00272  0.70344  0.00126  1.0000
  H   H1259     1.0  0.30795  0.83845  0.03347  1.0000
  P   P52       1.0  0.16292  0.96254  0.99667  1.0000
  C   C1567     1.0  0.01130  0.85952  0.13269  1.0000
  H   H1260     1.0  0.09484  0.82532  0.01176  1.0000
  C   C1568     1.0  0.22844  0.95142  0.09294  1.0000
  C   C1569     1.0  0.23774  0.96316  0.09127  1.0000
  C   C1570     1.0  0.24413  0.96375  0.10450  1.0000
  C   C1571     1.0  0.24058  0.95311  0.11987  1.0000
  C   C1572     1.0  0.23105  0.94161  0.12157  1.0000
  C   C1573     1.0  0.22538  0.94045  0.10815  1.0000
  C   C1574     1.0  0.14012  0.88070  0.99453  1.0000
  C   C1575     1.0  0.25765  0.88287  0.99586  1.0000
  H   H1261     1.0  0.22784  0.93366  0.13347  1.0000
  H   H1262     1.0  0.21802  0.93154  0.10980  1.0000
  C   C1576     1.0  0.15842  0.88941  0.07307  1.0000
  C   C1577     1.0  0.16642  0.88004  0.06099  1.0000
  C   C1578     1.0  0.15740  0.87159  0.05579  1.0000
  C   C1579     1.0  0.14036  0.87278  0.06245  1.0000
  C   C1580     1.0  0.13253  0.88238  0.07423  1.0000
  C   C1581     1.0  0.14149  0.89040  0.07964  1.0000
  H   H1263     1.0  0.17946  0.87930  0.05567  1.0000
  H   H1264     1.0  0.16355  0.86453  0.04642  1.0000
  H   H1265     1.0  0.11941  0.88354  0.07935  1.0000
  H   H1266     1.0  0.13519  0.89758  0.08893  1.0000
  C   C1582     1.0  0.25773  0.85716  0.06565  1.0000
  C   C1583     1.0  0.25327  0.85784  0.05099  1.0000
  C   C1584     1.0  0.25968  0.84443  0.04308  1.0000
  C   C1585     1.0  0.27035  0.83034  0.04999  1.0000
  C   C1586     1.0  0.27443  0.82961  0.06480  1.0000
  C   C1587     1.0  0.26828  0.84302  0.07250  1.0000
  H   H1267     1.0  0.24531  0.86883  0.04550  1.0000
  H   H1268     1.0  0.25648  0.84506  0.03163  1.0000
  H   H1269     1.0  0.28262  0.81874  0.07018  1.0000
  H   H1270     1.0  0.27174  0.84246  0.08380  1.0000
  C   C1588     1.0  0.21014  0.91687  0.00084  1.0000
  C   C1589     1.0  0.19814  0.90788  0.01006  1.0000
  H   H1271     1.0  0.14407  0.83764  0.07912  1.0000
  H   H1272     1.0  0.19593  0.90488  0.02337  1.0000
  C   C1590     1.0  0.31148  0.91224  0.13342  1.0000
  C   C1591     1.0  0.02047  0.57771  0.08751  1.0000
  H   H1273     1.0  0.99925  0.61390  0.08635  1.0000
  H   H1274     1.0  0.07571  0.78614  0.10714  1.0000
  C   C1592     1.0  0.15218  0.92680  0.03806  1.0000
  H   H1275     1.0  0.17903  0.75588  0.02519  1.0000
  H   H1276     1.0  0.11485  0.92987  0.99334  1.0000
  C   C1593     1.0  0.00919  0.85601  0.10651  1.0000
  P   P53       1.0  0.27915  0.90645  0.10149  1.0000
  C   C1594     1.0  0.28871  0.88922  0.09152  1.0000
  C   C1595     1.0  0.29190  0.90856  0.11400  1.0000
  C   C1596     1.0  0.30601  0.89636  0.11704  1.0000
  C   C1597     1.0  0.31576  0.89822  0.12672  1.0000
  H   H1277     1.0  0.02965  0.63293  0.01107  1.0000
  C   C1598     1.0  0.39360  0.98420  0.13858  1.0000
  C   C1599     1.0  0.27605  0.92509  0.08571  1.0000
  C   C1600     1.0  0.28785  0.87310  0.10047  1.0000
  C   C1601     1.0  0.29411  0.85978  0.09262  1.0000
  C   C1602     1.0  0.30130  0.86245  0.07579  1.0000
  C   C1603     1.0  0.30241  0.87842  0.06682  1.0000
  C   C1604     1.0  0.29620  0.89177  0.07464  1.0000
  C   C1605     1.0  0.25960  0.90238  0.11446  1.0000
  C   C1606     1.0  0.25481  0.90420  0.13091  1.0000
  C   C1607     1.0  0.24015  0.90000  0.14101  1.0000
  C   C1608     1.0  0.05339  0.58431  0.16446  1.0000
  C   C1609     1.0  0.37654  0.93127  0.13653  1.0000
  C   C1610     1.0  0.24953  0.89611  0.10845  1.0000
  C   C1611     1.0  0.03444  0.80079  0.05993  1.0000
  H   H1278     1.0  0.04178  0.79707  0.06921  1.0000
  P   P54       1.0  0.11989  0.89421  0.99404  1.0000
  H   H1279     1.0  0.21172  0.49565  0.04833  1.0000
  H   H1280     1.0  0.29707  0.93353  0.08720  1.0000
  H   H1281     1.0  0.30956  0.88543  0.11197  1.0000
  H   H1282     1.0  0.29359  0.95804  0.06482  1.0000
  H   H1283     1.0  0.19092  0.70319  0.01503  1.0000
  C   C1612     1.0  0.19808  0.98189  0.10696  1.0000
  H   H1284     1.0  0.16731  0.82087  0.99230  1.0000
  H   H1285     1.0  0.28198  0.87087  0.11345  1.0000
  H   H1286     1.0  0.29303  0.84744  0.09951  1.0000
  H   H1287     1.0  0.30580  0.85215  0.06966  1.0000
  H   H1288     1.0  0.30783  0.88048  0.05373  1.0000
  H   H1289     1.0  0.29697  0.90405  0.06740  1.0000
  H   H1290     1.0  0.26216  0.90894  0.13609  1.0000
  H   H1291     1.0  0.23647  0.90169  0.15358  1.0000
  C   C1613     1.0  0.01340  0.57527  0.13228  1.0000
  C   C1614     1.0  0.32610  0.93884  0.17075  1.0000
  H   H1292     1.0  0.25310  0.89411  0.09600  1.0000
  C   C1615     1.0  0.07044  0.83833  0.05193  1.0000
  C   C1616     1.0  0.07164  0.85443  0.05091  1.0000
  C   C1617     1.0  0.06027  0.86381  0.06167  1.0000
  C   C1618     1.0  0.04778  0.85706  0.07356  1.0000
  C   C1619     1.0  0.04672  0.84076  0.07487  1.0000
  C   C1620     1.0  0.05800  0.83155  0.06378  1.0000
  C   C1621     1.0  0.02974  0.61273  0.17064  1.0000
  S   S227      1.0  0.28650  0.97395  0.13003  1.0000
  H   H1293     1.0  0.07945  0.83087  0.04386  1.0000
  H   H1294     1.0  0.08154  0.85952  0.04194  1.0000
  H   H1295     1.0  0.06132  0.87624  0.06093  1.0000
  H   H1296     1.0  0.03912  0.86452  0.08179  1.0000
  C   C1622     1.0  0.05313  0.77773  0.11189  1.0000
  C   C1623     1.0  0.26074  0.92820  0.00039  1.0000
  H   H1297     1.0  0.01684  0.72029  0.10592  1.0000
  H   H1298     1.0  0.25155  0.97259  0.10284  1.0000
  H   H1299     1.0  0.03136  0.84280  0.14308  1.0000
  C   C1624     1.0  0.02299  0.84272  0.10670  1.0000
  H   H1300     1.0  0.26143  0.73985  0.02631  1.0000
  S   S228      1.0  0.32043  0.94262  0.15181  1.0000
  H   H1301     1.0  0.00678  0.74093  0.00356  1.0000
  C   C1625     1.0  0.06273  0.78964  0.10661  1.0000
  C   C1626     1.0  0.03104  0.83815  0.11990  1.0000
  C   C1627     1.0  0.04182  0.80555  0.04331  1.0000
  C   C1628     1.0  0.15673  0.94106  0.02742  1.0000
  H   H1302     1.0  0.22719  0.88728  0.11370  1.0000
  H   H1303     1.0  0.17929  0.89622  0.00926  1.0000
  H   H1304     1.0  0.27860  0.68674  0.02208  1.0000
  C   C1629     1.0  0.09881  0.73067  0.04570  1.0000
  C   C1630     1.0  0.10292  0.73236  0.05961  1.0000
  C   C1631     1.0  0.11769  0.73701  0.05813  1.0000
  C   C1632     1.0  0.12822  0.74055  0.04259  1.0000
  C   C1633     1.0  0.12427  0.73821  0.02877  1.0000
  P   P55       1.0  0.14785  0.74549  0.04071  1.0000
  C   C1634     1.0  0.14800  0.75420  0.05743  1.0000
  C   C1635     1.0  0.16267  0.72610  0.04095  1.0000
  C   C1636     1.0  0.16396  0.71480  0.05597  1.0000
  H   H1305     1.0  0.18481  0.97305  0.15465  1.0000
  C   C1637     1.0  0.10653  0.54723  0.16363  1.0000
  C   C1638     1.0  0.17504  0.77453  0.00359  1.0000
  H   H1306     1.0  0.15627  0.71777  0.06745  1.0000
  C   C1639     1.0  0.16279  0.75172  0.06257  1.0000
  C   C1640     1.0  0.16316  0.75910  0.07496  1.0000
  C   C1641     1.0  0.14882  0.76912  0.08221  1.0000
  C   C1642     1.0  0.13409  0.77176  0.07707  1.0000
  C   C1643     1.0  0.13372  0.76453  0.06457  1.0000
  C   C1644     1.0  0.15388  0.76039  0.02216  1.0000
  C   C1645     1.0  0.27289  0.95267  0.05943  1.0000
  H   H1307     1.0  0.00079  0.86805  0.00497  1.0000
  H   H1308     1.0  0.03439  0.56945  0.06530  1.0000
  C   C1646     1.0  0.26380  0.92809  0.07673  1.0000
  C   C1647     1.0  0.14242  0.77028  0.01264  1.0000
  C   C1648     1.0  0.11368  0.90603  0.00992  1.0000
  H   H1309     1.0  0.08720  0.72739  0.04678  1.0000
  H   H1310     1.0  0.09455  0.73018  0.07151  1.0000
  H   H1311     1.0  0.12081  0.73777  0.06916  1.0000
  H   H1312     1.0  0.14495  0.52286  0.16300  1.0000
  C   C1649     1.0  0.00138  0.84285  0.05620  1.0000
  H   H1313     1.0  0.01684  0.65786  0.02245  1.0000
  C   C1650     1.0  0.14955  0.91785  0.01491  1.0000
  C   C1651     1.0  0.01776  0.80009  0.06458  1.0000
  H   H1314     1.0  0.25249  0.94417  0.05711  1.0000
  H   H1315     1.0  0.17419  0.74453  0.05669  1.0000
  H   H1316     1.0  0.17474  0.75770  0.07839  1.0000
  H   H1317     1.0  0.14926  0.77530  0.09138  1.0000
  H   H1318     1.0  0.12307  0.77987  0.08239  1.0000
  H   H1319     1.0  0.12238  0.76738  0.06022  1.0000
  C   C1652     1.0  0.21520  0.97082  0.16480  1.0000
  H   H1320     1.0  0.27689  0.93224  0.11859  1.0000
  C   C1653     1.0  0.26228  0.94178  0.06364  1.0000
  H   H1321     1.0  0.03484  0.54592  0.16710  1.0000
  H   H1322     1.0  0.12955  0.76947  0.01633  1.0000
  C   C1654     1.0  0.14852  0.91524  0.03179  1.0000
  H   H1323     1.0  0.00406  0.68807  0.14606  1.0000
  C   C1655     1.0  0.10950  0.73354  0.03030  1.0000
  C   C1656     1.0  0.31595  0.73602  0.99893  1.0000
  C   C1657     1.0  0.12956  0.97658  0.00724  1.0000
  C   C1658     1.0  0.01072  0.60684  0.10738  1.0000
  C   C1659     1.0  0.14382  0.97743  0.99463  1.0000
  C   C1660     1.0  0.10858  0.86861  0.98978  1.0000
  C   C1661     1.0  0.18826  0.95943  0.01228  1.0000
  H   H1324     1.0  0.30918  0.78388  0.03026  1.0000
  C   C1662     1.0  0.02888  0.77660  0.00029  1.0000
  H   H1325     1.0  0.99541  0.66726  0.17021  1.0000
  C   C1663     1.0  0.03502  0.78599  0.00712  1.0000
  H   H1326     1.0  0.02607  0.84390  0.05557  1.0000
  C   C1664     1.0  0.29285  0.68474  0.03980  1.0000
  C   C1665     1.0  0.17511  0.69953  0.05623  1.0000
  C   C1666     1.0  0.99521  0.56782  0.10057  1.0000
  C   C1667     1.0  0.00099  0.66897  0.00488  1.0000
  H   H1327     1.0  0.35717  0.73456  0.99271  1.0000
  C   C1668     1.0  0.03528  0.80257  0.99958  1.0000
  C   C1669     1.0  0.01348  0.83413  0.08041  1.0000
  C   C1670     1.0  0.06423  0.81087  0.00567  1.0000
  H   H1328     1.0  0.32664  0.88882  0.12906  1.0000
  C   C1671     1.0  0.29748  0.92443  0.13044  1.0000
  H   H1329     1.0  0.27867  0.75469  0.06833  1.0000
  C   C1672     1.0  0.18806  0.50168  0.17422  1.0000
  P   P56       1.0  0.28249  0.89935  0.99291  1.0000
  C   C1673     1.0  0.30847  0.85270  0.00865  1.0000
  H   H1330     1.0  0.01564  0.76857  0.14920  1.0000
  H   H1331     1.0  0.02017  0.62346  0.17313  1.0000
  C   C1674     1.0  0.02343  0.56902  0.07513  1.0000
  C   C1675     1.0  0.27719  0.93071  0.02308  1.0000
  C   C1676     1.0  0.00720  0.74948  0.14421  1.0000
  H   H1332     1.0  0.09568  0.50473  0.11440  1.0000
  C   C1677     1.0  0.09863  0.80796  0.99668  1.0000
  C   C1678     1.0  0.27478  0.91611  0.00369  1.0000
  C   C1679     1.0  0.23485  0.89203  0.11854  1.0000
  H   H1333     1.0  0.24009  0.97181  0.07963  1.0000
  H   H1334     1.0  0.33301  0.97167  0.13937  1.0000
  H   H1335     1.0  0.29275  0.77823  0.05877  1.0000
  S   S229      1.0  0.29121  0.98361  0.16302  1.0000
  C   C1680     1.0  0.29132  0.88049  0.00587  1.0000
  C   C1681     1.0  0.15426  0.93196  0.00423  1.0000
  C   C1682     1.0  0.36857  0.94778  0.13646  1.0000
  H   H1336     1.0  0.00680  0.86603  0.14270  1.0000
  C   C1683     1.0  0.20135  0.84156  0.02176  1.0000
  C   C1684     1.0  0.20704  0.85626  0.01606  1.0000
  C   C1685     1.0  0.21192  0.86253  0.02684  1.0000
  C   C1686     1.0  0.21123  0.85407  0.04325  1.0000
  C   C1687     1.0  0.20509  0.83956  0.04916  1.0000
  C   C1688     1.0  0.20026  0.83333  0.03826  1.0000
  P   P57       1.0  0.20498  0.82793  0.07003  1.0000
  C   C1689     1.0  0.18452  0.82586  0.08187  1.0000
  C   C1690     1.0  0.21884  0.80816  0.06867  1.0000
  C   C1691     1.0  0.21410  0.79337  0.07782  1.0000
  C   C1692     1.0  0.22489  0.77816  0.07635  1.0000
  C   C1693     1.0  0.24035  0.77760  0.06553  1.0000
  C   C1694     1.0  0.24507  0.79224  0.05626  1.0000
  C   C1695     1.0  0.23440  0.80747  0.05783  1.0000
  C   C1696     1.0  0.17065  0.83199  0.07473  1.0000
  C   C1697     1.0  0.15475  0.83227  0.08461  1.0000
  C   C1698     1.0  0.15258  0.82600  0.10159  1.0000
  C   C1699     1.0  0.16634  0.81960  0.10878  1.0000
  C   C1700     1.0  0.18223  0.81967  0.09899  1.0000
  C   C1701     1.0  0.21153  0.83888  0.08126  1.0000
  C   C1702     1.0  0.20113  0.85362  0.08513  1.0000
  C   C1703     1.0  0.20540  0.86195  0.09457  1.0000
  C   C1704     1.0  0.22002  0.85553  0.10036  1.0000
  C   C1705     1.0  0.23036  0.84079  0.09669  1.0000
  C   C1706     1.0  0.22624  0.83252  0.08704  1.0000
  H   H1337     1.0  0.19793  0.83638  0.01340  1.0000
  H   H1338     1.0  0.20783  0.86270  0.00328  1.0000
  H   H1339     1.0  0.21646  0.87385  0.02243  1.0000
  H   H1340     1.0  0.21574  0.85876  0.05117  1.0000
  H   H1341     1.0  0.19579  0.82200  0.04252  1.0000
  H   H1342     1.0  0.20196  0.79347  0.08575  1.0000
  H   H1343     1.0  0.22105  0.76682  0.08324  1.0000
  H   H1344     1.0  0.24852  0.76584  0.06403  1.0000
  H   H1345     1.0  0.25693  0.79183  0.04764  1.0000
  H   H1346     1.0  0.23824  0.81871  0.05045  1.0000
  H   H1347     1.0  0.17193  0.83697  0.06165  1.0000
  H   H1348     1.0  0.16467  0.81494  0.12197  1.0000
  H   H1349     1.0  0.19277  0.81523  0.10480  1.0000
  H   H1350     1.0  0.18968  0.85871  0.08084  1.0000
  H   H1351     1.0  0.19739  0.87345  0.09726  1.0000
  H   H1352     1.0  0.22357  0.86216  0.10734  1.0000
  H   H1353     1.0  0.24185  0.83605  0.10091  1.0000
  H   H1354     1.0  0.23458  0.82130  0.08410  1.0000
  C   C1707     1.0  0.02438  0.71496  0.11503  1.0000
  C   C1708     1.0  0.04086  0.70709  0.11011  1.0000
  C   C1709     1.0  0.09521  0.50308  0.17179  1.0000
  C   C1710     1.0  0.03250  0.80963  0.03117  1.0000
  C   C1711     1.0  0.08717  0.51665  0.16151  1.0000
  H   H1355     1.0  0.17605  0.69086  0.06786  1.0000
  C   C1712     1.0  0.30483  0.76326  0.02378  1.0000
  C   C1713     1.0  0.11040  0.51222  0.13859  1.0000
  C   C1714     1.0  0.28707  0.93580  0.08099  1.0000
  H   H1356     1.0  0.31162  0.76628  0.01124  1.0000
  C   C1715     1.0  0.10634  0.90659  0.03906  1.0000
  C   C1716     1.0  0.10552  0.92358  0.03509  1.0000
  H   H1357     1.0  0.11626  0.51585  0.12576  1.0000
  C   C1717     1.0  0.18860  0.90311  0.00205  1.0000
  C   C1718     1.0  0.03738  0.64629  0.17569  1.0000
  C   C1719     1.0  0.11016  0.89790  0.02654  1.0000
  H   H1358     1.0  0.23931  0.86944  0.99754  1.0000
  C   C1720     1.0  0.15805  0.94364  0.01033  1.0000
  C   C1721     1.0  0.13299  0.52982  0.16808  1.0000
  C   C1722     1.0  0.03661  0.78219  0.11058  1.0000
  H   H1359     1.0  0.21543  0.96453  0.15547  1.0000
  H   H1360     1.0  0.06558  0.50718  0.12588  1.0000
  H   H1361     1.0  0.26067  0.87563  0.00745  1.0000
  H   H1362     1.0  0.37365  0.92470  0.12902  1.0000
  C   C1723     1.0  0.38350  0.94809  0.15633  1.0000
  H   H1363     1.0  0.13857  0.78974  0.99127  1.0000
  C   C1724     1.0  0.02968  0.79849  0.10378  1.0000
  C   C1725     1.0  0.14740  0.78192  0.99851  1.0000
  C   C1726     1.0  0.09102  0.49410  0.12224  1.0000
  P   P58       1.0  0.29699  0.73835  0.01442  1.0000
  C   C1727     1.0  0.14727  0.87682  0.00833  1.0000
  C   C1728     1.0  0.16371  0.86817  0.00751  1.0000
  C   C1729     1.0  0.29260  0.86287  0.03299  1.0000
  H   H1364     1.0  0.06221  0.57296  0.16243  1.0000
  H   H1365     1.0  0.03285  0.56162  0.11595  1.0000
  H   H1366     1.0  0.10441  0.89998  0.05183  1.0000
  H   H1367     1.0  0.04190  0.82822  0.12023  1.0000
  C   C1730     1.0  0.38787  0.92315  0.14660  1.0000
  C   C1731     1.0  0.01498  0.56631  0.16115  1.0000
  H   H1368     1.0  0.11087  0.88469  0.02983  1.0000
  H   H1369     1.0  0.10612  0.73237  0.01954  1.0000
  C   C1732     1.0  0.11246  0.92319  0.00601  1.0000
  H   H1370     1.0  0.10286  0.93022  0.04482  1.0000
  H   H1371     1.0  0.01461  0.55301  0.06584  1.0000
  H   H1372     1.0  0.07115  0.85799  0.00105  1.0000
  H   H1373     1.0  0.03363  0.62957  0.11480  1.0000
  P   P59       1.0  0.36184  0.97775  0.14654  1.0000
  C   C1733     1.0  0.04140  0.59131  0.15498  1.0000
  H   H1374     1.0  0.03342  0.67024  0.15953  1.0000
  C   C1734     1.0  0.01477  0.84062  0.06340  1.0000
  H   H1375     1.0  0.14054  0.88068  0.01962  1.0000
  H   H1376     1.0  0.16929  0.86557  0.01799  1.0000
  H   H1377     1.0  0.13254  0.74004  0.01679  1.0000
  H   H1378     1.0  0.29418  0.93525  0.13572  1.0000
  H   H1379     1.0  0.38666  0.95447  0.16383  1.0000
  H   H1380     1.0  0.99516  0.78114  0.11909  1.0000
  C   C1735     1.0  0.03549  0.55265  0.14099  1.0000
  C   C1736     1.0  0.02770  0.56311  0.12848  1.0000
  H   H1381     1.0  0.06365  0.81491  0.09576  1.0000
  C   C1737     1.0  0.02792  0.70880  0.14310  1.0000
  C   C1738     1.0  0.04443  0.70099  0.13811  1.0000
  C   C1739     1.0  0.05085  0.70002  0.12162  1.0000
  C   C1740     1.0  0.09477  0.52116  0.14491  1.0000
  H   H1382     1.0  0.02200  0.80373  0.13616  1.0000
  P   P60       1.0  0.03049  0.83192  0.08995  1.0000
  H   H1383     1.0  0.02298  0.70923  0.15597  1.0000
  H   H1384     1.0  0.05216  0.69543  0.14705  1.0000
  H   H1385     1.0  0.06352  0.69367  0.11771  1.0000
  C   C1741     1.0  0.01772  0.71570  0.13161  1.0000
  C   C1742     1.0  0.03923  0.81058  0.09839  1.0000
  C   C1743     1.0  0.30283  0.70907  0.03772  1.0000
  C   C1744     1.0  0.02635  0.62596  0.10847  1.0000
  H   H1386     1.0  0.20152  0.80976  0.99130  1.0000
  C   C1745     1.0  0.02899  0.55413  0.15734  1.0000
  H   H1387     1.0  0.20190  0.98414  0.09364  1.0000
  H   H1388     1.0  0.01014  0.83861  0.01669  1.0000
  C   C1746     1.0  0.09126  0.79870  0.99095  1.0000
  C   C1747     1.0  0.28775  0.92266  0.12074  1.0000
  H   H1389     1.0  0.01982  0.61075  0.15128  1.0000
  H   H1390     1.0  0.18754  0.77654  0.00032  1.0000
  P   P61       1.0  0.00267  0.58830  0.11637  1.0000
  H   H1391     1.0  0.29423  0.90862  0.01741  1.0000
  C   C1748     1.0  0.08039  0.86486  0.99984  1.0000
  S   S230      1.0  0.29961  0.82046  0.99442  1.0000
  H   H1392     1.0  0.01004  0.56734  0.17384  1.0000
  C   C1749     1.0  0.18348  0.70647  0.02647  1.0000
  C   C1750     1.0  0.30348  0.77327  0.03457  1.0000
  C   C1751     1.0  0.08893  0.81847  0.00709  1.0000
  C   C1752     1.0  0.01580  0.80845  0.03597  1.0000
  C   C1753     1.0  0.17016  0.76282  0.01767  1.0000
  H   H1393     1.0  0.15170  0.92456  0.05116  1.0000
  H   H1394     1.0  0.99689  0.82562  0.10327  1.0000
  C   C1754     1.0  0.01304  0.65660  0.01198  1.0000
  H   H1395     1.0  0.19346  0.68351  0.04170  1.0000
  H   H1396     1.0  0.03483  0.79749  0.16019  1.0000
  C   C1755     1.0  0.23011  0.89403  0.13479  1.0000
  C   C1756     1.0  0.01278  0.63163  0.08581  1.0000
  Fe  Fe119     1.0  0.26657  0.97744  0.17585  1.0000
  S   S231      1.0  0.25931  0.83417  0.00017  1.0000
  H   H1397     1.0  0.00294  0.86005  0.09633  1.0000
  C   C1757     1.0  0.00342  0.86437  0.11945  1.0000
  H   H1398     1.0  0.28042  0.73729  0.04918  1.0000
  C   C1758     1.0  0.07618  0.87872  0.00676  1.0000
  H   H1399     1.0  0.06362  0.88265  0.01333  1.0000
  C   C1759     1.0  0.29413  0.77012  0.05063  1.0000
  C   C1760     1.0  0.48427  0.54867  0.16572  1.0000
  C   C1761     1.0  0.02031  0.72826  0.98395  1.0000
  H   H1400     1.0  0.14731  0.90865  0.00993  1.0000
  C   C1762     1.0  0.00498  0.76422  0.14921  1.0000
  H   H1401     1.0  0.14506  0.90417  0.03997  1.0000
  H   H1402     1.0  0.39388  0.91031  0.14685  1.0000
  H   H1403     1.0  0.02670  0.64759  0.08877  1.0000
  H   H1404     1.0  0.08459  0.89846  0.01030  1.0000
  H   H1405     1.0  0.28350  0.93162  0.03196  1.0000
  H   H1406     1.0  0.04581  0.70615  0.09737  1.0000
  C   C1763     1.0  0.05584  0.80598  0.09993  1.0000
  S   S232      1.0  0.41057  0.95443  0.18074  1.0000
  C   C1764     1.0  0.49281  0.56042  0.16547  1.0000
  H   H1407     1.0  0.21866  0.89099  0.14255  1.0000
  C   C1765     1.0  0.02513  0.84645  0.13289  1.0000
  H   H1408     1.0  0.99719  0.67119  0.08019  1.0000
  H   H1409     1.0  0.27135  0.96350  0.04958  1.0000
  H   H1410     1.0  0.29206  0.67206  0.04564  1.0000
  C   C1766     1.0  0.28532  0.94964  0.06808  1.0000
  S   S233      1.0  0.06738  0.52795  0.16879  1.0000
  C   C1767     1.0  0.22181  0.96167  0.17847  1.0000
  C   C1768     1.0  0.37194  0.95635  0.14643  1.0000
  H   H1411     1.0  0.17858  0.95618  0.13908  1.0000
  C   C1769     1.0  0.00843  0.80391  0.05261  1.0000
  H   H1412     1.0  0.99668  0.58664  0.15199  1.0000
  C   C1770     1.0  0.01326  0.86167  0.00036  1.0000
  C   C1771     1.0  0.08815  0.88759  0.00512  1.0000
  H   H1413     1.0  0.01774  0.68493  0.05839  1.0000
  C   C1772     1.0  0.05368  0.59161  0.17695  1.0000
  H   H1414     1.0  0.25526  0.92003  0.07979  1.0000
  H   H1415     1.0  0.02925  0.77288  0.11452  1.0000
  H   H1416     1.0  0.35045  0.92457  0.16291  1.0000
  H   H1417     1.0  0.09808  0.55357  0.15549  1.0000
  H   H1418     1.0  0.40022  0.92544  0.16425  1.0000
  H   H1419     1.0  0.31901  0.91371  0.14094  1.0000
  C   C1773     1.0  0.27940  0.74951  0.00544  1.0000
  C   C1774     1.0  0.19823  0.96528  0.01870  1.0000
  H   H1420     1.0  0.01698  0.80136  0.10266  1.0000
  C   C1775     1.0  0.02948  0.60543  0.15819  1.0000
  C   C1776     1.0  0.24966  0.75678  0.00745  1.0000
  C   C1777     1.0  0.99575  0.81583  0.17709  1.0000
  C   C1778     1.0  0.00630  0.57721  0.10031  1.0000
  H   H1421     1.0  0.02930  0.58472  0.08715  1.0000
  H   H1422     1.0  0.00854  0.81055  0.02685  1.0000
  H   H1423     1.0  0.00248  0.84774  0.04310  1.0000
  H   H1424     1.0  0.04117  0.58556  0.14540  1.0000
  H   H1425     1.0  0.21162  0.49229  0.02072  1.0000
  P   P62       1.0  0.04193  0.81479  0.00948  1.0000
  C   C1779     1.0  0.26337  0.74785  0.01420  1.0000
  C   C1780     1.0  0.02240  0.63615  0.09382  1.0000
  C   C1781     1.0  0.02063  0.61132  0.11516  1.0000
  C   C1782     1.0  0.35110  0.98696  0.12972  1.0000
  H   H1426     1.0  0.09886  0.79031  0.98313  1.0000
  C   C1783     1.0  0.01229  0.55975  0.07544  1.0000
  H   H1427     1.0  0.47461  0.55207  0.15883  1.0000
  H   H1428     1.0  0.33142  0.73810  0.01395  1.0000
  S   S234      1.0  0.13211  0.82879  0.99346  1.0000
  H   H1429     1.0  0.39839  0.97201  0.13596  1.0000
  H   H1430     1.0  0.20822  0.95667  0.02399  1.0000
  H   H1431     1.0  0.02149  0.62960  0.98694  1.0000
  H   H1432     1.0  0.15931  0.94994  0.03259  1.0000
  C   C1784     1.0  0.00888  0.73003  0.99868  1.0000
  C   C1785     1.0  0.26299  0.94254  0.01991  1.0000
  C   C1786     1.0  0.10841  0.93191  0.01857  1.0000
  C   C1787     1.0  0.25480  0.94128  0.00856  1.0000
  C   C1788     1.0  0.30363  0.85028  0.02579  1.0000
  C   C1789     1.0  0.18983  0.96914  0.11539  1.0000
  C   C1790     1.0  0.29683  0.75000  0.02896  1.0000
  C   C1791     1.0  0.28726  0.74702  0.04509  1.0000
  C   C1792     1.0  0.28610  0.75693  0.05593  1.0000
  H   H1433     1.0  0.10790  0.94506  0.01549  1.0000
  H   H1434     1.0  0.30787  0.68623  0.05539  1.0000
  H   H1435     1.0  0.03928  0.78039  0.01849  1.0000
  C   C1793     1.0  0.04209  0.60612  0.17984  1.0000
  C   C1794     1.0  0.12231  0.53857  0.15746  1.0000
  H   H1436     1.0  0.31005  0.71500  0.04188  1.0000
  H   H1437     1.0  0.12611  0.53819  0.14451  1.0000
  H   H1438     1.0  0.00965  0.63955  0.07450  1.0000
  H   H1439     1.0  0.15534  0.93333  0.99120  1.0000
  H   H1440     1.0  0.31665  0.84278  0.00302  1.0000
  C   C1795     1.0  0.17541  0.97038  0.00522  1.0000
  H   H1441     1.0  0.12978  0.96699  0.01835  1.0000
  S   S235      1.0  0.23566  0.80883  0.98718  1.0000
  C   C1796     1.0  0.18490  0.69538  0.04149  1.0000
  H   H1442     1.0  0.48983  0.57290  0.15836  1.0000
  H   H1443     1.0  0.17118  0.73006  0.01441  1.0000
  H   H1444     1.0  0.04362  0.64018  0.16554  1.0000
  C   C1797     1.0  0.19533  0.98211  0.01832  1.0000
  H   H1445     1.0  0.01217  0.79616  0.07741  1.0000
  C   C1798     1.0  0.99802  0.81516  0.14866  1.0000
  C   C1799     1.0  0.03476  0.83651  0.00109  1.0000
  H   H1446     1.0  0.19962  0.50570  0.17097  1.0000
  C   C1800     1.0  0.09656  0.85989  0.99127  1.0000
  H   H1447     1.0  0.23725  0.75576  0.01431  1.0000
  C   C1801     1.0  0.28313  0.91759  0.01494  1.0000
  C   C1802     1.0  0.10451  0.88248  0.99674  1.0000
  H   H1448     1.0  0.16740  0.79326  0.98318  1.0000
  C   C1803     1.0  0.17304  0.86306  0.99310  1.0000
  C   C1804     1.0  0.33704  0.98170  0.12974  1.0000
  C   C1805     1.0  0.01246  0.80800  0.17586  1.0000
  C   C1806     1.0  0.02191  0.80367  0.16110  1.0000
  H   H1449     1.0  0.18583  0.85662  0.99225  1.0000
  C   C1807     1.0  0.28523  0.69303  0.02656  1.0000
  C   C1808     1.0  0.99847  0.83017  0.09007  1.0000
  C   C1809     1.0  0.24545  0.87932  0.99034  1.0000
  C   C1810     1.0  0.17234  0.72175  0.02617  1.0000
  C   C1811     1.0  0.03181  0.66344  0.17224  1.0000
  H   H1450     1.0  0.28067  0.71548  0.00845  1.0000
  C   C1812     1.0  0.48787  0.53267  0.17525  1.0000
  H   H1451     1.0  0.11189  0.80691  0.99321  1.0000
  H   H1452     1.0  0.01550  0.69190  0.02942  1.0000
  C   C1813     1.0  0.07413  0.80001  0.99555  1.0000
  C   C1814     1.0  0.31595  0.73295  0.98377  1.0000
  C   C1815     1.0  0.99344  0.74373  0.14413  1.0000
  C   C1816     1.0  0.03002  0.80944  0.98465  1.0000
  H   H1453     1.0  0.30508  0.92215  0.98553  1.0000
  C   C1817     1.0  0.25187  0.76746  0.99199  1.0000
  C   C1818     1.0  0.99531  0.69213  0.15660  1.0000
  Fe  Fe120     1.0  0.25921  0.81220  0.99105  1.0000
  C   C1819     1.0  0.30232  0.86770  0.99872  1.0000
  H   H1454     1.0  0.48077  0.52386  0.17580  1.0000
  C   C1820     1.0  0.16369  0.78401  0.99396  1.0000
  C   C1821     1.0  0.41930  0.98411  0.17324  1.0000
  H   H1455     1.0  0.31652  0.98607  0.11829  1.0000
  C   C1822     1.0  0.18741  0.48748  0.16981  1.0000
  C   C1823     1.0  0.07406  0.49546  0.12872  1.0000
  H   H1456     1.0  0.05752  0.83885  0.98281  1.0000
  C   C1824     1.0  0.26596  0.89542  0.98632  1.0000
  C   C1825     1.0  0.02332  0.78359  0.98563  1.0000
  C   C1826     1.0  0.34178  0.92955  0.17292  1.0000
  H   H1457     1.0  0.99563  0.80278  0.05622  1.0000
  C   C1827     1.0  0.19077  0.90756  0.98482  1.0000
  H   H1458     1.0  0.06871  0.79259  0.99111  1.0000
  C   C1828     1.0  0.99820  0.55915  0.08815  1.0000
  C   C1829     1.0  0.04521  0.84509  0.98804  1.0000
  H   H1459     1.0  0.09996  0.84915  0.98585  1.0000
  C   C1830     1.0  0.26773  0.76958  0.98346  1.0000
  C   C1831     1.0  0.21281  0.92066  0.98359  1.0000
  C   C1832     1.0  0.99655  0.66707  0.99113  1.0000
  C   C1833     1.0  0.99607  0.77279  0.09754  1.0000
  C   C1834     1.0  0.34568  0.73392  0.99031  1.0000
  H   H1460     1.0  0.43176  0.97717  0.16970  1.0000
  C   C1835     1.0  0.02038  0.64244  0.00552  1.0000
  H   H1461     1.0  0.30576  0.86904  0.98547  1.0000
  C   C1836     1.0  0.02384  0.87014  0.98759  1.0000
  H   H1462     1.0  0.12104  0.86448  0.98314  1.0000
  H   H1463     1.0  0.20300  0.98656  0.02348  1.0000
  H   H1464     1.0  0.45035  0.60012  0.98743  1.0000
  Fe  Fe121     1.0  0.29657  0.79960  0.98562  1.0000
  C   C1837     1.0  0.00628  0.68610  0.03868  1.0000
  H   H1465     1.0  0.22700  0.94856  0.17951  1.0000
  C   C1838     1.0  0.10143  0.54720  0.18043  1.0000
  C   C1839     1.0  0.40622  0.97590  0.17956  1.0000
  H   H1466     1.0  0.24122  0.77454  0.98686  1.0000
  C   C1840     1.0  0.00773  0.68200  0.05513  1.0000
  C   C1841     1.0  0.35095  0.96980  0.18098  1.0000
  C   C1842     1.0  0.01417  0.70178  0.98637  1.0000
  C   C1843     1.0  0.01579  0.64057  0.99193  1.0000
  H   H1467     1.0  0.29354  0.76311  0.98379  1.0000
  C   C1844     1.0  0.99623  0.67422  0.06739  1.0000
  C   C1845     1.0  0.00013  0.71769  0.00728  1.0000
  C   C1846     1.0  0.00390  0.65290  0.98472  1.0000
  H   H1468     1.0  0.36307  0.96212  0.18158  1.0000
  H   H1469     1.0  0.10269  0.60608  0.18219  1.0000
  H   H1470     1.0  0.01960  0.88309  0.98233  1.0000
  H   H1471     1.0  0.05727  0.49503  0.32176  1.0000
  C   C1847     1.0  0.16294  0.52688  0.23014  1.0000
  H   H1472     1.0  0.01582  0.50224  0.29255  1.0000
  H   H1473     1.0  0.38585  0.81816  0.37992  1.0000
  S   S236      1.0  0.28028  0.62898  0.36693  1.0000
  C   C1848     1.0  0.44317  0.84632  0.32374  1.0000
  H   H1474     1.0  0.34209  0.96298  0.20728  1.0000
  H   H1475     1.0  0.16044  0.50898  0.33961  1.0000
  S   S237      1.0  0.24492  0.57630  0.35957  1.0000
  H   H1476     1.0  0.48241  0.52391  0.25113  1.0000
  S   S238      1.0  0.18490  0.53031  0.37299  1.0000
  H   H1477     1.0  0.48825  0.84354  0.27487  1.0000
  H   H1478     1.0  0.46753  0.57724  0.34387  1.0000
  S   S239      1.0  0.04148  0.51620  0.21497  1.0000
  Fe  Fe122     1.0  0.06643  0.54555  0.21916  1.0000
  S   S240      1.0  0.04750  0.53560  0.24019  1.0000
  S   S241      1.0  0.08083  0.56227  0.22198  1.0000
  Fe  Fe123     1.0  0.05864  0.51176  0.23197  1.0000
  C   C1849     1.0  0.48882  0.78212  0.34883  1.0000
  Fe  Fe124     1.0  0.03194  0.54109  0.22159  1.0000
  H   H1479     1.0  0.44204  0.87041  0.30764  1.0000
  S   S242      1.0  0.07877  0.52140  0.21211  1.0000
  S   S243      1.0  0.04974  0.55353  0.20125  1.0000
  H   H1480     1.0  0.17305  0.52057  0.23634  1.0000
  H   H1481     1.0  0.22480  0.97229  0.28609  1.0000
  S   S244      1.0  0.11944  0.53254  0.27994  1.0000
  C   C1850     1.0  0.31631  0.69596  0.36311  1.0000
  H   H1482     1.0  0.33046  0.98292  0.28466  1.0000
  S   S245      1.0  0.43821  0.67911  0.35966  1.0000
  H   H1483     1.0  0.48063  0.73874  0.30321  1.0000
  H   H1484     1.0  0.46142  0.70857  0.22284  1.0000
  Fe  Fe125     1.0  0.43849  0.78333  0.30609  1.0000
  S   S246      1.0  0.45300  0.79246  0.28088  1.0000
  S   S247      1.0  0.41582  0.77357  0.30977  1.0000
  C   C1851     1.0  0.18550  0.51062  0.32757  1.0000
  C   C1852     1.0  0.46929  0.76771  0.25179  1.0000
  Fe  Fe126     1.0  0.45490  0.81232  0.29203  1.0000
  S   S248      1.0  0.45358  0.83944  0.28084  1.0000
  C   C1853     1.0  0.47290  0.62925  0.31393  1.0000
  S   S249      1.0  0.43874  0.80422  0.31665  1.0000
  C   C1854     1.0  0.49228  0.71470  0.29785  1.0000
  Fe  Fe127     1.0  0.38500  0.93670  0.24016  1.0000
  S   S250      1.0  0.40940  0.92622  0.22494  1.0000
  S   S251      1.0  0.38244  0.94883  0.26089  1.0000
  Fe  Fe128     1.0  0.36512  0.92845  0.22056  1.0000
  S   S252      1.0  0.38768  0.91777  0.20349  1.0000
  S   S253      1.0  0.33917  0.92793  0.22086  1.0000
  Fe  Fe129     1.0  0.39756  0.90545  0.22644  1.0000
  S   S254      1.0  0.40685  0.87767  0.23088  1.0000
  Fe  Fe130     1.0  0.39709  0.93959  0.20365  1.0000
  C   C1855     1.0  0.46541  0.51324  0.24531  1.0000
  S   S255      1.0  0.37421  0.91498  0.24346  1.0000
  S   S256      1.0  0.37355  0.95139  0.21881  1.0000
  S   S257      1.0  0.30753  0.96118  0.29878  1.0000
  C   C1856     1.0  0.44758  0.71315  0.32699  1.0000
  C   C1857     1.0  0.33471  0.93255  0.20129  1.0000
  H   H1485     1.0  0.12612  0.54895  0.20889  1.0000
  H   H1486     1.0  0.04630  0.58424  0.22153  1.0000
  C   C1858     1.0  0.46722  0.85677  0.30683  1.0000
  H   H1487     1.0  0.47218  0.86656  0.29765  1.0000
  C   C1859     1.0  0.36181  0.95207  0.27187  1.0000
  C   C1860     1.0  0.35354  0.96780  0.27465  1.0000
  C   C1861     1.0  0.33683  0.97067  0.28280  1.0000
  C   C1862     1.0  0.32847  0.95770  0.28859  1.0000
  C   C1863     1.0  0.33685  0.94187  0.28611  1.0000
  C   C1864     1.0  0.35345  0.93909  0.27760  1.0000
  H   H1488     1.0  0.35993  0.97789  0.27016  1.0000
  H   H1489     1.0  0.05993  0.51727  0.35363  1.0000
  H   H1490     1.0  0.33039  0.93189  0.29040  1.0000
  H   H1491     1.0  0.35981  0.92694  0.27545  1.0000
  H   H1492     1.0  0.46145  0.79249  0.23843  1.0000
  C   C1865     1.0  0.44010  0.84996  0.26742  1.0000
  C   C1866     1.0  0.43839  0.86707  0.26157  1.0000
  C   C1867     1.0  0.42807  0.87575  0.25048  1.0000
  C   C1868     1.0  0.41939  0.86734  0.24525  1.0000
  C   C1869     1.0  0.42098  0.85024  0.25123  1.0000
  C   C1870     1.0  0.43128  0.84156  0.26234  1.0000
  H   H1493     1.0  0.44522  0.87361  0.26544  1.0000
  H   H1494     1.0  0.42713  0.88886  0.24566  1.0000
  H   H1495     1.0  0.41431  0.84370  0.24716  1.0000
  H   H1496     1.0  0.43252  0.82837  0.26682  1.0000
  C   C1871     1.0  0.33909  0.97035  0.19571  1.0000
  C   C1872     1.0  0.43467  0.63632  0.36343  1.0000
  C   C1873     1.0  0.40529  0.77784  0.34141  1.0000
  C   C1874     1.0  0.40964  0.76670  0.33106  1.0000
  C   C1875     1.0  0.40993  0.74994  0.33782  1.0000
  C   C1876     1.0  0.40643  0.74422  0.35498  1.0000
  C   C1877     1.0  0.22736  0.61294  0.33771  1.0000
  H   H1497     1.0  0.40517  0.79079  0.33622  1.0000
  H   H1498     1.0  0.41323  0.74130  0.32982  1.0000
  Fe  Fe131     1.0  0.06066  0.52831  0.19579  1.0000
  C   C1878     1.0  0.45775  0.66651  0.36071  1.0000
  C   C1879     1.0  0.47045  0.66762  0.34667  1.0000
  C   C1880     1.0  0.48010  0.51859  0.24219  1.0000
  H   H1499     1.0  0.46848  0.67653  0.33552  1.0000
  C   C1881     1.0  0.17135  0.51246  0.34024  1.0000
  S   S258      1.0  0.16528  0.51032  0.27327  1.0000
  C   C1882     1.0  0.45957  0.58264  0.33512  1.0000
  C   C1883     1.0  0.44053  0.75651  0.37293  1.0000
  P   P63       1.0  0.46991  0.61175  0.33069  1.0000
  C   C1884     1.0  0.09204  0.55330  0.23770  1.0000
  C   C1885     1.0  0.09375  0.56350  0.24692  1.0000
  C   C1886     1.0  0.10228  0.55688  0.25973  1.0000
  C   C1887     1.0  0.10975  0.54008  0.26307  1.0000
  C   C1888     1.0  0.10860  0.52985  0.25350  1.0000
  C   C1889     1.0  0.09937  0.53638  0.24107  1.0000
  H   H1500     1.0  0.08808  0.57648  0.24448  1.0000
  H   H1501     1.0  0.10311  0.56482  0.26710  1.0000
  H   H1502     1.0  0.11447  0.51689  0.25596  1.0000
  H   H1503     1.0  0.09813  0.52834  0.23404  1.0000
  C   C1890     1.0  0.39006  0.98501  0.18406  1.0000
  H   H1504     1.0  0.09297  0.49565  0.26427  1.0000
  C   C1891     1.0  0.18551  0.52316  0.35507  1.0000
  C   C1892     1.0  0.17383  0.51057  0.18299  1.0000
  H   H1505     1.0  0.33297  0.98273  0.23661  1.0000
  C   C1893     1.0  0.02748  0.60527  0.21346  1.0000
  C   C1894     1.0  0.44745  0.60610  0.31595  1.0000
  C   C1895     1.0  0.44625  0.70779  0.30139  1.0000
  H   H1506     1.0  0.23510  0.98128  0.23460  1.0000
  S   S259      1.0  0.46782  0.78632  0.34813  1.0000
  Fe  Fe132     1.0  0.47506  0.77704  0.29125  1.0000
  H   H1507     1.0  0.44541  0.69922  0.29471  1.0000
  H   H1508     1.0  0.26265  0.52508  0.36614  1.0000
  H   H1509     1.0  0.44054  0.63774  0.33736  1.0000
  H   H1510     1.0  0.44584  0.61901  0.30982  1.0000
  C   C1896     1.0  0.27033  0.61371  0.36641  1.0000
  C   C1897     1.0  0.27326  0.60924  0.35131  1.0000
  C   C1898     1.0  0.26555  0.59762  0.34970  1.0000
  C   C1899     1.0  0.25436  0.59054  0.36303  1.0000
  H   H1511     1.0  0.44783  0.70892  0.33996  1.0000
  C   C1900     1.0  0.02120  0.66273  0.20137  1.0000
  H   H1512     1.0  0.28167  0.61474  0.34075  1.0000
  H   H1513     1.0  0.26810  0.59425  0.33793  1.0000
  C   C1901     1.0  0.19958  0.51524  0.32875  1.0000
  H   H1514     1.0  0.33827  0.58752  0.35626  1.0000
  C   C1902     1.0  0.05727  0.48860  0.33442  1.0000
  C   C1903     1.0  0.23849  0.95304  0.27298  1.0000
  C   C1904     1.0  0.23693  0.96585  0.28068  1.0000
  C   C1905     1.0  0.25104  0.97042  0.28135  1.0000
  C   C1906     1.0  0.26674  0.96234  0.27419  1.0000
  C   C1907     1.0  0.26838  0.94988  0.26588  1.0000
  C   C1908     1.0  0.25417  0.94493  0.26579  1.0000
  P   P64       1.0  0.28865  0.93901  0.25713  1.0000
  C   C1909     1.0  0.28842  0.93213  0.23925  1.0000
  C   C1910     1.0  0.30293  0.95267  0.25018  1.0000
  C   C1911     1.0  0.31947  0.94684  0.25167  1.0000
  C   C1912     1.0  0.33029  0.95764  0.24656  1.0000
  C   C1913     1.0  0.32464  0.97435  0.24017  1.0000
  C   C1914     1.0  0.30826  0.98019  0.23843  1.0000
  C   C1915     1.0  0.29752  0.96934  0.24314  1.0000
  C   C1916     1.0  0.30017  0.91835  0.23464  1.0000
  C   C1917     1.0  0.30004  0.91307  0.22075  1.0000
  C   C1918     1.0  0.28843  0.92174  0.21113  1.0000
  C   C1919     1.0  0.27705  0.93578  0.21531  1.0000
  C   C1920     1.0  0.27714  0.94108  0.22921  1.0000
  C   C1921     1.0  0.29454  0.92238  0.27377  1.0000
  C   C1922     1.0  0.29296  0.90625  0.27517  1.0000
  C   C1923     1.0  0.29743  0.89366  0.28838  1.0000
  C   C1924     1.0  0.30297  0.89722  0.30054  1.0000
  C   C1925     1.0  0.30386  0.91340  0.29956  1.0000
  C   C1926     1.0  0.29968  0.92589  0.28624  1.0000
  H   H1515     1.0  0.10964  0.51172  0.34138  1.0000
  H   H1516     1.0  0.47828  0.81700  0.32727  1.0000
  C   C1927     1.0  0.23067  0.65542  0.36789  1.0000
  H   H1517     1.0  0.27753  0.96594  0.27510  1.0000
  H   H1518     1.0  0.25519  0.93489  0.26007  1.0000
  H   H1519     1.0  0.32417  0.93397  0.25657  1.0000
  H   H1520     1.0  0.44651  0.68955  0.32399  1.0000
  C   C1928     1.0  0.43897  0.62817  0.37852  1.0000
  C   C1929     1.0  0.47058  0.82892  0.32336  1.0000
  H   H1521     1.0  0.28492  0.97397  0.24160  1.0000
  H   H1522     1.0  0.30985  0.91209  0.24135  1.0000
  H   H1523     1.0  0.30952  0.90281  0.21695  1.0000
  C   C1930     1.0  0.46260  0.50604  0.23396  1.0000
  H   H1524     1.0  0.26852  0.94291  0.20747  1.0000
  H   H1525     1.0  0.26866  0.95237  0.23183  1.0000
  H   H1526     1.0  0.28818  0.90338  0.26617  1.0000
  H   H1527     1.0  0.29644  0.88118  0.28926  1.0000
  H   H1528     1.0  0.30637  0.88753  0.31082  1.0000
  H   H1529     1.0  0.30769  0.91644  0.30910  1.0000
  H   H1530     1.0  0.30032  0.93840  0.28569  1.0000
  H   H1531     1.0  0.24984  0.98041  0.28723  1.0000
  S   S260      1.0  0.19851  0.57043  0.37412  1.0000
  C   C1931     1.0  0.45004  0.85902  0.31247  1.0000
  C   C1932     1.0  0.31337  0.58948  0.37067  1.0000
  C   C1933     1.0  0.47767  0.84177  0.31249  1.0000
  C   C1934     1.0  0.44149  0.77955  0.24746  1.0000
  C   C1935     1.0  0.48891  0.68253  0.37309  1.0000
  H   H1532     1.0  0.47680  0.66904  0.30682  1.0000
  H   H1533     1.0  0.01314  0.57976  0.20334  1.0000
  H   H1534     1.0  0.19725  0.64091  0.36642  1.0000
  H   H1535     1.0  0.47362  0.74282  0.26590  1.0000
  C   C1936     1.0  0.47650  0.65754  0.30421  1.0000
  C   C1937     1.0  0.99924  0.60355  0.22775  1.0000
  C   C1938     1.0  0.34131  0.71355  0.35627  1.0000
  H   H1536     1.0  0.43634  0.79271  0.36759  1.0000
  H   H1537     1.0  0.16680  0.50752  0.21755  1.0000
  H   H1538     1.0  0.13419  0.49775  0.35292  1.0000
  H   H1539     1.0  0.30259  0.95194  0.18243  1.0000
  P   P65       1.0  0.04165  0.61505  0.19655  1.0000
  C   C1939     1.0  0.15303  0.54188  0.23348  1.0000
  H   H1540     1.0  0.11559  0.50124  0.19527  1.0000
  H   H1541     1.0  0.13969  0.49862  0.23400  1.0000
  H   H1542     1.0  0.37986  0.97881  0.18875  1.0000
  C   C1940     1.0  0.23839  0.66733  0.36908  1.0000
  H   H1543     1.0  0.33456  0.67886  0.34984  1.0000
  H   H1544     1.0  0.13199  0.56125  0.22846  1.0000
  H   H1545     1.0  0.48406  0.70839  0.30794  1.0000
  C   C1941     1.0  0.27660  0.54289  0.36459  1.0000
  C   C1942     1.0  0.02668  0.64555  0.20485  1.0000
  C   C1943     1.0  0.43848  0.59631  0.31301  1.0000
  H   H1546     1.0  0.45633  0.51447  0.25666  1.0000
  H   H1547     1.0  0.30994  0.60275  0.36638  1.0000
  C   C1944     1.0  0.21655  0.98658  0.18853  1.0000
  C   C1945     1.0  0.01229  0.48864  0.25466  1.0000
  H   H1548     1.0  0.20989  0.68760  0.36132  1.0000
  C   C1946     1.0  0.44015  0.57967  0.32100  1.0000
  H   H1549     1.0  0.22324  0.63226  0.38061  1.0000
  H   H1550     1.0  0.43256  0.78993  0.24240  1.0000
  C   C1947     1.0  0.20570  0.63321  0.35834  1.0000
  H   H1551     1.0  0.48984  0.83012  0.34166  1.0000
  H   H1552     1.0  0.15531  0.54715  0.24247  1.0000
  H   H1553     1.0  0.42431  0.64683  0.36291  1.0000
  H   H1554     1.0  0.27731  0.54771  0.35149  1.0000
  C   C1948     1.0  0.48946  0.50917  0.21644  1.0000
  H   H1555     1.0  0.48191  0.76885  0.25007  1.0000
  C   C1949     1.0  0.17143  0.51854  0.35389  1.0000
  H   H1556     1.0  0.28932  0.56011  0.36667  1.0000
  C   C1950     1.0  0.10438  0.48917  0.33935  1.0000
  H   H1557     1.0  0.49313  0.82615  0.25496  1.0000
  H   H1558     1.0  0.48738  0.69078  0.23060  1.0000
  C   C1951     1.0  0.28330  0.54998  0.37330  1.0000
  C   C1952     1.0  0.13653  0.54263  0.21451  1.0000
  H   H1559     1.0  0.31373  0.97956  0.20674  1.0000
  C   C1953     1.0  0.06329  0.60992  0.21715  1.0000
  C   C1954     1.0  0.22242  0.96952  0.19037  1.0000
  H   H1560     1.0  0.10743  0.53764  0.20419  1.0000
  H   H1561     1.0  0.41237  0.81351  0.35945  1.0000
  S   S261      1.0  0.00457  0.55100  0.22886  1.0000
  C   C1955     1.0  0.19958  0.52156  0.34227  1.0000
  C   C1956     1.0  0.07889  0.60710  0.22063  1.0000
  H   H1562     1.0  0.05243  0.61098  0.22705  1.0000
  H   H1563     1.0  0.43962  0.74655  0.35307  1.0000
  C   C1957     1.0  0.47270  0.64438  0.31715  1.0000
  H   H1564     1.0  0.06268  0.58568  0.18459  1.0000
  H   H1565     1.0  0.16733  0.67447  0.37191  1.0000
  H   H1566     1.0  0.43026  0.60161  0.30450  1.0000
  H   H1567     1.0  0.16047  0.51966  0.36365  1.0000
  H   H1568     1.0  0.48493  0.63884  0.27203  1.0000
  H   H1569     1.0  0.22797  0.96249  0.20074  1.0000
  P   P66       1.0  0.08621  0.49919  0.33076  1.0000
  C   C1958     1.0  0.08020  0.52051  0.33251  1.0000
  C   C1959     1.0  0.06689  0.52585  0.34485  1.0000
  C   C1960     1.0  0.06254  0.54245  0.34598  1.0000
  C   C1961     1.0  0.07145  0.55376  0.33483  1.0000
  C   C1962     1.0  0.08475  0.54848  0.32258  1.0000
  C   C1963     1.0  0.08913  0.53192  0.32146  1.0000
  C   C1964     1.0  0.08967  0.49864  0.30926  1.0000
  H   H1570     1.0  0.48442  0.66560  0.27803  1.0000
  C   C1965     1.0  0.07607  0.61028  0.18837  1.0000
  C   C1966     1.0  0.09215  0.49645  0.27677  1.0000
  C   C1967     1.0  0.08175  0.51004  0.28274  1.0000
  C   C1968     1.0  0.08046  0.51114  0.29890  1.0000
  Fe  Fe133     1.0  0.46227  0.78849  0.32360  1.0000
  C   C1969     1.0  0.15805  0.63115  0.37959  1.0000
  H   H1571     1.0  0.05229  0.54655  0.35553  1.0000
  H   H1572     1.0  0.06812  0.56660  0.33571  1.0000
  H   H1573     1.0  0.09178  0.55712  0.31391  1.0000
  H   H1574     1.0  0.09960  0.52796  0.31202  1.0000
  H   H1575     1.0  0.01487  0.66910  0.21131  1.0000
  H   H1576     1.0  0.48366  0.72716  0.37252  1.0000
  H   H1577     1.0  0.07476  0.51975  0.27472  1.0000
  H   H1578     1.0  0.07211  0.52170  0.30328  1.0000
  C   C1970     1.0  0.47722  0.62736  0.29756  1.0000
  C   C1971     1.0  0.47450  0.50415  0.21948  1.0000
  C   C1972     1.0  0.30176  0.58102  0.38190  1.0000
  Fe  Fe134     1.0  0.13866  0.50875  0.28240  1.0000
  C   C1973     1.0  0.40125  0.77221  0.35854  1.0000
  H   H1579     1.0  0.34511  0.89033  0.23729  1.0000
  C   C1974     1.0  0.48479  0.69376  0.35894  1.0000
  H   H1580     1.0  0.21063  0.51388  0.31911  1.0000
  H   H1581     1.0  0.43332  0.57205  0.31860  1.0000
  H   H1582     1.0  0.08908  0.55363  0.18534  1.0000
  C   C1975     1.0  0.31910  0.94185  0.19905  1.0000
  C   C1976     1.0  0.36810  0.75226  0.33457  1.0000
  H   H1583     1.0  0.99709  0.60015  0.18348  1.0000
  H   H1584     1.0  0.30102  0.71455  0.37633  1.0000
  P   P67       1.0  0.35784  0.72373  0.35394  1.0000
  H   H1585     1.0  0.45123  0.50182  0.23643  1.0000
  C   C1977     1.0  0.35519  0.74371  0.33992  1.0000
  H   H1586     1.0  0.01092  0.51422  0.24234  1.0000
  C   C1978     1.0  0.36647  0.76759  0.32359  1.0000
  C   C1979     1.0  0.35192  0.77452  0.31775  1.0000
  C   C1980     1.0  0.33901  0.76608  0.32290  1.0000
  C   C1981     1.0  0.34063  0.75071  0.33393  1.0000
  H   H1587     1.0  0.35824  0.91929  0.18983  1.0000
  H   H1588     1.0  0.22696  0.67814  0.31509  1.0000
  Fe  Fe135     1.0  0.16885  0.49546  0.29844  1.0000
  S   S262      1.0  0.46032  0.76660  0.31574  1.0000
  H   H1589     1.0  0.22755  0.94944  0.27253  1.0000
  C   C1982     1.0  0.37746  0.71082  0.34648  1.0000
  C   C1983     1.0  0.38404  0.69657  0.35712  1.0000
  C   C1984     1.0  0.39909  0.68635  0.35156  1.0000
  C   C1985     1.0  0.40769  0.69025  0.33527  1.0000
  C   C1986     1.0  0.40112  0.70429  0.32444  1.0000
  C   C1987     1.0  0.38594  0.71443  0.32995  1.0000
  C   C1988     1.0  0.45303  0.71811  0.24503  1.0000
  C   C1989     1.0  0.01341  0.50993  0.26736  1.0000
  H   H1590     1.0  0.39807  0.78080  0.36656  1.0000
  C   C1990     1.0  0.48116  0.64050  0.28461  1.0000
  C   C1991     1.0  0.32932  0.58088  0.36495  1.0000
  H   H1591     1.0  0.33070  0.86362  0.34769  1.0000
  C   C1992     1.0  0.36132  0.73975  0.37672  1.0000
  H   H1592     1.0  0.35065  0.78643  0.30925  1.0000
  H   H1593     1.0  0.32773  0.77146  0.31836  1.0000
  H   H1594     1.0  0.33053  0.74438  0.33766  1.0000
  H   H1595     1.0  0.08934  0.49962  0.18462  1.0000
  S   S263      1.0  0.18655  0.50221  0.31032  1.0000
  H   H1596     1.0  0.48982  0.75042  0.34353  1.0000
  H   H1597     1.0  0.47199  0.49876  0.21074  1.0000
  H   H1598     1.0  0.47272  0.69545  0.35639  1.0000
  C   C1993     1.0  0.03455  0.63719  0.19200  1.0000
  H   H1599     1.0  0.40430  0.67563  0.36004  1.0000
  H   H1600     1.0  0.41953  0.68245  0.33118  1.0000
  H   H1601     1.0  0.40786  0.70739  0.31184  1.0000
  H   H1602     1.0  0.38096  0.72503  0.32129  1.0000
  H   H1603     1.0  0.31764  0.89272  0.34967  1.0000
  C   C1994     1.0  0.46208  0.60990  0.36471  1.0000
  H   H1604     1.0  0.02471  0.63877  0.21755  1.0000
  H   H1605     1.0  0.35349  0.85737  0.32431  1.0000
  H   H1606     1.0  0.30690  0.68879  0.36624  1.0000
  C   C1995     1.0  0.45062  0.57287  0.33212  1.0000
  H   H1607     1.0  0.47473  0.70813  0.27533  1.0000
  H   H1608     1.0  0.37657  0.77405  0.31964  1.0000
  H   H1609     1.0  0.37946  0.74699  0.33893  1.0000
  H   H1610     1.0  0.24084  0.67739  0.35871  1.0000
  C   C1996     1.0  0.02207  0.58182  0.23572  1.0000
  H   H1611     1.0  0.24279  0.63040  0.33071  1.0000
  C   C1997     1.0  0.48607  0.65743  0.34704  1.0000
  C   C1998     1.0  0.44402  0.63126  0.34896  1.0000
  C   C1999     1.0  0.44691  0.74636  0.36154  1.0000
  C   C2000     1.0  0.32310  0.97971  0.19549  1.0000
  C   C2001     1.0  0.12790  0.52957  0.18505  1.0000
  P   P68       1.0  0.14054  0.51635  0.19929  1.0000
  C   C2002     1.0  0.23931  0.67228  0.31701  1.0000
  H   H1612     1.0  0.34306  0.95305  0.24764  1.0000
  C   C2003     1.0  0.12878  0.50168  0.21316  1.0000
  C   C2004     1.0  0.15897  0.50500  0.18789  1.0000
  H   H1613     1.0  0.44822  0.82131  0.33779  1.0000
  S   S264      1.0  0.14186  0.49508  0.30792  1.0000
  C   C2005     1.0  0.48084  0.65557  0.28795  1.0000
  C   C2006     1.0  0.12717  0.49052  0.35020  1.0000
  S   S265      1.0  0.06568  0.49062  0.25242  1.0000
  C   C2007     1.0  0.03324  0.59005  0.22347  1.0000
  C   C2008     1.0  0.35728  0.72595  0.37437  1.0000
  C   C2009     1.0  0.09310  0.60549  0.20808  1.0000
  H   H1614     1.0  0.21055  0.52495  0.34291  1.0000
  C   C2010     1.0  0.40223  0.75535  0.36535  1.0000
  C   C2011     1.0  0.46451  0.75301  0.26086  1.0000
  Fe  Fe136     1.0  0.22454  0.56490  0.37788  1.0000
  H   H1615     1.0  0.01352  0.52271  0.26640  1.0000
  C   C2012     1.0  0.01203  0.50514  0.25371  1.0000
  C   C2013     1.0  0.15838  0.49090  0.18312  1.0000
  C   C2014     1.0  0.45347  0.83131  0.32925  1.0000
  H   H1616     1.0  0.25079  0.68371  0.29258  1.0000
  H   H1617     1.0  0.33969  0.90014  0.28463  1.0000
  S   S266      1.0  0.25383  0.97788  0.20274  1.0000
  C   C2015     1.0  0.47167  0.73548  0.37251  1.0000
  H   H1618     1.0  0.42988  0.84795  0.32785  1.0000
  H   H1619     1.0  0.34599  0.55707  0.36585  1.0000
  C   C2016     1.0  0.46072  0.65519  0.37522  1.0000
  H   H1620     1.0  0.23595  0.60475  0.33014  1.0000
  H   H1621     1.0  0.42826  0.76409  0.37323  1.0000
  H   H1622     1.0  0.36495  0.74944  0.36650  1.0000
  C   C2017     1.0  0.11319  0.49841  0.34352  1.0000
  H   H1623     1.0  0.16004  0.66628  0.35009  1.0000
  H   H1624     1.0  0.46728  0.72798  0.35251  1.0000
  C   C2018     1.0  0.32550  0.71919  0.36547  1.0000
  C   C2019     1.0  0.00509  0.58855  0.23785  1.0000
  H   H1625     1.0  0.32914  0.90470  0.25973  1.0000
  H   H1626     1.0  0.37765  0.69339  0.36979  1.0000
  C   C2020     1.0  0.14610  0.52726  0.21147  1.0000
  C   C2021     1.0  0.45636  0.71769  0.26018  1.0000
  H   H1627     1.0  0.40725  0.73119  0.36014  1.0000
  P   P69       1.0  0.44297  0.73162  0.27294  1.0000
  C   C2022     1.0  0.42121  0.73229  0.27606  1.0000
  C   C2023     1.0  0.44633  0.72435  0.29359  1.0000
  C   C2024     1.0  0.44689  0.73532  0.30267  1.0000
  C   C2025     1.0  0.44759  0.72964  0.31932  1.0000
  C   C2026     1.0  0.40961  0.74386  0.28447  1.0000
  C   C2027     1.0  0.39273  0.74406  0.28788  1.0000
  C   C2028     1.0  0.38731  0.73247  0.28326  1.0000
  C   C2029     1.0  0.39881  0.72058  0.27535  1.0000
  C   C2030     1.0  0.41573  0.72038  0.27187  1.0000
  C   C2031     1.0  0.44820  0.75141  0.26315  1.0000
  C   C2032     1.0  0.34618  0.92656  0.18815  1.0000
  C   C2033     1.0  0.00117  0.57835  0.20292  1.0000
  C   C2034     1.0  0.47871  0.69826  0.23883  1.0000
  H   H1628     1.0  0.48423  0.77135  0.37474  1.0000
  C   C2035     1.0  0.43673  0.76476  0.25625  1.0000
  C   C2036     1.0  0.02371  0.67167  0.18506  1.0000
  H   H1629     1.0  0.44636  0.74828  0.29707  1.0000
  H   H1630     1.0  0.44757  0.73811  0.32650  1.0000
  H   H1631     1.0  0.41366  0.75266  0.28852  1.0000
  H   H1632     1.0  0.38390  0.75314  0.29427  1.0000
  H   H1633     1.0  0.37422  0.73260  0.28599  1.0000
  H   H1634     1.0  0.39463  0.71141  0.27204  1.0000
  H   H1635     1.0  0.42445  0.71074  0.26624  1.0000
  C   C2037     1.0  0.25119  0.59503  0.37825  1.0000
  H   H1636     1.0  0.99644  0.58174  0.24685  1.0000
  H   H1637     1.0  0.47792  0.61563  0.29486  1.0000
  H   H1638     1.0  0.19109  0.61457  0.36614  1.0000
  H   H1639     1.0  0.42420  0.76381  0.25740  1.0000
  H   H1640     1.0  0.21026  0.59682  0.34758  1.0000
  H   H1641     1.0  0.15446  0.63847  0.35472  1.0000
  C   C2038     1.0  0.13992  0.54981  0.22557  1.0000
  C   C2039     1.0  0.49023  0.73194  0.29510  1.0000
  C   C2040     1.0  0.16465  0.66241  0.37434  1.0000
  H   H1642     1.0  0.31033  0.94674  0.20910  1.0000
  H   H1643     1.0  0.32298  0.73008  0.37047  1.0000
  H   H1644     1.0  0.47994  0.67556  0.38089  1.0000
  C   C2041     1.0  0.49055  0.60049  0.33268  1.0000
  H   H1645     1.0  0.37197  0.87089  0.23999  1.0000
  H   H1646     1.0  0.47262  0.59963  0.36548  1.0000
  H   H1647     1.0  0.45188  0.55999  0.33836  1.0000
  C   C2042     1.0  0.33193  0.69039  0.35377  1.0000
  C   C2043     1.0  0.15944  0.51956  0.21930  1.0000
  H   H1648     1.0  0.49209  0.58267  0.31846  1.0000
  C   C2044     1.0  0.20208  0.61844  0.35809  1.0000
  H   H1649     1.0  0.44204  0.72626  0.24125  1.0000
  H   H1650     1.0  0.37062  0.66053  0.37661  1.0000
  C   C2045     1.0  0.45836  0.59922  0.32674  1.0000
  C   C2046     1.0  0.48239  0.69824  0.25361  1.0000
  C   C2047     1.0  0.41140  0.80663  0.37209  1.0000
  H   H1651     1.0  0.47015  0.64584  0.32968  1.0000
  C   C2048     1.0  0.01038  0.61185  0.21552  1.0000
  H   H1652     1.0  0.10520  0.60281  0.21091  1.0000
  C   C2049     1.0  0.22032  0.63782  0.34840  1.0000
  C   C2050     1.0  0.23121  0.62749  0.33818  1.0000
  P   P70       1.0  0.22479  0.65693  0.34885  1.0000
  C   C2051     1.0  0.06965  0.48871  0.34210  1.0000
  C   C2052     1.0  0.24189  0.66158  0.33204  1.0000
  H   H1653     1.0  0.02652  0.56990  0.24315  1.0000
  C   C2053     1.0  0.25282  0.67548  0.30416  1.0000
  C   C2054     1.0  0.26895  0.66800  0.30622  1.0000
  C   C2055     1.0  0.27158  0.65729  0.32111  1.0000
  C   C2056     1.0  0.25810  0.65410  0.33391  1.0000
  C   C2057     1.0  0.11728  0.49668  0.20782  1.0000
  C   C2058     1.0  0.16065  0.65777  0.36183  1.0000
  C   C2059     1.0  0.06182  0.61102  0.20108  1.0000
  H   H1654     1.0  0.01803  0.80516  0.18642  1.0000
  C   C2060     1.0  0.15742  0.64213  0.36443  1.0000
  C   C2061     1.0  0.20673  0.67315  0.34591  1.0000
  C   C2062     1.0  0.19711  0.67263  0.33536  1.0000
  C   C2063     1.0  0.18380  0.68567  0.33201  1.0000
  C   C2064     1.0  0.17990  0.69926  0.33927  1.0000
  C   C2065     1.0  0.18937  0.69983  0.34983  1.0000
  C   C2066     1.0  0.20270  0.68682  0.35320  1.0000
  C   C2067     1.0  0.49200  0.51678  0.22771  1.0000
  H   H1655     1.0  0.00559  0.62307  0.20732  1.0000
  C   C2068     1.0  0.45778  0.78100  0.24515  1.0000
  C   C2069     1.0  0.47133  0.70798  0.26420  1.0000
  C   C2070     1.0  0.01478  0.49829  0.28209  1.0000
  C   C2071     1.0  0.26822  0.53021  0.37288  1.0000
  C   C2072     1.0  0.13079  0.49532  0.22947  1.0000
  H   H1656     1.0  0.27942  0.67043  0.29627  1.0000
  H   H1657     1.0  0.28403  0.65136  0.32282  1.0000
  H   H1658     1.0  0.26028  0.64566  0.34528  1.0000
  C   C2073     1.0  0.99454  0.56515  0.21375  1.0000
  S   S267      1.0  0.47842  0.79789  0.29986  1.0000
  C   C2074     1.0  0.21285  0.60839  0.34767  1.0000
  C   C2075     1.0  0.46246  0.73585  0.36132  1.0000
  C   C2076     1.0  0.45797  0.61819  0.34946  1.0000
  H   H1659     1.0  0.20009  0.66229  0.32944  1.0000
  H   H1660     1.0  0.17657  0.68527  0.32370  1.0000
  H   H1661     1.0  0.16963  0.70939  0.33663  1.0000
  H   H1662     1.0  0.18648  0.71047  0.35528  1.0000
  C   C2077     1.0  0.33365  0.56376  0.37038  1.0000
  H   H1663     1.0  0.15572  0.61889  0.38169  1.0000
  H   H1664     1.0  0.38286  0.86596  0.26479  1.0000
  H   H1665     1.0  0.17451  0.52167  0.18608  1.0000
  C   C2078     1.0  0.45265  0.61496  0.37917  1.0000
  C   C2079     1.0  0.44689  0.70225  0.31800  1.0000
  H   H1666     1.0  0.07999  0.60583  0.23313  1.0000
  C   C2080     1.0  0.38430  0.82869  0.30046  1.0000
  C   C2081     1.0  0.40073  0.82536  0.30188  1.0000
  C   C2082     1.0  0.40778  0.83824  0.30166  1.0000
  C   C2083     1.0  0.39847  0.85442  0.30002  1.0000
  C   C2084     1.0  0.38196  0.85789  0.29851  1.0000
  C   C2085     1.0  0.37495  0.84490  0.29870  1.0000
  P   P71       1.0  0.37016  0.87891  0.29504  1.0000
  C   C2086     1.0  0.35347  0.88302  0.31245  1.0000
  C   C2087     1.0  0.38391  0.89276  0.29101  1.0000
  C   C2088     1.0  0.38501  0.89953  0.30365  1.0000
  C   C2089     1.0  0.39513  0.91078  0.30028  1.0000
  C   C2090     1.0  0.40457  0.91498  0.28442  1.0000
  C   C2091     1.0  0.40418  0.90766  0.27203  1.0000
  C   C2092     1.0  0.39399  0.89650  0.27531  1.0000
  C   C2093     1.0  0.34597  0.89942  0.31373  1.0000
  C   C2094     1.0  0.33317  0.90289  0.32711  1.0000
  C   C2095     1.0  0.32760  0.88999  0.33930  1.0000
  C   C2096     1.0  0.33495  0.87361  0.33816  1.0000
  C   C2097     1.0  0.34788  0.87011  0.32482  1.0000
  C   C2098     1.0  0.36188  0.88225  0.27697  1.0000
  C   C2099     1.0  0.37080  0.87401  0.26420  1.0000
  C   C2100     1.0  0.36462  0.87670  0.25009  1.0000
  C   C2101     1.0  0.34951  0.88763  0.24857  1.0000
  C   C2102     1.0  0.34053  0.89581  0.26122  1.0000
  C   C2103     1.0  0.34667  0.89321  0.27534  1.0000
  H   H1667     1.0  0.37897  0.81871  0.30040  1.0000
  H   H1668     1.0  0.40808  0.81284  0.30285  1.0000
  H   H1669     1.0  0.42066  0.83583  0.30222  1.0000
  H   H1670     1.0  0.40445  0.86415  0.29943  1.0000
  H   H1671     1.0  0.36238  0.84739  0.29711  1.0000
  H   H1672     1.0  0.37792  0.89637  0.31606  1.0000
  H   H1673     1.0  0.39539  0.91655  0.30984  1.0000
  H   H1674     1.0  0.41193  0.92418  0.28157  1.0000
  H   H1675     1.0  0.41144  0.91105  0.25973  1.0000
  H   H1676     1.0  0.39393  0.89097  0.26551  1.0000
  H   H1677     1.0  0.35015  0.90958  0.30440  1.0000
  H   H1678     1.0  0.32758  0.91564  0.32796  1.0000
  C   C2104     1.0  0.09168  0.60725  0.19192  1.0000
  C   C2105     1.0  0.34440  0.69914  0.35033  1.0000
  C   C2106     1.0  0.22838  0.64208  0.38133  1.0000
  C   C2107     1.0  0.48906  0.64589  0.36135  1.0000
  H   H1679     1.0  0.35652  0.69425  0.34353  1.0000
  C   C2108     1.0  0.42503  0.79484  0.37676  1.0000
  H   H1680     1.0  0.28878  0.91808  0.19998  1.0000
  C   C2109     1.0  0.25935  0.60646  0.38001  1.0000
  C   C2110     1.0  0.46406  0.70824  0.23450  1.0000
  C   C2111     1.0  0.47633  0.64462  0.37542  1.0000
  C   C2112     1.0  0.11198  0.53825  0.19111  1.0000
  C   C2113     1.0  0.31306  0.71042  0.36885  1.0000
  C   C2114     1.0  0.31480  0.94499  0.18384  1.0000
  Fe  Fe137     1.0  0.42712  0.68960  0.38214  1.0000
  C   C2115     1.0  0.32203  0.55525  0.38158  1.0000
  H   H1681     1.0  0.01914  0.68492  0.18233  1.0000
  Fe  Fe138     1.0  0.00574  0.73568  0.54206  1.0000
  H   H1682     1.0  0.23158  0.63067  0.40614  1.0000
  H   H1683     1.0  0.19307  0.53075  0.44717  1.0000
  Fe  Fe139     1.0  0.04339  0.72776  0.53424  1.0000
  S   S268      1.0  0.04448  0.73093  0.55884  1.0000
  S   S269      1.0  0.06758  0.72439  0.51552  1.0000
  H   H1684     1.0  0.32747  0.50050  0.44320  1.0000
  Fe  Fe140     1.0  0.02406  0.75318  0.55496  1.0000
  H   H1685     1.0  0.31447  0.55345  0.51379  1.0000
  S   S270      1.0  0.02473  0.71172  0.54490  1.0000
  S   S271      1.0  0.02441  0.75133  0.52941  1.0000
  Fe  Fe141     1.0  0.16813  0.66184  0.46844  1.0000
  S   S272      1.0  0.18268  0.64086  0.48381  1.0000
  S   S273      1.0  0.18103  0.67914  0.44723  1.0000
  Fe  Fe142     1.0  0.13499  0.65351  0.48852  1.0000
  S   S274      1.0  0.14742  0.63161  0.50518  1.0000
  S   S275      1.0  0.10709  0.65762  0.49304  1.0000
  Fe  Fe143     1.0  0.16319  0.64820  0.50527  1.0000
  S   S276      1.0  0.16804  0.64847  0.52946  1.0000
  Fe  Fe144     1.0  0.16559  0.62625  0.48227  1.0000
  S   S277      1.0  0.17671  0.60066  0.47794  1.0000
  S   S278      1.0  0.14973  0.67064  0.49008  1.0000
  S   S279      1.0  0.15207  0.64671  0.46543  1.0000
  Fe  Fe145     1.0  0.27804  0.65029  0.41701  1.0000
  S   S280      1.0  0.27440  0.62613  0.41525  1.0000
  S   S281      1.0  0.25923  0.66871  0.43063  1.0000
  Fe  Fe146     1.0  0.30019  0.61632  0.41969  1.0000
  S   S282      1.0  0.30729  0.59108  0.43522  1.0000
  S   S283      1.0  0.30282  0.63986  0.42397  1.0000
  Fe  Fe147     1.0  0.22339  0.56513  0.54479  1.0000
  S   S284      1.0  0.22909  0.53825  0.54449  1.0000
  S   S285      1.0  0.20176  0.57678  0.56245  1.0000
  Fe  Fe148     1.0  0.25461  0.57092  0.51927  1.0000
  S   S286      1.0  0.26240  0.54459  0.51657  1.0000
  S   S287      1.0  0.27009  0.59007  0.50894  1.0000
  Fe  Fe149     1.0  0.23556  0.54701  0.51677  1.0000
  S   S288      1.0  0.22283  0.53745  0.50239  1.0000
  Fe  Fe150     1.0  0.25522  0.53855  0.54429  1.0000
  S   S289      1.0  0.27311  0.52071  0.55955  1.0000
  S   S290      1.0  0.22842  0.57397  0.51739  1.0000
  S   S291      1.0  0.24886  0.56476  0.54668  1.0000
  H   H1686     1.0  0.35019  0.70256  0.38685  1.0000
  S   S292      1.0  0.19081  0.54443  0.40965  1.0000
  S   S293      1.0  0.17046  0.59112  0.41020  1.0000
  Fe  Fe151     1.0  0.21738  0.54134  0.41068  1.0000
  S   S294      1.0  0.23022  0.52496  0.43121  1.0000
  S   S295      1.0  0.21710  0.56834  0.40375  1.0000
  Fe  Fe152     1.0  0.39927  0.68826  0.41185  1.0000
  S   S296      1.0  0.37698  0.67690  0.42473  1.0000
  Fe  Fe153     1.0  0.43226  0.69554  0.41305  1.0000
  C   C2116     1.0  0.11504  0.61099  0.47836  1.0000
  S   S297      1.0  0.45040  0.69210  0.42921  1.0000
  H   H1687     1.0  0.14556  0.59547  0.49990  1.0000
  H   H1688     1.0  0.13513  0.60210  0.53784  1.0000
  Fe  Fe154     1.0  0.19126  0.57129  0.40089  1.0000
  S   S298      1.0  0.40545  0.70803  0.42013  1.0000
  S   S299      1.0  0.42569  0.67415  0.40773  1.0000
  C   C2117     1.0  0.13546  0.58079  0.48997  1.0000
  C   C2118     1.0  0.17515  0.56529  0.50702  1.0000
  C   C2119     1.0  0.46398  0.70541  0.42649  1.0000
  C   C2120     1.0  0.46428  0.71072  0.44030  1.0000
  H   H1689     1.0  0.08890  0.69751  0.55146  1.0000
  C   C2121     1.0  0.47584  0.70896  0.41187  1.0000
  H   H1690     1.0  0.45547  0.70781  0.45172  1.0000
  S   S300      1.0  0.22643  0.53737  0.38460  1.0000
  H   H1691     1.0  0.24444  0.65219  0.40820  1.0000
  C   C2122     1.0  0.24874  0.50087  0.52379  1.0000
  H   H1692     1.0  0.26016  0.53957  0.43872  1.0000
  C   C2123     1.0  0.24314  0.98304  0.50277  1.0000
  C   C2124     1.0  0.48812  0.72279  0.42533  1.0000
  C   C2125     1.0  0.27476  0.53501  0.47283  1.0000
  C   C2126     1.0  0.22789  0.53541  0.48157  1.0000
  C   C2127     1.0  0.23384  0.51954  0.47832  1.0000
  H   H1693     1.0  0.23912  0.50436  0.46065  1.0000
  C   C2128     1.0  0.22908  0.52969  0.45034  1.0000
  C   C2129     1.0  0.22312  0.54567  0.45343  1.0000
  C   C2130     1.0  0.22252  0.54850  0.46902  1.0000
  C   C2131     1.0  0.30959  0.49171  0.48605  1.0000
  H   H1694     1.0  0.21253  0.60273  0.43935  1.0000
  H   H1695     1.0  0.21857  0.55570  0.44401  1.0000
  H   H1696     1.0  0.21714  0.56065  0.47163  1.0000
  C   C2132     1.0  0.34067  0.66555  0.41089  1.0000
  C   C2133     1.0  0.34962  0.67040  0.41953  1.0000
  C   C2134     1.0  0.36617  0.67149  0.41291  1.0000
  C   C2135     1.0  0.27493  0.56647  0.41321  1.0000
  H   H1697     1.0  0.32789  0.66487  0.41601  1.0000
  H   H1698     1.0  0.34372  0.67354  0.43133  1.0000
  C   C2136     1.0  0.29688  0.59080  0.45565  1.0000
  C   C2137     1.0  0.28951  0.57757  0.46475  1.0000
  C   C2138     1.0  0.28097  0.57742  0.48111  1.0000
  C   C2139     1.0  0.28041  0.59013  0.48851  1.0000
  C   C2140     1.0  0.28799  0.60321  0.47945  1.0000
  C   C2141     1.0  0.29587  0.60377  0.46290  1.0000
  H   H1699     1.0  0.29007  0.56766  0.45905  1.0000
  H   H1700     1.0  0.27489  0.56747  0.48802  1.0000
  H   H1701     1.0  0.28746  0.61306  0.48516  1.0000
  H   H1702     1.0  0.30128  0.61416  0.45585  1.0000
  C   C2142     1.0  0.17387  0.59734  0.45985  1.0000
  C   C2143     1.0  0.18472  0.58446  0.45291  1.0000
  C   C2144     1.0  0.18364  0.58243  0.43772  1.0000
  C   C2145     1.0  0.17141  0.59299  0.42964  1.0000
  C   C2146     1.0  0.15999  0.60533  0.43702  1.0000
  C   C2147     1.0  0.16131  0.60760  0.45204  1.0000
  H   H1703     1.0  0.19419  0.57626  0.45910  1.0000
  H   H1704     1.0  0.19215  0.57253  0.43241  1.0000
  H   H1705     1.0  0.15019  0.61319  0.43110  1.0000
  H   H1706     1.0  0.15254  0.61719  0.45758  1.0000
  C   C2148     1.0  0.17699  0.62845  0.53871  1.0000
  C   C2149     1.0  0.17830  0.62482  0.55517  1.0000
  C   C2150     1.0  0.18544  0.60875  0.56258  1.0000
  C   C2151     1.0  0.19190  0.59651  0.55332  1.0000
  C   C2152     1.0  0.19049  0.60015  0.53690  1.0000
  C   C2153     1.0  0.18262  0.61598  0.52976  1.0000
  H   H1707     1.0  0.17374  0.63440  0.56217  1.0000
  H   H1708     1.0  0.18643  0.60594  0.57530  1.0000
  H   H1709     1.0  0.19518  0.59074  0.52974  1.0000
  H   H1710     1.0  0.18105  0.61853  0.51726  1.0000
  C   C2154     1.0  0.20291  0.67504  0.44184  1.0000
  C   C2155     1.0  0.21282  0.65936  0.44645  1.0000
  C   C2156     1.0  0.23024  0.65692  0.44216  1.0000
  C   C2157     1.0  0.23776  0.67026  0.43357  1.0000
  C   C2158     1.0  0.22782  0.68581  0.42888  1.0000
  C   C2159     1.0  0.21053  0.68812  0.43276  1.0000
  H   H1711     1.0  0.23728  0.50919  0.48803  1.0000
  C   C2160     1.0  0.16257  0.55207  0.48160  1.0000
  H   H1712     1.0  0.23349  0.69621  0.42249  1.0000
  H   H1713     1.0  0.20301  0.70025  0.42919  1.0000
  C   C2161     1.0  0.07786  0.70586  0.50893  1.0000
  C   C2162     1.0  0.09454  0.70417  0.50084  1.0000
  C   C2163     1.0  0.10354  0.68940  0.49604  1.0000
  C   C2164     1.0  0.09581  0.67632  0.49886  1.0000
  C   C2165     1.0  0.07887  0.67823  0.50627  1.0000
  C   C2166     1.0  0.06991  0.69297  0.51140  1.0000
  H   H1714     1.0  0.10060  0.71429  0.49844  1.0000
  H   H1715     1.0  0.11641  0.68829  0.48994  1.0000
  H   H1716     1.0  0.07275  0.66825  0.50821  1.0000
  H   H1717     1.0  0.05691  0.69444  0.51712  1.0000
  C   C2167     1.0  0.29980  0.52005  0.51564  1.0000
  C   C2168     1.0  0.30621  0.53903  0.42870  1.0000
  C   C2169     1.0  0.28293  0.51830  0.47468  1.0000
  H   H1718     1.0  0.29501  0.51018  0.52484  1.0000
  C   C2170     1.0  0.26689  0.53383  0.44845  1.0000
  H   H1719     1.0  0.23779  0.64491  0.44614  1.0000
  C   C2171     1.0  0.26415  0.63973  0.50313  1.0000
  C   C2172     1.0  0.25552  0.64132  0.49093  1.0000
  C   C2173     1.0  0.26326  0.64566  0.47426  1.0000
  P   P72       1.0  0.23453  0.63845  0.49666  1.0000
  C   C2174     1.0  0.23215  0.62244  0.48817  1.0000
  C   C2175     1.0  0.22882  0.63237  0.51890  1.0000
  C   C2176     1.0  0.22241  0.64439  0.52851  1.0000
  C   C2177     1.0  0.21779  0.63968  0.54567  1.0000
  C   C2178     1.0  0.21995  0.62296  0.55336  1.0000
  C   C2179     1.0  0.22675  0.61096  0.54393  1.0000
  C   C2180     1.0  0.23116  0.61561  0.52677  1.0000
  C   C2181     1.0  0.21722  0.61710  0.49348  1.0000
  C   C2182     1.0  0.21495  0.60460  0.48745  1.0000
  C   C2183     1.0  0.22780  0.59694  0.47634  1.0000
  C   C2184     1.0  0.24292  0.60185  0.47127  1.0000
  C   C2185     1.0  0.24506  0.61462  0.47704  1.0000
  C   C2186     1.0  0.22009  0.65743  0.49026  1.0000
  C   C2187     1.0  0.20335  0.65934  0.49827  1.0000
  C   C2188     1.0  0.19188  0.67379  0.49365  1.0000
  C   C2189     1.0  0.19697  0.68642  0.48079  1.0000
  C   C2190     1.0  0.21363  0.68480  0.47288  1.0000
  C   C2191     1.0  0.22516  0.67044  0.47760  1.0000
  C   C2192     1.0  0.23460  0.51675  0.46283  1.0000
  H   H1720     1.0  0.08208  0.67327  0.53868  1.0000
  C   C2193     1.0  0.27474  0.51718  0.45028  1.0000
  H   H1721     1.0  0.25879  0.63593  0.51607  1.0000
  H   H1722     1.0  0.25703  0.64666  0.46459  1.0000
  H   H1723     1.0  0.22068  0.65740  0.52273  1.0000
  H   H1724     1.0  0.21222  0.64899  0.55296  1.0000
  H   H1725     1.0  0.21600  0.61926  0.56660  1.0000
  H   H1726     1.0  0.22809  0.59801  0.54988  1.0000
  H   H1727     1.0  0.23622  0.60610  0.51968  1.0000
  H   H1728     1.0  0.20742  0.62246  0.50255  1.0000
  H   H1729     1.0  0.20335  0.60055  0.49176  1.0000
  H   H1730     1.0  0.22612  0.58695  0.47205  1.0000
  H   H1731     1.0  0.25314  0.59555  0.46318  1.0000
  H   H1732     1.0  0.25693  0.61792  0.47307  1.0000
  H   H1733     1.0  0.19908  0.64960  0.50808  1.0000
  H   H1734     1.0  0.17899  0.67501  0.49991  1.0000
  H   H1735     1.0  0.18796  0.69733  0.47677  1.0000
  H   H1736     1.0  0.21756  0.69451  0.46275  1.0000
  H   H1737     1.0  0.23783  0.66966  0.47102  1.0000
  H   H1738     1.0  0.19641  0.56762  0.51395  1.0000
  C   C2194     1.0  0.46839  0.64880  0.41997  1.0000
  C   C2195     1.0  0.37369  0.66802  0.39733  1.0000
  H   H1739     1.0  0.23457  0.97570  0.51104  1.0000
  C   C2196     1.0  0.28175  0.54428  0.39039  1.0000
  H   H1740     1.0  0.46467  0.62394  0.42887  1.0000
  H   H1741     1.0  0.31873  0.52869  0.44883  1.0000
  H   H1742     1.0  0.10872  0.61926  0.53060  1.0000
  C   C2197     1.0  0.13396  0.54748  0.50891  1.0000
  C   C2198     1.0  0.30185  0.53607  0.41540  1.0000
  H   H1743     1.0  0.11077  0.67258  0.45412  1.0000
  C   C2199     1.0  0.27907  0.64894  0.46990  1.0000
  H   H1744     1.0  0.36423  0.75175  0.39426  1.0000
  H   H1745     1.0  0.09643  0.64555  0.53926  1.0000
  C   C2200     1.0  0.05815  0.67354  0.55483  1.0000
  H   H1746     1.0  0.02314  0.65383  0.54969  1.0000
  C   C2201     1.0  0.12428  0.65682  0.43708  1.0000
  H   H1747     1.0  0.38647  0.66879  0.39211  1.0000
  C   C2202     1.0  0.00006  0.79841  0.52351  1.0000
  H   H1748     1.0  0.38358  0.80171  0.40863  1.0000
  H   H1749     1.0  0.25917  0.51538  0.39649  1.0000
  C   C2203     1.0  0.25381  0.48773  0.53624  1.0000
  C   C2204     1.0  0.26967  0.62019  0.56352  1.0000
  C   C2205     1.0  0.28179  0.58452  0.56884  1.0000
  C   C2206     1.0  0.28037  0.58380  0.55323  1.0000
  C   C2207     1.0  0.28991  0.57063  0.54596  1.0000
  C   C2208     1.0  0.30116  0.55831  0.55404  1.0000
  C   C2209     1.0  0.99748  0.69579  0.52273  1.0000
  C   C2210     1.0  0.16523  0.65145  0.38968  1.0000
  C   C2211     1.0  0.28500  0.62286  0.55353  1.0000
  C   C2212     1.0  0.28604  0.63774  0.54205  1.0000
  C   C2213     1.0  0.27173  0.64993  0.54017  1.0000
  C   C2214     1.0  0.25637  0.64720  0.54974  1.0000
  C   C2215     1.0  0.27110  0.98564  0.48852  1.0000
  H   H1750     1.0  0.28412  0.97997  0.48597  1.0000
  C   C2216     1.0  0.48422  0.79194  0.39988  1.0000
  H   H1751     1.0  0.00651  0.68718  0.57572  1.0000
  C   C2217     1.0  0.17924  0.67507  0.39897  1.0000
  H   H1752     1.0  0.28947  0.58792  0.38610  1.0000
  C   C2218     1.0  0.26005  0.97605  0.49905  1.0000
  C   C2219     1.0  0.30604  0.53539  0.48748  1.0000
  H   H1753     1.0  0.19644  0.71478  0.38927  1.0000
  C   C2220     1.0  0.47257  0.80120  0.39049  1.0000
  H   H1754     1.0  0.35934  0.61541  0.39810  1.0000
  H   H1755     1.0  0.18150  0.56601  0.49422  1.0000
  H   H1756     1.0  0.27147  0.59308  0.54692  1.0000
  H   H1757     1.0  0.28819  0.56975  0.53429  1.0000
  H   H1758     1.0  0.30824  0.54788  0.54867  1.0000
  C   C2221     1.0  0.36092  0.74116  0.39257  1.0000
  C   C2222     1.0  0.08397  0.66544  0.56420  1.0000
  H   H1759     1.0  0.33329  0.97552  0.46187  1.0000
  H   H1760     1.0  0.29797  0.63981  0.53462  1.0000
  H   H1761     1.0  0.27250  0.66145  0.53123  1.0000
  H   H1762     1.0  0.32051  0.49516  0.41938  1.0000
  H   H1763     1.0  0.11500  0.64948  0.44045  1.0000
  H   H1764     1.0  0.30631  0.53736  0.47451  1.0000
  C   C2223     1.0  0.24332  0.66615  0.38358  1.0000
  H   H1765     1.0  0.10376  0.51829  0.53287  1.0000
  H   H1766     1.0  0.49183  0.76889  0.41628  1.0000
  H   H1767     1.0  0.47607  0.70454  0.40122  1.0000
  S   S301      1.0  0.02548  0.77703  0.55974  1.0000
  P   P73       1.0  0.29250  0.50803  0.49210  1.0000
  C   C2224     1.0  0.23327  0.64100  0.39583  1.0000
  S   S302      1.0  0.00367  0.73962  0.56720  1.0000
  C   C2225     1.0  0.12184  0.66989  0.44472  1.0000
  C   C2226     1.0  0.16002  0.55680  0.46542  1.0000
  H   H1768     1.0  0.47555  0.67206  0.40970  1.0000
  C   C2227     1.0  0.43499  0.75719  0.41873  1.0000
  C   C2228     1.0  0.43077  0.74218  0.42020  1.0000
  C   C2229     1.0  0.42591  0.73247  0.43579  1.0000
  C   C2230     1.0  0.42515  0.73769  0.44998  1.0000
  C   C2231     1.0  0.42910  0.75274  0.44861  1.0000
  C   C2232     1.0  0.43393  0.76251  0.43305  1.0000
  H   H1769     1.0  0.15822  0.68184  0.42712  1.0000
  H   H1770     1.0  0.01247  0.79077  0.52185  1.0000
  C   C2233     1.0  0.26691  0.54277  0.45968  1.0000
  C   C2234     1.0  0.29321  0.57214  0.57680  1.0000
  C   C2235     1.0  0.30504  0.53128  0.52095  1.0000
  C   C2236     1.0  0.27293  0.53181  0.39871  1.0000
  P   P74       1.0  0.14797  0.56112  0.49802  1.0000
  C   C2237     1.0  0.32042  0.51040  0.43543  1.0000
  H   H1771     1.0  0.13588  0.66689  0.53376  1.0000
  C   C2238     1.0  0.11174  0.68025  0.54393  1.0000
  H   H1772     1.0  0.19694  0.62596  0.45269  1.0000
  C   C2239     1.0  0.17635  0.53954  0.48514  1.0000
  C   C2240     1.0  0.30292  0.55916  0.56936  1.0000
  C   C2241     1.0  0.36470  0.66330  0.38860  1.0000
  P   P75       1.0  0.44152  0.76974  0.39869  1.0000
  H   H1773     1.0  0.42313  0.72067  0.43688  1.0000
  H   H1774     1.0  0.42166  0.72994  0.46199  1.0000
  H   H1775     1.0  0.42859  0.75675  0.45961  1.0000
  H   H1776     1.0  0.43696  0.77415  0.43217  1.0000
  H   H1777     1.0  0.13214  0.50681  0.51859  1.0000
  H   H1778     1.0  0.32826  0.50622  0.47982  1.0000
  C   C2242     1.0  0.34822  0.66175  0.39549  1.0000
  H   H1779     1.0  0.40745  0.78091  0.41697  1.0000
  C   C2243     1.0  0.18366  0.56635  0.51820  1.0000
  H   H1780     1.0  0.15133  0.52506  0.50356  1.0000
  H   H1781     1.0  0.23297  0.57764  0.42570  1.0000
  C   C2244     1.0  0.26043  0.50675  0.51021  1.0000
  H   H1782     1.0  0.29948  0.65035  0.47893  1.0000
  C   C2245     1.0  0.15874  0.56327  0.51234  1.0000
  C   C2246     1.0  0.12745  0.67878  0.53345  1.0000
  H   H1783     1.0  0.20710  0.64920  0.45353  1.0000
  C   C2247     1.0  0.28734  0.64773  0.48215  1.0000
  C   C2248     1.0  0.04932  0.67120  0.57114  1.0000
  H   H1784     1.0  0.43190  0.63238  0.38965  1.0000
  H   H1785     1.0  0.28659  0.64172  0.50809  1.0000
  C   C2249     1.0  0.11218  0.52641  0.52627  1.0000
  C   C2250     1.0  0.39522  0.79994  0.39977  1.0000
  C   C2251     1.0  0.25052  0.58716  0.43200  1.0000
  C   C2252     1.0  0.10106  0.69591  0.54340  1.0000
  H   H1786     1.0  0.04514  0.78708  0.57506  1.0000
  C   C2253     1.0  0.10710  0.54334  0.52583  1.0000
  H   H1787     1.0  0.17918  0.64989  0.43801  1.0000
  C   C2254     1.0  0.31075  0.54458  0.50958  1.0000
  H   H1788     1.0  0.20298  0.66232  0.40508  1.0000
  H   H1789     1.0  0.11654  0.68669  0.57101  1.0000
  H   H1790     1.0  0.99456  0.65508  0.56650  1.0000
  C   C2255     1.0  0.31646  0.50739  0.42205  1.0000
  H   H1791     1.0  0.47580  0.72366  0.45047  1.0000
  C   C2256     1.0  0.45766  0.77893  0.39978  1.0000
  C   C2257     1.0  0.02109  0.64767  0.56260  1.0000
  H   H1792     1.0  0.23573  0.50678  0.52477  1.0000
  S   S303      1.0  0.31283  0.62111  0.39310  1.0000
  C   C2258     1.0  0.16187  0.63580  0.39213  1.0000
  H   H1793     1.0  0.12747  0.62190  0.48959  1.0000
  C   C2259     1.0  0.19627  0.62646  0.44021  1.0000
  S   S304      1.0  0.33747  0.65504  0.38459  1.0000
  C   C2260     1.0  0.13666  0.59549  0.49314  1.0000
  H   H1794     1.0  0.14043  0.64268  0.41988  1.0000
  C   C2261     1.0  0.18591  0.63979  0.43204  1.0000
  S   S305      1.0  0.40044  0.70244  0.38590  1.0000
  H   H1795     1.0  0.17875  0.53564  0.49745  1.0000
  H   H1796     1.0  0.27403  0.54197  0.48177  1.0000
  C   C2262     1.0  0.19376  0.62709  0.40849  1.0000
  C   C2263     1.0  0.07539  0.67083  0.55137  1.0000
  C   C2264     1.0  0.10596  0.70977  0.53231  1.0000
  H   H1797     1.0  0.27416  0.51022  0.44182  1.0000
  C   C2265     1.0  0.35687  0.72871  0.40618  1.0000
  C   C2266     1.0  0.28271  0.50941  0.46335  1.0000
  H   H1798     1.0  0.09473  0.54836  0.53211  1.0000
  C   C2267     1.0  0.14869  0.67505  0.42929  1.0000
  H   H1799     1.0  0.25410  0.55965  0.40906  1.0000
  C   C2268     1.0  0.20413  0.61379  0.41668  1.0000
  H   H1800     1.0  0.28477  0.65246  0.45698  1.0000
  C   C2269     1.0  0.42394  0.78551  0.39300  1.0000
  S   S306      1.0  0.39921  0.74834  0.38677  1.0000
  C   C2270     1.0  0.48805  0.71744  0.41136  1.0000
  H   H1801     1.0  0.45579  0.65448  0.42510  1.0000
  H   H1802     1.0  0.25622  0.51724  0.50098  1.0000
  C   C2271     1.0  0.30603  0.56386  0.38753  1.0000
  C   C2272     1.0  0.31188  0.67005  0.44965  1.0000
  C   C2273     1.0  0.31275  0.68043  0.45913  1.0000
  C   C2274     1.0  0.32367  0.67492  0.46983  1.0000
  C   C2275     1.0  0.33387  0.65909  0.47092  1.0000
  C   C2276     1.0  0.33341  0.64875  0.46107  1.0000
  C   C2277     1.0  0.32204  0.65421  0.45076  1.0000
  P   P76       1.0  0.34654  0.62830  0.46227  1.0000
  C   C2278     1.0  0.35124  0.62329  0.44220  1.0000
  C   C2279     1.0  0.36567  0.62818  0.46721  1.0000
  C   C2280     1.0  0.37308  0.64186  0.46040  1.0000
  C   C2281     1.0  0.38804  0.64179  0.46382  1.0000
  C   C2282     1.0  0.39572  0.62808  0.47418  1.0000
  C   C2283     1.0  0.38844  0.61439  0.48106  1.0000
  C   C2284     1.0  0.37348  0.61440  0.47756  1.0000
  C   C2285     1.0  0.34074  0.61573  0.43824  1.0000
  H   H1803     1.0  0.33555  0.60702  0.41946  1.0000
  H   H1804     1.0  0.13813  0.56162  0.53335  1.0000
  H   H1805     1.0  0.00914  0.82433  0.57363  1.0000
  C   C2286     1.0  0.36484  0.62778  0.43004  1.0000
  C   C2287     1.0  0.33582  0.61380  0.47795  1.0000
  C   C2288     1.0  0.32377  0.61904  0.49125  1.0000
  C   C2289     1.0  0.31478  0.60804  0.50283  1.0000
  C   C2290     1.0  0.31791  0.59169  0.50135  1.0000
  C   C2291     1.0  0.33033  0.58620  0.48853  1.0000
  C   C2292     1.0  0.33932  0.59717  0.47692  1.0000
  H   H1806     1.0  0.30343  0.67430  0.44131  1.0000
  H   H1807     1.0  0.30499  0.69276  0.45813  1.0000
  H   H1808     1.0  0.32439  0.68300  0.47714  1.0000
  H   H1809     1.0  0.34224  0.65504  0.47929  1.0000
  H   H1810     1.0  0.32124  0.64636  0.44332  1.0000
  H   H1811     1.0  0.36737  0.65254  0.45224  1.0000
  H   H1812     1.0  0.39370  0.65240  0.45827  1.0000
  H   H1813     1.0  0.40735  0.62806  0.47679  1.0000
  H   H1814     1.0  0.39445  0.60374  0.48904  1.0000
  H   H1815     1.0  0.36813  0.60364  0.48287  1.0000
  H   H1816     1.0  0.32991  0.61252  0.44712  1.0000
  H   H1817     1.0  0.37811  0.62862  0.40486  1.0000
  H   H1818     1.0  0.35713  0.72959  0.41837  1.0000
  H   H1819     1.0  0.31540  0.55709  0.48400  1.0000
  H   H1820     1.0  0.37288  0.63416  0.43237  1.0000
  H   H1821     1.0  0.32116  0.63164  0.49261  1.0000
  H   H1822     1.0  0.30510  0.61219  0.51278  1.0000
  H   H1823     1.0  0.31048  0.58342  0.51002  1.0000
  H   H1824     1.0  0.33280  0.57353  0.48739  1.0000
  H   H1825     1.0  0.34879  0.59274  0.46698  1.0000
  H   H1826     1.0  0.24329  0.63066  0.56863  1.0000
  H   H1827     1.0  0.24117  0.59515  0.43924  1.0000
  C   C2293     1.0  0.30000  0.52215  0.49887  1.0000
  H   H1828     1.0  0.11383  0.56691  0.51713  1.0000
  P   P77       1.0  0.17016  0.65707  0.40624  1.0000
  H   H1829     1.0  0.14459  0.69144  0.51449  1.0000
  C   C2294     1.0  0.11566  0.64381  0.55189  1.0000
  C   C2295     1.0  0.11362  0.59640  0.47532  1.0000
  H   H1830     1.0  0.47852  0.63548  0.38638  1.0000
  H   H1831     1.0  0.34988  0.70524  0.41457  1.0000
  H   H1832     1.0  0.10735  0.62273  0.47376  1.0000
  H   H1833     1.0  0.30413  0.52983  0.53401  1.0000
  C   C2296     1.0  0.11327  0.66145  0.57771  1.0000
  C   C2297     1.0  0.99344  0.80764  0.50988  1.0000
  H   H1834     1.0  0.16883  0.55284  0.44068  1.0000
  H   H1835     1.0  0.16243  0.62699  0.40372  1.0000
  C   C2298     1.0  0.35733  0.61722  0.41048  1.0000
  S   S307      1.0  0.28905  0.65792  0.39001  1.0000
  C   C2299     1.0  0.31134  0.54658  0.49283  1.0000
  H   H1836     1.0  0.30264  0.55114  0.43148  1.0000
  C   C2300     1.0  0.18417  0.64000  0.41631  1.0000
  C   C2301     1.0  0.15935  0.56411  0.54010  1.0000
  H   H1837     1.0  0.00071  0.80712  0.49755  1.0000
  H   H1838     1.0  0.25136  0.57828  0.57334  1.0000
  C   C2302     1.0  0.17582  0.56567  0.53475  1.0000
  H   H1839     1.0  0.13794  0.63876  0.56124  1.0000
  C   C2303     1.0  0.47963  0.65879  0.41119  1.0000
  C   C2304     1.0  0.12955  0.61356  0.54198  1.0000
  C   C2305     1.0  0.25806  0.56706  0.41490  1.0000
  C   C2306     1.0  0.46946  0.76973  0.40920  1.0000
  C   C2307     1.0  0.48262  0.77624  0.40926  1.0000
  C   C2308     1.0  0.12815  0.51995  0.51822  1.0000
  H   H1840     1.0  0.46876  0.75732  0.41622  1.0000
  S   S308      1.0  0.43588  0.70971  0.38691  1.0000
  Fe  Fe155     1.0  0.31369  0.64564  0.39682  1.0000
  H   H1841     1.0  0.29215  0.57721  0.41874  1.0000
  C   C2309     1.0  0.36790  0.62467  0.41430  1.0000
  C   C2310     1.0  0.12645  0.61051  0.48735  1.0000
  C   C2311     1.0  0.12366  0.58134  0.48124  1.0000
  H   H1842     1.0  0.18252  0.56636  0.54342  1.0000
  H   H1843     1.0  0.26029  0.55555  0.45852  1.0000
  C   C2312     1.0  0.17081  0.54893  0.45316  1.0000
  C   C2313     1.0  0.26721  0.58682  0.43015  1.0000
  H   H1844     1.0  0.12533  0.71891  0.51315  1.0000
  C   C2314     1.0  0.11467  0.62320  0.53795  1.0000
  H   H1845     1.0  0.26461  0.96322  0.50441  1.0000
  C   C2315     1.0  0.99761  0.82028  0.57892  1.0000
  H   H1846     1.0  0.27086  0.59443  0.43603  1.0000
  C   C2316     1.0  0.12164  0.70818  0.52188  1.0000
  C   C2317     1.0  0.24593  0.57733  0.42434  1.0000
  H   H1847     1.0  0.99590  0.79163  0.54986  1.0000
  C   C2318     1.0  0.15113  0.66217  0.42120  1.0000
  C   C2319     1.0  0.27998  0.64297  0.49871  1.0000
  H   H1848     1.0  0.31135  0.54942  0.57582  1.0000
  C   C2320     1.0  0.13241  0.69270  0.52251  1.0000
  H   H1849     1.0  0.15001  0.56675  0.46197  1.0000
  C   C2321     1.0  0.31543  0.52624  0.43865  1.0000
  C   C2322     1.0  0.27932  0.57678  0.42056  1.0000
  H   H1850     1.0  0.29619  0.61345  0.55475  1.0000
  C   C2323     1.0  0.45937  0.79473  0.39038  1.0000
  C   C2324     1.0  0.11795  0.55383  0.51725  1.0000
  H   H1851     1.0  0.14965  0.61207  0.55300  1.0000
  C   C2325     1.0  0.15082  0.56291  0.52895  1.0000
  C   C2326     1.0  0.44987  0.75667  0.38386  1.0000
  H   H1852     1.0  0.04706  0.63905  0.56265  1.0000
  C   C2327     1.0  0.13904  0.53040  0.50964  1.0000
  C   C2328     1.0  0.34384  0.61264  0.42249  1.0000
  C   C2329     1.0  0.40886  0.78814  0.40447  1.0000
  H   H1853     1.0  0.12231  0.57011  0.47891  1.0000
  H   H1854     1.0  0.19798  0.52245  0.47553  1.0000
  P   P78       1.0  0.10623  0.66265  0.55945  1.0000
  C   C2330     1.0  0.19538  0.67401  0.40040  1.0000
  H   H1855     1.0  0.01053  0.69105  0.52263  1.0000
  C   C2331     1.0  0.13101  0.63437  0.55521  1.0000
  C   C2332     1.0  0.48971  0.62452  0.41542  1.0000
  Fe  Fe156     1.0  0.28723  0.63272  0.38883  1.0000
  C   C2333     1.0  0.35310  0.71352  0.38820  1.0000
  C   C2334     1.0  0.20523  0.61339  0.43262  1.0000
  H   H1856     1.0  0.10481  0.59677  0.46830  1.0000
  C   C2335     1.0  0.18447  0.53655  0.45680  1.0000
  H   H1857     1.0  0.03594  0.67374  0.57381  1.0000
  C   C2336     1.0  0.10776  0.63825  0.54285  1.0000
  C   C2337     1.0  0.13777  0.61922  0.55047  1.0000
  H   H1858     1.0  0.13244  0.68875  0.44716  1.0000
  C   C2338     1.0  0.13883  0.65297  0.42539  1.0000
  H   H1859     1.0  0.47281  0.74564  0.39208  1.0000
  H   H1860     1.0  0.43133  0.73784  0.40936  1.0000
  H   H1861     1.0  0.24942  0.67524  0.38443  1.0000
  H   H1862     1.0  0.30499  0.51763  0.40135  1.0000
  H   H1863     1.0  0.15329  0.56371  0.55292  1.0000
  H   H1864     1.0  0.00177  0.71087  0.49822  1.0000
  C   C2339     1.0  0.24272  0.58617  0.58111  1.0000
  C   C2340     1.0  0.18724  0.53188  0.47278  1.0000
  H   H1865     1.0  0.34478  0.98678  0.47880  1.0000
  H   H1866     1.0  0.21091  0.60354  0.41086  1.0000
  C   C2341     1.0  0.13403  0.67903  0.44078  1.0000
  C   C2342     1.0  0.30743  0.52018  0.41195  1.0000
  Fe  Fe157     1.0  0.40882  0.72099  0.39355  1.0000
  P   P79       1.0  0.29095  0.55280  0.40170  1.0000
  C   C2343     1.0  0.35286  0.71496  0.40400  1.0000
  H   H1867     1.0  0.21386  0.68735  0.39835  1.0000
  C   C2344     1.0  0.25532  0.63243  0.56141  1.0000
  C   C2345     1.0  0.27731  0.49940  0.50886  1.0000
  H   H1868     1.0  0.29813  0.51147  0.57904  1.0000
  H   H1869     1.0  0.09741  0.72170  0.53155  1.0000
  C   C2346     1.0  0.47593  0.71963  0.43962  1.0000
  C   C2347     1.0  0.26629  0.52474  0.38995  1.0000
  Fe  Fe158     1.0  0.02412  0.71706  0.56908  1.0000
  C   C2348     1.0  0.00499  0.64834  0.57204  1.0000
  P   P80       1.0  0.26870  0.60102  0.57859  1.0000
  H   H1870     1.0  0.45615  0.60884  0.39084  1.0000
  C   C2349     1.0  0.11738  0.67518  0.58010  1.0000
  C   C2350     1.0  0.16947  0.69066  0.39366  1.0000
  H   H1871     1.0  0.24524  0.65656  0.54814  1.0000
  H   H1872     1.0  0.25062  0.54426  0.57827  1.0000
  C   C2351     1.0  0.27442  0.52755  0.57664  1.0000
  C   C2352     1.0  0.47343  0.63165  0.42214  1.0000
  C   C2353     1.0  0.46546  0.74596  0.38364  1.0000
  C   C2354     1.0  0.20160  0.68827  0.39666  1.0000
  H   H1873     1.0  0.24250  0.58971  0.38858  1.0000
  C   C2355     1.0  0.19175  0.70372  0.39161  1.0000
  H   H1874     1.0  0.05161  0.67792  0.54486  1.0000
  H   H1875     1.0  0.27097  0.52767  0.41198  1.0000
  C   C2356     1.0  0.39648  0.80919  0.38360  1.0000
  H   H1876     1.0  0.47400  0.81321  0.38289  1.0000
  H   H1877     1.0  0.32553  0.54197  0.38552  1.0000
  H   H1878     1.0  0.05858  0.84078  0.57842  1.0000
  H   H1879     1.0  0.15679  0.69182  0.39305  1.0000
  H   H1880     1.0  0.25703  0.60978  0.39176  1.0000
  H   H1881     1.0  0.45091  0.65424  0.38611  1.0000
  C   C2357     1.0  0.03455  0.63933  0.56990  1.0000
  C   C2358     1.0  0.32584  0.98580  0.46738  1.0000
  C   C2359     1.0  0.07498  0.66317  0.58060  1.0000
  C   C2360     1.0  0.32575  0.49442  0.48042  1.0000
  C   C2361     1.0  0.02273  0.77833  0.58034  1.0000
  C   C2362     1.0  0.17568  0.70492  0.39011  1.0000
  H   H1882     1.0  0.16787  0.71693  0.38661  1.0000
  Fe  Fe159     1.0  0.19968  0.54305  0.38268  1.0000
  H   H1883     1.0  0.28836  0.49643  0.46467  1.0000
  C   C2363     1.0  0.24061  0.65308  0.39699  1.0000
  H   H1884     1.0  0.19313  0.62701  0.39621  1.0000
  H   H1885     1.0  0.49285  0.67063  0.42773  1.0000
  H   H1886     1.0  0.99367  0.82020  0.55558  1.0000
  H   H1887     1.0  0.45092  0.80192  0.38255  1.0000
  C   C2364     1.0  0.11982  0.64575  0.60404  1.0000
  C   C2365     1.0  0.27756  0.58911  0.62504  1.0000
  H   H1888     1.0  0.08304  0.85254  0.77314  1.0000
  S   S309      1.0  0.01560  0.78793  0.63164  1.0000
  C   C2366     1.0  0.13073  0.90877  0.72856  1.0000
  H   H1889     1.0  0.22856  0.98455  0.58935  1.0000
  C   C2367     1.0  0.40188  0.62911  0.71915  1.0000
  S   S310      1.0  0.17536  0.98070  0.62305  1.0000
  H   H1890     1.0  0.48094  0.97878  0.74369  1.0000
  H   H1891     1.0  0.01019  0.67781  0.69081  1.0000
  H   H1892     1.0  0.27905  0.50444  0.72785  1.0000
  H   H1893     1.0  0.04124  0.79131  0.60315  1.0000
  Fe  Fe160     1.0  0.40501  0.56589  0.73855  1.0000
  S   S311      1.0  0.37729  0.57118  0.74367  1.0000
  S   S312      1.0  0.41795  0.58602  0.73863  1.0000
  Fe  Fe161     1.0  0.40671  0.53327  0.72862  1.0000
  S   S313      1.0  0.37910  0.53632  0.73369  1.0000
  S   S314      1.0  0.42562  0.51158  0.71973  1.0000
  Fe  Fe162     1.0  0.37941  0.56272  0.72061  1.0000
  S   S315      1.0  0.36345  0.57980  0.70299  1.0000
  Fe  Fe163     1.0  0.37947  0.54443  0.75619  1.0000
  C   C2368     1.0  0.26312  0.54553  0.59618  1.0000
  S   S316      1.0  0.40709  0.55934  0.71435  1.0000
  S   S317      1.0  0.40717  0.53937  0.75230  1.0000
  C   C2369     1.0  0.40963  0.49478  0.70733  1.0000
  Fe  Fe164     1.0  0.30331  0.52609  0.66805  1.0000
  S   S318      1.0  0.33018  0.52700  0.66196  1.0000
  S   S319      1.0  0.28798  0.51958  0.69358  1.0000
  Fe  Fe165     1.0  0.29902  0.54008  0.63269  1.0000
  S   S320      1.0  0.32531  0.54300  0.62345  1.0000
  H   H1894     1.0  0.17430  0.91143  0.68907  1.0000
  Fe  Fe166     1.0  0.33124  0.51784  0.63965  1.0000
  C   C2370     1.0  0.03962  0.91473  0.76590  1.0000
  Fe  Fe167     1.0  0.32230  0.55194  0.64654  1.0000
  S   S321      1.0  0.33096  0.57429  0.64706  1.0000
  S   S322      1.0  0.30513  0.51428  0.64731  1.0000
  S   S323      1.0  0.29524  0.55175  0.65408  1.0000
  S   S324      1.0  0.15919  0.92440  0.75925  1.0000
  C   C2371     1.0  0.99796  0.73681  0.67236  1.0000
  H   H1895     1.0  0.04921  0.57155  0.60330  1.0000
  C   C2372     1.0  0.03190  0.63170  0.58664  1.0000
  Fe  Fe168     1.0  0.13109  0.95876  0.66756  1.0000
  S   S325      1.0  0.12719  0.93296  0.67545  1.0000
  S   S326      1.0  0.15506  0.96242  0.66975  1.0000
  Fe  Fe169     1.0  0.02825  0.88240  0.71470  1.0000
  S   S327      1.0  0.05549  0.88236  0.70625  1.0000
  S   S328      1.0  0.02073  0.85944  0.71261  1.0000
  Fe  Fe170     1.0  0.02176  0.91478  0.72694  1.0000
  S   S329      1.0  0.04826  0.91678  0.71939  1.0000
  C   C2373     1.0  0.07787  0.97640  0.70653  1.0000
  Fe  Fe171     1.0  0.04740  0.90950  0.69663  1.0000
  S   S330      1.0  0.05865  0.92296  0.67173  1.0000
  Fe  Fe172     1.0  0.05395  0.88954  0.72990  1.0000
  S   S331      1.0  0.07297  0.87459  0.74518  1.0000
  S   S332      1.0  0.02034  0.90931  0.70335  1.0000
  S   S333      1.0  0.02734  0.88777  0.73914  1.0000
  C   C2374     1.0  0.26686  0.49721  0.64593  1.0000
  C   C2375     1.0  0.02140  0.97173  0.74046  1.0000
  C   C2376     1.0  0.01993  0.95709  0.73697  1.0000
  C   C2377     1.0  0.42469  0.51792  0.62394  1.0000
  H   H1896     1.0  0.25549  0.51940  0.63065  1.0000
  C   C2378     1.0  0.05328  0.84329  0.59063  1.0000
  P   P81       1.0  0.02171  0.84970  0.78045  1.0000
  H   H1897     1.0  0.03000  0.95056  0.72892  1.0000
  Fe  Fe173     1.0  0.46515  0.66405  0.78199  1.0000
  C   C2379     1.0  0.10738  0.93169  0.67499  1.0000
  C   C2380     1.0  0.09939  0.94170  0.66245  1.0000
  C   C2381     1.0  0.08430  0.93911  0.66142  1.0000
  C   C2382     1.0  0.07718  0.92671  0.67307  1.0000
  C   C2383     1.0  0.08490  0.91720  0.68591  1.0000
  C   C2384     1.0  0.09995  0.91974  0.68687  1.0000
  H   H1898     1.0  0.10506  0.95106  0.65330  1.0000
  H   H1899     1.0  0.07822  0.94663  0.65159  1.0000
  H   H1900     1.0  0.07946  0.90767  0.69498  1.0000
  H   H1901     1.0  0.10585  0.91245  0.69686  1.0000
  H   H1902     1.0  0.09091  0.95307  0.71853  1.0000
  C   C2385     1.0  0.08218  0.89366  0.76147  1.0000
  C   C2386     1.0  0.03213  0.78671  0.60023  1.0000
  C   C2387     1.0  0.08658  0.96033  0.76517  1.0000
  H   H1903     1.0  0.07916  0.90425  0.75179  1.0000
  C   C2388     1.0  0.15367  0.94225  0.74428  1.0000
  C   C2389     1.0  0.16160  0.94274  0.72768  1.0000
  C   C2390     1.0  0.15756  0.95679  0.71545  1.0000
  C   C2391     1.0  0.14590  0.97064  0.71979  1.0000
  C   C2392     1.0  0.13817  0.97029  0.73641  1.0000
  C   C2393     1.0  0.14184  0.95603  0.74862  1.0000
  H   H1904     1.0  0.17078  0.93218  0.72425  1.0000
  H   H1905     1.0  0.16365  0.95698  0.70270  1.0000
  C   C2394     1.0  0.05285  0.98681  0.65929  1.0000
  H   H1906     1.0  0.13570  0.95578  0.76140  1.0000
  C   C2395     1.0  0.02303  0.75445  0.66305  1.0000
  C   C2396     1.0  0.43573  0.60375  0.77571  1.0000
  C   C2397     1.0  0.31547  0.49656  0.70051  1.0000
  C   C2398     1.0  0.29919  0.50403  0.70663  1.0000
  C   C2399     1.0  0.29180  0.49897  0.72323  1.0000
  C   C2400     1.0  0.43664  0.76296  0.76395  1.0000
  C   C2401     1.0  0.25939  0.51397  0.64224  1.0000
  C   C2402     1.0  0.28973  0.52690  0.59699  1.0000
  C   C2403     1.0  0.01282  0.97447  0.69796  1.0000
  H   H1907     1.0  0.45816  0.79780  0.73480  1.0000
  H   H1908     1.0  0.18970  0.94723  0.63417  1.0000
  H   H1909     1.0  0.45509  0.73397  0.75151  1.0000
  H   H1910     1.0  0.47969  0.82777  0.75137  1.0000
  H   H1911     1.0  0.22001  0.93993  0.62429  1.0000
  C   C2404     1.0  0.39228  0.48821  0.66197  1.0000
  C   C2405     1.0  0.35525  0.57696  0.68742  1.0000
  C   C2406     1.0  0.34775  0.59116  0.67737  1.0000
  C   C2407     1.0  0.34071  0.59002  0.66500  1.0000
  C   C2408     1.0  0.34057  0.57463  0.66271  1.0000
  C   C2409     1.0  0.34803  0.56027  0.67273  1.0000
  C   C2410     1.0  0.35564  0.56145  0.68486  1.0000
  H   H1912     1.0  0.34742  0.60320  0.67914  1.0000
  H   H1913     1.0  0.33506  0.60118  0.65735  1.0000
  H   H1914     1.0  0.34798  0.54835  0.67106  1.0000
  H   H1915     1.0  0.36179  0.55044  0.69218  1.0000
  H   H1916     1.0  0.22296  0.57427  0.58359  1.0000
  H   H1917     1.0  0.35459  0.51966  0.76454  1.0000
  C   C2411     1.0  0.06996  0.98613  0.65476  1.0000
  C   C2412     1.0  0.42453  0.49756  0.70857  1.0000
  C   C2413     1.0  0.26170  0.53961  0.58314  1.0000
  H   H1918     1.0  0.00127  0.69363  0.62446  1.0000
  C   C2414     1.0  0.13831  0.86558  0.77589  1.0000
  C   C2415     1.0  0.00229  0.64072  0.58879  1.0000
  C   C2416     1.0  0.28832  0.52096  0.58384  1.0000
  H   H1919     1.0  0.18494  0.98113  0.65323  1.0000
  C   C2417     1.0  0.06547  0.96994  0.74914  1.0000
  H   H1920     1.0  0.41078  0.49473  0.75593  1.0000
  C   C2418     1.0  0.43516  0.61325  0.75980  1.0000
  C   C2419     1.0  0.42967  0.60762  0.74873  1.0000
  C   C2420     1.0  0.42425  0.59265  0.75345  1.0000
  C   C2421     1.0  0.42435  0.58339  0.76952  1.0000
  Fe  Fe174     1.0  0.15439  0.98042  0.64544  1.0000
  H   H1921     1.0  0.43938  0.62471  0.75588  1.0000
  H   H1922     1.0  0.42984  0.61483  0.73632  1.0000
  H   H1923     1.0  0.01888  0.66696  0.65331  1.0000
  H   H1924     1.0  0.25322  0.55491  0.60105  1.0000
  C   C2422     1.0  0.12852  0.93791  0.71589  1.0000
  H   H1925     1.0  0.42135  0.49819  0.66429  1.0000
  H   H1926     1.0  0.00063  0.62564  0.65263  1.0000
  H   H1927     1.0  0.35957  0.54637  0.59724  1.0000
  C   C2423     1.0  0.00679  0.85430  0.70375  1.0000
  C   C2424     1.0  0.05966  0.83309  0.60410  1.0000
  C   C2425     1.0  0.39339  0.65462  0.77814  1.0000
  C   C2426     1.0  0.45770  0.82856  0.77078  1.0000
  H   H1928     1.0  0.41265  0.63426  0.71272  1.0000
  C   C2427     1.0  0.99391  0.97414  0.75768  1.0000
  C   C2428     1.0  0.44153  0.51172  0.61819  1.0000
  C   C2429     1.0  0.46158  0.77342  0.75026  1.0000
  H   H1929     1.0  0.19276  0.90122  0.72332  1.0000
  H   H1930     1.0  0.09894  0.95976  0.76633  1.0000
  C   C2430     1.0  0.01793  0.78382  0.61216  1.0000
  H   H1931     1.0  0.32112  0.50014  0.68767  1.0000
  C   C2431     1.0  0.00120  0.70634  0.65650  1.0000
  C   C2432     1.0  0.05179  0.57463  0.62632  1.0000
  H   H1932     1.0  0.37168  0.49207  0.71958  1.0000
  H   H1933     1.0  0.36172  0.48877  0.76107  1.0000
  H   H1934     1.0  0.06466  0.71186  0.59373  1.0000
  C   C2433     1.0  0.03997  0.85664  0.59295  1.0000
  C   C2434     1.0  0.21988  0.60538  0.60213  1.0000
  H   H1935     1.0  0.02250  0.87000  0.61028  1.0000
  C   C2435     1.0  0.01408  0.63721  0.62910  1.0000
  C   C2436     1.0  0.32090  0.56462  0.77533  1.0000
  C   C2437     1.0  0.04414  0.73033  0.60259  1.0000
  C   C2438     1.0  0.23246  0.92027  0.66232  1.0000
  H   H1936     1.0  0.06101  0.56325  0.62828  1.0000
  H   H1937     1.0  0.47494  0.77150  0.74774  1.0000
  C   C2439     1.0  0.19498  0.93788  0.65863  1.0000
  C   C2440     1.0  0.21574  0.96124  0.63474  1.0000
  C   C2441     1.0  0.24735  0.91051  0.66627  1.0000
  H   H1938     1.0  0.00354  0.64469  0.66786  1.0000
  C   C2442     1.0  0.45212  0.78814  0.74291  1.0000
  S   S334      1.0  0.48415  0.78909  0.76738  1.0000
  C   C2443     1.0  0.23612  0.60772  0.59634  1.0000
  C   C2444     1.0  0.02970  0.96003  0.67660  1.0000
  H   H1939     1.0  0.41692  0.69552  0.76967  1.0000
  C   C2445     1.0  0.99997  0.68594  0.58845  1.0000
  H   H1940     1.0  0.01923  0.70220  0.67125  1.0000
  C   C2446     1.0  0.04515  0.57931  0.61224  1.0000
  C   C2447     1.0  0.08133  0.96936  0.75073  1.0000
  C   C2448     1.0  0.12396  0.65944  0.60628  1.0000
  H   H1941     1.0  0.02186  0.86883  0.67046  1.0000
  C   C2449     1.0  0.25876  0.91781  0.66894  1.0000
  C   C2450     1.0  0.06054  0.95766  0.69854  1.0000
  H   H1942     1.0  0.05430  0.95013  0.69521  1.0000
  H   H1943     1.0  0.01700  0.82823  0.71024  1.0000
  H   H1944     1.0  0.05078  0.66508  0.59660  1.0000
  C   C2451     1.0  0.18680  0.89359  0.71974  1.0000
  C   C2452     1.0  0.37212  0.48730  0.76643  1.0000
  H   H1945     1.0  0.29548  0.59581  0.63374  1.0000
  C   C2453     1.0  0.02697  0.97249  0.68524  1.0000
  C   C2454     1.0  0.00835  0.98026  0.75096  1.0000
  C   C2455     1.0  0.47812  0.84468  0.76627  1.0000
  H   H1946     1.0  0.27508  0.49559  0.68293  1.0000
  H   H1947     1.0  0.12817  0.65866  0.61726  1.0000
  H   H1948     1.0  0.99519  0.77549  0.61745  1.0000
  H   H1949     1.0  0.23797  0.95792  0.66241  1.0000
  C   C2456     1.0  0.00936  0.69780  0.66942  1.0000
  S   S335      1.0  0.48177  0.67879  0.76175  1.0000
  H   H1950     1.0  0.32316  0.66198  0.74001  1.0000
  H   H1951     1.0  0.20946  0.88055  0.70661  1.0000
  H   H1952     1.0  0.99858  0.81978  0.69782  1.0000
  C   C2457     1.0  0.01238  0.92461  0.78158  1.0000
  C   C2458     1.0  0.28023  0.51194  0.77282  1.0000
  H   H1953     1.0  0.05724  0.68929  0.61739  1.0000
  H   H1954     1.0  0.45344  0.81943  0.76747  1.0000
  H   H1955     1.0  0.44299  0.69011  0.74880  1.0000
  C   C2459     1.0  0.18709  0.93897  0.64600  1.0000
  C   C2460     1.0  0.05398  0.71439  0.60353  1.0000
  H   H1956     1.0  0.25010  0.89730  0.66716  1.0000
  C   C2461     1.0  0.99965  0.74550  0.68306  1.0000
  C   C2462     1.0  0.37490  0.61474  0.73620  1.0000
  H   H1957     1.0  0.16264  0.90422  0.73226  1.0000
  C   C2463     1.0  0.19616  0.88193  0.71040  1.0000
  C   C2464     1.0  0.22033  0.95285  0.62180  1.0000
  H   H1958     1.0  0.11647  0.90347  0.75346  1.0000
  H   H1959     1.0  0.21162  0.94884  0.68975  1.0000
  H   H1960     1.0  0.02711  0.84978  0.74489  1.0000
  C   C2465     1.0  0.18815  0.97829  0.66513  1.0000
  H   H1961     1.0  0.08113  0.65953  0.59079  1.0000
  C   C2466     1.0  0.44359  0.49556  0.64559  1.0000
  H   H1962     1.0  0.03268  0.97622  0.73522  1.0000
  C   C2467     1.0  0.00794  0.83756  0.70430  1.0000
  C   C2468     1.0  0.11999  0.91292  0.74293  1.0000
  H   H1963     1.0  0.31052  0.67575  0.76363  1.0000
  C   C2469     1.0  0.27054  0.50039  0.67165  1.0000
  H   H1964     1.0  0.16072  0.91336  0.66655  1.0000
  H   H1965     1.0  0.30766  0.55405  0.68125  1.0000
  C   C2470     1.0  0.45023  0.71213  0.74861  1.0000
  C   C2471     1.0  0.17496  0.92996  0.64883  1.0000
  C   C2472     1.0  0.03437  0.78427  0.58434  1.0000
  C   C2473     1.0  0.08893  0.89520  0.77410  1.0000
  C   C2474     1.0  0.43156  0.72934  0.76707  1.0000
  C   C2475     1.0  0.44630  0.72610  0.75530  1.0000
  C   C2476     1.0  0.08139  0.95922  0.71164  1.0000
  C   C2477     1.0  0.26288  0.51711  0.66798  1.0000
  C   C2478     1.0  0.99680  0.68972  0.61596  1.0000
  C   C2479     1.0  0.38648  0.49226  0.75658  1.0000
  C   C2480     1.0  0.02439  0.66053  0.62977  1.0000
  H   H1966     1.0  0.23975  0.61684  0.60029  1.0000
  C   C2481     1.0  0.28986  0.59751  0.62340  1.0000
  H   H1967     1.0  0.04084  0.95773  0.66722  1.0000
  C   C2482     1.0  0.25747  0.52393  0.65322  1.0000
  C   C2483     1.0  0.45384  0.76109  0.76101  1.0000
  C   C2484     1.0  0.04650  0.58459  0.63789  1.0000
  H   H1968     1.0  0.00021  0.59350  0.61979  1.0000
  C   C2485     1.0  0.99550  0.85708  0.64642  1.0000
  C   C2486     1.0  0.01835  0.94994  0.68043  1.0000
  C   C2487     1.0  0.48929  0.98435  0.73313  1.0000
  S   S336      1.0  0.13156  0.97489  0.64242  1.0000
  C   C2488     1.0  0.43491  0.79038  0.74615  1.0000
  H   H1969     1.0  0.25217  0.53704  0.65010  1.0000
  H   H1970     1.0  0.46191  0.70937  0.73999  1.0000
  H   H1971     1.0  0.33298  0.50285  0.77377  1.0000
  H   H1972     1.0  0.26161  0.52492  0.67638  1.0000
  C   C2489     1.0  0.05687  0.97493  0.69343  1.0000
  H   H1973     1.0  0.06988  0.82265  0.60234  1.0000
  H   H1974     1.0  0.30059  0.52205  0.60226  1.0000
  H   H1975     1.0  0.27362  0.58088  0.63660  1.0000
  P   P82       1.0  0.01239  0.62299  0.61796  1.0000
  C   C2490     1.0  0.37723  0.59216  0.77446  1.0000
  C   C2491     1.0  0.27076  0.59073  0.61158  1.0000
  C   C2492     1.0  0.04977  0.70169  0.61687  1.0000
  C   C2493     1.0  0.00546  0.69114  0.59958  1.0000
  C   C2494     1.0  0.34403  0.64993  0.77741  1.0000
  H   H1976     1.0  0.44697  0.49526  0.77439  1.0000
  C   C2495     1.0  0.20006  0.96411  0.66967  1.0000
  C   C2496     1.0  0.32187  0.66638  0.76376  1.0000
  H   H1977     1.0  0.39890  0.63804  0.74084  1.0000
  H   H1978     1.0  0.08152  0.82876  0.76055  1.0000
  C   C2497     1.0  0.06830  0.83467  0.74114  1.0000
  C   C2498     1.0  0.05290  0.84057  0.73687  1.0000
  C   C2499     1.0  0.03873  0.84504  0.74870  1.0000
  H   H1979     1.0  0.46399  0.49563  0.62457  1.0000
  C   C2500     1.0  0.42596  0.90078  0.77952  1.0000
  C   C2501     1.0  0.47243  0.83328  0.76169  1.0000
  H   H1980     1.0  0.06125  0.97691  0.73805  1.0000
  C   C2502     1.0  0.21510  0.59341  0.59743  1.0000
  H   H1981     1.0  0.02727  0.65222  0.60782  1.0000
  C   C2503     1.0  0.05486  0.96170  0.76199  1.0000
  S   S337      1.0  0.11523  0.97851  0.68075  1.0000
  H   H1982     1.0  0.07708  0.98454  0.66386  1.0000
  H   H1983     1.0  0.20256  0.59149  0.60189  1.0000
  C   C2504     1.0  0.00577  0.88211  0.63975  1.0000
  H   H1984     1.0  0.30427  0.51582  0.77087  1.0000
  C   C2505     1.0  0.11444  0.64675  0.58984  1.0000
  H   H1985     1.0  0.08947  0.97612  0.74093  1.0000
  C   C2506     1.0  0.03323  0.59396  0.60973  1.0000
  H   H1986     1.0  0.02080  0.94013  0.67392  1.0000
  C   C2507     1.0  0.00878  0.86476  0.64332  1.0000
  H   H1987     1.0  0.07930  0.83164  0.73184  1.0000
  H   H1988     1.0  0.05190  0.84202  0.72428  1.0000
  H   H1989     1.0  0.39419  0.66747  0.77533  1.0000
  H   H1990     1.0  0.99358  0.87911  0.69579  1.0000
  C   C2508     1.0  0.99752  0.83271  0.69721  1.0000
  C   C2509     1.0  0.08452  0.86452  0.77334  1.0000
  H   H1991     1.0  0.26422  0.94056  0.66948  1.0000
  C   C2510     1.0  0.13329  0.85102  0.77764  1.0000
  H   H1992     1.0  0.03054  0.67065  0.62334  1.0000
  H   H1993     1.0  0.04719  0.74020  0.59217  1.0000
  C   C2511     1.0  0.28834  0.60948  0.59482  1.0000
  C   C2512     1.0  0.07267  0.94988  0.70774  1.0000
  H   H1994     1.0  0.45108  0.49055  0.70187  1.0000
  C   C2513     1.0  0.38058  0.62388  0.74387  1.0000
  H   H1995     1.0  0.12083  0.63434  0.61328  1.0000
  H   H1996     1.0  0.42756  0.80186  0.74062  1.0000
  H   H1997     1.0  0.01335  0.76120  0.68665  1.0000
  H   H1998     1.0  0.01580  0.88839  0.63708  1.0000
  C   C2514     1.0  0.24763  0.59822  0.58563  1.0000
  C   C2515     1.0  0.00023  0.88063  0.77393  1.0000
  H   H1999     1.0  0.01741  0.90898  0.76440  1.0000
  C   C2516     1.0  0.18321  0.98475  0.69187  1.0000
  C   C2517     1.0  0.19477  0.97046  0.69663  1.0000
  S   S338      1.0  0.27865  0.54860  0.61836  1.0000
  H   H2000     1.0  0.40990  0.71995  0.78173  1.0000
  H   H2001     1.0  0.22783  0.95487  0.59551  1.0000
  C   C2518     1.0  0.45096  0.50046  0.62899  1.0000
  H   H2002     1.0  0.37776  0.65843  0.76129  1.0000
  H   H2003     1.0  0.41386  0.77984  0.75891  1.0000
  C   C2519     1.0  0.48313  0.72070  0.77501  1.0000
  C   C2520     1.0  0.42718  0.77782  0.75657  1.0000
  H   H2004     1.0  0.37076  0.76215  0.76622  1.0000
  C   C2521     1.0  0.43950  0.48843  0.70114  1.0000
  H   H2005     1.0  0.13174  0.94757  0.70535  1.0000
  C   C2522     1.0  0.30605  0.55961  0.77834  1.0000
  C   C2523     1.0  0.46918  0.85127  0.77999  1.0000
  H   H2006     1.0  0.07646  0.87872  0.63695  1.0000
  C   C2524     1.0  0.01227  0.75421  0.67847  1.0000
  H   H2007     1.0  0.19678  0.96714  0.70908  1.0000
  H   H2008     1.0  0.21105  0.61272  0.61039  1.0000
  C   C2525     1.0  0.27722  0.53949  0.60294  1.0000
  H   H2009     1.0  0.19575  0.92723  0.68430  1.0000
  C   C2526     1.0  0.03458  0.59926  0.63542  1.0000
  H   H2010     1.0  0.04284  0.87329  0.77280  1.0000
  C   C2527     1.0  0.06457  0.87644  0.64425  1.0000
  C   C2528     1.0  0.00731  0.63533  0.64610  1.0000
  C   C2529     1.0  0.02787  0.60409  0.62128  1.0000
  C   C2530     1.0  0.36555  0.60685  0.77645  1.0000
  H   H2011     1.0  0.37939  0.51928  0.59841  1.0000
  H   H2012     1.0  0.03032  0.97868  0.78072  1.0000
  H   H2013     1.0  0.40116  0.75274  0.75897  1.0000
  C   C2531     1.0  0.00867  0.77492  0.59237  1.0000
  C   C2532     1.0  0.01572  0.63216  0.59617  1.0000
  C   C2533     1.0  0.38274  0.61270  0.72019  1.0000
  C   C2534     1.0  0.39628  0.61982  0.71171  1.0000
  H   H2014     1.0  0.37858  0.60524  0.71452  1.0000
  H   H2015     1.0  0.40268  0.61777  0.69953  1.0000
  C   C2535     1.0  0.29517  0.60778  0.60833  1.0000
  C   C2536     1.0  0.39406  0.63118  0.73517  1.0000
  H   H2016     1.0  0.21441  0.98445  0.64086  1.0000
  C   C2537     1.0  0.19032  0.92780  0.67419  1.0000
  C   C2538     1.0  0.38314  0.63276  0.77394  1.0000
  C   C2539     1.0  0.26696  0.51538  0.76518  1.0000
  C   C2540     1.0  0.37809  0.76090  0.77504  1.0000
  C   C2541     1.0  0.02582  0.80461  0.66258  1.0000
  C   C2542     1.0  0.03154  0.80087  0.67709  1.0000
  C   C2543     1.0  0.03673  0.81285  0.68132  1.0000
  C   C2544     1.0  0.03595  0.82866  0.67118  1.0000
  C   C2545     1.0  0.03010  0.83257  0.65660  1.0000
  C   C2546     1.0  0.02518  0.82033  0.65232  1.0000
  P   P83       1.0  0.02967  0.85272  0.64294  1.0000
  H   H2017     1.0  0.30483  0.61415  0.60707  1.0000
  C   C2547     1.0  0.04091  0.86422  0.64895  1.0000
  C   C2548     1.0  0.03379  0.87087  0.66305  1.0000
  C   C2549     1.0  0.04198  0.88018  0.66774  1.0000
  C   C2550     1.0  0.05734  0.88303  0.65831  1.0000
  H   H2018     1.0  0.06218  0.86213  0.62860  1.0000
  H   H2019     1.0  0.99946  0.77061  0.58927  1.0000
  H   H2020     1.0  0.05160  0.58092  0.64884  1.0000
  S   S339      1.0  0.02347  0.69889  0.59336  1.0000
  H   H2021     1.0  0.04751  0.90771  0.75689  1.0000
  C   C2551     1.0  0.27274  0.49033  0.66055  1.0000
  H   H2022     1.0  0.04264  0.96219  0.76057  1.0000
  C   C2552     1.0  0.03917  0.84943  0.62236  1.0000
  C   C2553     1.0  0.05268  0.83616  0.61991  1.0000
  H   H2023     1.0  0.01054  0.98353  0.70526  1.0000
  H   H2024     1.0  0.27031  0.91024  0.67196  1.0000
  C   C2554     1.0  0.22548  0.97790  0.60201  1.0000
  C   C2555     1.0  0.03293  0.85972  0.60874  1.0000
  H   H2025     1.0  0.02180  0.79534  0.65928  1.0000
  H   H2026     1.0  0.03182  0.78874  0.68511  1.0000
  H   H2027     1.0  0.04100  0.81005  0.69267  1.0000
  H   H2028     1.0  0.03977  0.83774  0.67497  1.0000
  H   H2029     1.0  0.02083  0.82287  0.64104  1.0000
  C   C2556     1.0  0.42097  0.71820  0.77214  1.0000
  H   H2030     1.0  0.09063  0.90707  0.77442  1.0000
  C   C2557     1.0  0.05641  0.86703  0.63956  1.0000
  H   H2031     1.0  0.44685  0.49959  0.74483  1.0000
  H   H2032     1.0  0.48978  0.84798  0.75948  1.0000
  C   C2558     1.0  0.42682  0.50184  0.65135  1.0000
  H   H2033     1.0  0.33166  0.48982  0.66263  1.0000
  H   H2034     1.0  0.38903  0.59248  0.76587  1.0000
  P   P84       1.0  0.20987  0.95022  0.65578  1.0000
  H   H2035     1.0  0.05767  0.82805  0.63024  1.0000
  H   H2036     1.0  0.03638  0.88518  0.67870  1.0000
  S   S340      1.0  0.44196  0.65969  0.77814  1.0000
  Fe  Fe175     1.0  0.13930  0.98348  0.68113  1.0000
  H   H2037     1.0  0.42872  0.90753  0.76687  1.0000
  C   C2559     1.0  0.10672  0.87705  0.70728  1.0000
  C   C2560     1.0  0.11422  0.87915  0.69053  1.0000
  C   C2561     1.0  0.12937  0.88402  0.68483  1.0000
  C   C2562     1.0  0.13722  0.88641  0.69593  1.0000
  C   C2563     1.0  0.13011  0.88360  0.71289  1.0000
  C   C2564     1.0  0.11447  0.87959  0.71836  1.0000
  P   P85       1.0  0.13962  0.88757  0.72723  1.0000
  C   C2565     1.0  0.16169  0.88551  0.72029  1.0000
  C   C2566     1.0  0.18837  0.87186  0.70624  1.0000
  C   C2567     1.0  0.17120  0.87351  0.71132  1.0000
  H   H2038     1.0  0.46134  0.74998  0.76688  1.0000
  C   C2568     1.0  0.13474  0.92137  0.71493  1.0000
  H   H2039     1.0  0.09461  0.87403  0.71164  1.0000
  H   H2040     1.0  0.10787  0.87782  0.68188  1.0000
  H   H2041     1.0  0.13466  0.88665  0.67173  1.0000
  H   H2042     1.0  0.14849  0.89099  0.69119  1.0000
  H   H2043     1.0  0.10810  0.87866  0.73117  1.0000
  H   H2044     1.0  0.19564  0.86263  0.69925  1.0000
  H   H2045     1.0  0.16536  0.86537  0.70835  1.0000
  H   H2046     1.0  0.14413  0.88791  0.75956  1.0000
  H   H2047     1.0  0.14274  0.91845  0.70358  1.0000
  H   H2048     1.0  0.39802  0.50187  0.71290  1.0000
  H   H2049     1.0  0.12911  0.98096  0.73981  1.0000
  C   C2569     1.0  0.33300  0.56205  0.76122  1.0000
  C   C2570     1.0  0.33054  0.55403  0.75034  1.0000
  C   C2571     1.0  0.31583  0.54853  0.75347  1.0000
  C   C2572     1.0  0.30338  0.55186  0.76734  1.0000
  P   P86       1.0  0.31254  0.53833  0.73924  1.0000
  C   C2573     1.0  0.30913  0.55308  0.72049  1.0000
  C   C2574     1.0  0.33121  0.52337  0.73333  1.0000
  C   C2575     1.0  0.33263  0.50638  0.73995  1.0000
  C   C2576     1.0  0.34728  0.49523  0.73509  1.0000
  C   C2577     1.0  0.36047  0.50081  0.72342  1.0000
  C   C2578     1.0  0.35906  0.51764  0.71654  1.0000
  C   C2579     1.0  0.34452  0.52886  0.72149  1.0000
  C   C2580     1.0  0.30927  0.54738  0.70670  1.0000
  C   C2581     1.0  0.30733  0.55854  0.69187  1.0000
  C   C2582     1.0  0.30541  0.57542  0.69061  1.0000
  C   C2583     1.0  0.30542  0.58118  0.70423  1.0000
  C   C2584     1.0  0.30719  0.57007  0.71917  1.0000
  C   C2585     1.0  0.29503  0.52866  0.74884  1.0000
  C   C2586     1.0  0.28156  0.53218  0.74127  1.0000
  C   C2587     1.0  0.26760  0.52555  0.74944  1.0000
  C   C2588     1.0  0.22655  0.58376  0.58702  1.0000
  C   C2589     1.0  0.32899  0.65863  0.75046  1.0000
  C   C2590     1.0  0.29422  0.51844  0.76465  1.0000
  C   C2591     1.0  0.43020  0.58883  0.78048  1.0000
  C   C2592     1.0  0.22495  0.96122  0.60548  1.0000
  H   H2050     1.0  0.34452  0.56587  0.75897  1.0000
  H   H2051     1.0  0.34019  0.55215  0.73957  1.0000
  C   C2593     1.0  0.05772  0.66614  0.58401  1.0000
  H   H2052     1.0  0.32253  0.50158  0.74874  1.0000
  P   P87       1.0  0.37019  0.62645  0.76452  1.0000
  H   H2053     1.0  0.03066  0.60670  0.64460  1.0000
  H   H2054     1.0  0.36925  0.52200  0.70741  1.0000
  H   H2055     1.0  0.34360  0.54187  0.71608  1.0000
  H   H2056     1.0  0.31094  0.53430  0.70738  1.0000
  C   C2594     1.0  0.25532  0.93488  0.66756  1.0000
  H   H2057     1.0  0.30434  0.58396  0.67893  1.0000
  H   H2058     1.0  0.30437  0.59422  0.70309  1.0000
  H   H2059     1.0  0.30730  0.57478  0.72951  1.0000
  H   H2060     1.0  0.28169  0.53998  0.72910  1.0000
  H   H2061     1.0  0.25736  0.52817  0.74344  1.0000
  H   H2062     1.0  0.02955  0.74663  0.64025  1.0000
  C   C2595     1.0  0.35130  0.64212  0.76406  1.0000
  C   C2596     1.0  0.27606  0.60094  0.59634  1.0000
  C   C2597     1.0  0.11839  0.94196  0.73050  1.0000
  H   H2063     1.0  0.36456  0.60895  0.74267  1.0000
  H   H2064     1.0  0.34891  0.64074  0.74013  1.0000
  C   C2598     1.0  0.00433  0.68396  0.68047  1.0000
  C   C2599     1.0  0.22882  0.93739  0.66119  1.0000
  C   C2600     1.0  0.13272  0.85816  0.74865  1.0000
  H   H2065     1.0  0.38725  0.49753  0.74355  1.0000
  H   H2066     1.0  0.03239  0.76176  0.65918  1.0000
  H   H2067     1.0  0.04249  0.62568  0.59221  1.0000
  C   C2601     1.0  0.34647  0.51933  0.77658  1.0000
  H   H2068     1.0  0.13089  0.85478  0.73822  1.0000
  C   C2602     1.0  0.39703  0.56382  0.65894  1.0000
  C   C2603     1.0  0.39765  0.55899  0.67561  1.0000
  C   C2604     1.0  0.39777  0.54260  0.68392  1.0000
  C   C2605     1.0  0.39674  0.53117  0.67570  1.0000
  C   C2606     1.0  0.39558  0.53604  0.65910  1.0000
  C   C2607     1.0  0.39640  0.55230  0.65059  1.0000
  P   P88       1.0  0.39559  0.52084  0.64836  1.0000
  C   C2608     1.0  0.41715  0.51271  0.64052  1.0000
  C   C2609     1.0  0.38565  0.50492  0.66241  1.0000
  P   P89       1.0  0.42705  0.74637  0.77718  1.0000
  C   C2610     1.0  0.00617  0.77783  0.60827  1.0000
  H   H2069     1.0  0.06358  0.89041  0.66192  1.0000
  C   C2611     1.0  0.36304  0.49704  0.68464  1.0000
  C   C2612     1.0  0.37083  0.50926  0.67365  1.0000
  H   H2070     1.0  0.26179  0.58347  0.61297  1.0000
  C   C2613     1.0  0.34365  0.64654  0.75058  1.0000
  H   H2071     1.0  0.25620  0.51017  0.77148  1.0000
  C   C2614     1.0  0.38406  0.52910  0.63226  1.0000
  C   C2615     1.0  0.37208  0.54392  0.63208  1.0000
  C   C2616     1.0  0.36362  0.55032  0.61924  1.0000
  C   C2617     1.0  0.36653  0.54163  0.60688  1.0000
  C   C2618     1.0  0.37779  0.52645  0.60746  1.0000
  C   C2619     1.0  0.38648  0.52016  0.62014  1.0000
  H   H2072     1.0  0.39702  0.57652  0.65254  1.0000
  H   H2073     1.0  0.39796  0.56800  0.68207  1.0000
  H   H2074     1.0  0.39862  0.53871  0.69674  1.0000
  H   H2075     1.0  0.39701  0.51851  0.68226  1.0000
  H   H2076     1.0  0.39647  0.55614  0.63756  1.0000
  C   C2620     1.0  0.17819  0.91880  0.67696  1.0000
  H   H2077     1.0  0.16849  0.93133  0.63922  1.0000
  C   C2621     1.0  0.00903  0.64603  0.65481  1.0000
  H   H2078     1.0  0.35153  0.50053  0.69317  1.0000
  H   H2079     1.0  0.36529  0.52209  0.67389  1.0000
  H   H2080     1.0  0.41766  0.52689  0.61551  1.0000
  C   C2622     1.0  0.47845  0.70611  0.77514  1.0000
  H   H2081     1.0  0.12675  0.83592  0.76535  1.0000
  H   H2082     1.0  0.36899  0.55050  0.64191  1.0000
  H   H2083     1.0  0.35442  0.56180  0.61917  1.0000
  C   C2623     1.0  0.02247  0.65003  0.62097  1.0000
  S   S341      1.0  0.00185  0.93338  0.73965  1.0000
  H   H2084     1.0  0.39484  0.50816  0.62071  1.0000
  C   C2624     1.0  0.48734  0.69655  0.76340  1.0000
  C   C2625     1.0  0.38415  0.64943  0.77024  1.0000
  C   C2626     1.0  0.05974  0.95324  0.77680  1.0000
  C   C2627     1.0  0.03003  0.73352  0.61489  1.0000
  C   C2628     1.0  0.02555  0.72083  0.62821  1.0000
  C   C2629     1.0  0.03558  0.70486  0.62918  1.0000
  P   P90       1.0  0.00666  0.72516  0.64339  1.0000
  C   C2630     1.0  0.16965  0.89532  0.72474  1.0000
  H   H2085     1.0  0.02812  0.59733  0.59882  1.0000
  C   C2631     1.0  0.24044  0.94467  0.66360  1.0000
  C   C2632     1.0  0.11387  0.92947  0.74390  1.0000
  H   H2086     1.0  0.07557  0.93654  0.71157  1.0000
  C   C2633     1.0  0.01766  0.65856  0.64665  1.0000
  C   C2634     1.0  0.39981  0.49055  0.76358  1.0000
  H   H2087     1.0  0.10575  0.93254  0.75511  1.0000
  C   C2635     1.0  0.42494  0.70426  0.76538  1.0000
  C   C2636     1.0  0.00881  0.73687  0.65686  1.0000
  H   H2088     1.0  0.42032  0.57183  0.77339  1.0000
  C   C2637     1.0  0.02130  0.74587  0.65224  1.0000
  C   C2638     1.0  0.43959  0.70120  0.75364  1.0000
  C   C2639     1.0  0.13703  0.87322  0.74695  1.0000
  C   C2640     1.0  0.00525  0.95118  0.74372  1.0000
  H   H2089     1.0  0.26846  0.48974  0.63714  1.0000
  C   C2641     1.0  0.14030  0.87661  0.76060  1.0000
  C   C2642     1.0  0.17054  0.91986  0.66427  1.0000
  S   S342      1.0  0.35241  0.49833  0.63049  1.0000
  H   H2090     1.0  0.44731  0.51573  0.60539  1.0000
  C   C2643     1.0  0.39530  0.75554  0.77099  1.0000
  H   H2091     1.0  0.02241  0.74586  0.61387  1.0000
  H   H2092     1.0  0.03232  0.69480  0.63915  1.0000
  C   C2644     1.0  0.20314  0.96012  0.68561  1.0000
  H   H2093     1.0  0.29164  0.54841  0.76984  1.0000
  C   C2645     1.0  0.07995  0.87823  0.76111  1.0000
  C   C2646     1.0  0.21712  0.97779  0.63118  1.0000
  H   H2094     1.0  0.00097  0.72624  0.61089  1.0000
  H   H2095     1.0  0.22391  0.91443  0.66002  1.0000
  H   H2096     1.0  0.11401  0.95478  0.73136  1.0000
  H   H2097     1.0  0.44476  0.87939  0.77502  1.0000
  C   C2647     1.0  0.00525  0.86436  0.77150  1.0000
  H   H2098     1.0  0.99578  0.94385  0.69643  1.0000
  H   H2099     1.0  0.99836  0.81938  0.60391  1.0000
  C   C2648     1.0  0.12272  0.67415  0.59433  1.0000
  C   C2649     1.0  0.32939  0.66203  0.77723  1.0000
  C   C2650     1.0  0.06953  0.83303  0.75732  1.0000
  C   C2651     1.0  0.05538  0.83756  0.76917  1.0000
  H   H2100     1.0  0.03497  0.86449  0.58252  1.0000
  C   C2652     1.0  0.02266  0.91530  0.77024  1.0000
  C   C2653     1.0  0.00158  0.96425  0.70185  1.0000
  C   C2654     1.0  0.00431  0.95202  0.69308  1.0000
  H   H2101     1.0  0.05951  0.92303  0.76935  1.0000
  H   H2102     1.0  0.29906  0.48796  0.63288  1.0000
  C   C2655     1.0  0.04636  0.92340  0.77297  1.0000
  C   C2656     1.0  0.44568  0.48775  0.75308  1.0000
  H   H2103     1.0  0.00587  0.88472  0.78140  1.0000
  H   H2104     1.0  0.38270  0.56560  0.78160  1.0000
  P   P91       1.0  0.04205  0.98505  0.68062  1.0000
  C   C2657     1.0  0.13064  0.84723  0.76399  1.0000
  C   C2658     1.0  0.03985  0.84383  0.76491  1.0000
  H   H2105     1.0  0.12594  0.68477  0.59605  1.0000
  H   H2106     1.0  0.00057  0.84694  0.76029  1.0000
  C   C2659     1.0  0.06562  0.98426  0.69750  1.0000
  H   H2107     1.0  0.08474  0.98365  0.70946  1.0000
  C   C2660     1.0  0.07577  0.95246  0.77829  1.0000
  C   C2661     1.0  0.99724  0.85950  0.76203  1.0000
  H   H2108     1.0  0.29440  0.57213  0.58896  1.0000
  H   H2109     1.0  0.11122  0.63606  0.58829  1.0000
  C   C2662     1.0  0.99476  0.86618  0.69626  1.0000
  H   H2110     1.0  0.99724  0.84380  0.64944  1.0000
  H   H2111     1.0  0.09139  0.98698  0.63488  1.0000
  C   C2663     1.0  0.22176  0.98612  0.61486  1.0000
  C   C2664     1.0  0.10398  0.98643  0.77508  1.0000
  H   H2112     1.0  0.05666  0.83646  0.78157  1.0000
  C   C2665     1.0  0.33418  0.50992  0.78175  1.0000
  S   S343      1.0  0.36464  0.53852  0.78220  1.0000
  H   H2113     1.0  0.29293  0.61720  0.58323  1.0000
  Fe  Fe176     1.0  0.36994  0.74591  0.90217  1.0000
  S   S344      1.0  0.37592  0.76165  0.87693  1.0000
  S   S345      1.0  0.34310  0.75165  0.91546  1.0000
  Fe  Fe177     1.0  0.40400  0.72276  0.89754  1.0000
  S   S346      1.0  0.41240  0.73639  0.87164  1.0000
  S   S347      1.0  0.42069  0.69935  0.90846  1.0000
  Fe  Fe178     1.0  0.40057  0.75890  0.88225  1.0000
  S   S348      1.0  0.41359  0.77991  0.87437  1.0000
  Fe  Fe179     1.0  0.38707  0.73791  0.86841  1.0000
  S   S349      1.0  0.37940  0.73836  0.84538  1.0000
  S   S350      1.0  0.39387  0.74527  0.90855  1.0000
  S   S351      1.0  0.37947  0.72214  0.89333  1.0000
  H   H2114     1.0  0.32682  0.92958  0.96141  1.0000
  H   H2115     1.0  0.48765  0.66051  0.83653  1.0000
  S   S352      1.0  0.40524  0.68183  0.80529  1.0000
  S   S353      1.0  0.43661  0.64004  0.81678  1.0000
  S   S354      1.0  0.45354  0.67235  0.80574  1.0000
  S   S355      1.0  0.43936  0.79574  0.79702  1.0000
  H   H2116     1.0  0.45973  0.72375  0.92129  1.0000
  H   H2117     1.0  0.09450  0.85527  0.79517  1.0000
  Fe  Fe180     1.0  0.18080  0.90553  0.91455  1.0000
  S   S356      1.0  0.20256  0.88534  0.90808  1.0000
  S   S357      1.0  0.16505  0.92169  0.89636  1.0000
  Fe  Fe181     1.0  0.18551  0.89886  0.94994  1.0000
  S   S358      1.0  0.20715  0.87785  0.94632  1.0000
  H   H2118     1.0  0.34104  0.61712  0.78938  1.0000
  Fe  Fe182     1.0  0.21537  0.89435  0.92211  1.0000
  S   S359      1.0  0.24187  0.89682  0.91224  1.0000
  Fe  Fe183     1.0  0.19251  0.87065  0.93270  1.0000
  S   S360      1.0  0.19252  0.84403  0.93561  1.0000
  S   S361      1.0  0.19457  0.91616  0.92653  1.0000
  S   S362      1.0  0.16979  0.89014  0.93844  1.0000
  H   H2119     1.0  0.16921  0.83314  0.89456  1.0000
  C   C2666     1.0  0.49254  0.64979  0.84505  1.0000
  C   C2667     1.0  0.46853  0.64914  0.94184  1.0000
  C   C2668     1.0  0.28229  0.87385  0.86287  1.0000
  C   C2669     1.0  0.03618  0.93257  0.78457  1.0000
  C   C2670     1.0  0.47353  0.87024  0.82661  1.0000
  H   H2120     1.0  0.32388  0.66803  0.78755  1.0000
  C   C2671     1.0  0.49267  0.75675  0.89567  1.0000
  H   H2121     1.0  0.44500  0.69173  0.95229  1.0000
  Fe  Fe184     1.0  0.14052  0.90553  0.82112  1.0000
  S   S363      1.0  0.11298  0.90859  0.82657  1.0000
  S   S364      1.0  0.15519  0.89145  0.84091  1.0000
  C   C2672     1.0  0.35848  0.57618  0.79437  1.0000
  C   C2673     1.0  0.34844  0.52800  0.78719  1.0000
  Fe  Fe185     1.0  0.11339  0.93371  0.81036  1.0000
  S   S365      1.0  0.09374  0.95480  0.81856  1.0000
  Fe  Fe186     1.0  0.11619  0.90059  0.80300  1.0000
  S   S366      1.0  0.10261  0.88170  0.80224  1.0000
  S   S367      1.0  0.14083  0.93135  0.80617  1.0000
  C   C2674     1.0  0.47728  0.66026  0.94283  1.0000
  C   C2675     1.0  0.09174  0.97089  0.80137  1.0000
  H   H2122     1.0  0.47556  0.68403  0.94746  1.0000
  C   C2676     1.0  0.44149  0.71742  0.81903  1.0000
  C   C2677     1.0  0.00318  0.98224  0.81691  1.0000
  C   C2678     1.0  0.47394  0.98670  0.78556  1.0000
  Fe  Fe187     1.0  0.46708  0.78800  0.79232  1.0000
  H   H2123     1.0  0.48870  0.72956  0.88739  1.0000
  C   C2679     1.0  0.46714  0.80558  0.85726  1.0000
  H   H2124     1.0  0.22545  0.82330  0.94953  1.0000
  H   H2125     1.0  0.33498  0.59011  0.80495  1.0000
  C   C2680     1.0  0.48351  0.84096  0.82767  1.0000
  H   H2126     1.0  0.48052  0.73146  0.83538  1.0000
  H   H2127     1.0  0.48225  0.71102  0.87427  1.0000
  P   P92       1.0  0.47909  0.63037  0.93468  1.0000
  H   H2128     1.0  0.45456  0.98293  0.80718  1.0000
  C   C2681     1.0  0.16145  0.91307  0.88152  1.0000
  C   C2682     1.0  0.15439  0.92354  0.86844  1.0000
  C   C2683     1.0  0.15205  0.91711  0.85607  1.0000
  C   C2684     1.0  0.15675  0.90011  0.85671  1.0000
  C   C2685     1.0  0.16350  0.88963  0.86997  1.0000
  C   C2686     1.0  0.16584  0.89605  0.88232  1.0000
  H   H2129     1.0  0.15091  0.93672  0.86772  1.0000
  H   H2130     1.0  0.14683  0.92532  0.84594  1.0000
  H   H2131     1.0  0.16701  0.87648  0.87061  1.0000
  H   H2132     1.0  0.17116  0.88784  0.89238  1.0000
  H   H2133     1.0  0.48953  0.65184  0.90332  1.0000
  H   H2134     1.0  0.21284  0.95487  0.95183  1.0000
  C   C2687     1.0  0.22731  0.88689  0.80501  1.0000
  C   C2688     1.0  0.44272  0.66887  0.94848  1.0000
  H   H2135     1.0  0.15762  0.85158  0.93689  1.0000
  C   C2689     1.0  0.25478  0.88588  0.92610  1.0000
  C   C2690     1.0  0.26884  0.89145  0.92531  1.0000
  C   C2691     1.0  0.27907  0.88326  0.93652  1.0000
  C   C2692     1.0  0.27540  0.86931  0.94848  1.0000
  C   C2693     1.0  0.26181  0.86323  0.94879  1.0000
  C   C2694     1.0  0.25150  0.87154  0.93761  1.0000
  H   H2136     1.0  0.27160  0.90236  0.91626  1.0000
  H   H2137     1.0  0.28970  0.88785  0.93603  1.0000
  H   H2138     1.0  0.25904  0.85232  0.95784  1.0000
  H   H2139     1.0  0.24115  0.86669  0.93783  1.0000
  H   H2140     1.0  0.40769  0.61777  0.80209  1.0000
  C   C2695     1.0  0.14638  0.84117  0.96182  1.0000
  C   C2696     1.0  0.33064  0.73078  0.97185  1.0000
  C   C2697     1.0  0.43491  0.73927  0.79578  1.0000
  H   H2141     1.0  0.13393  0.84537  0.95975  1.0000
  C   C2698     1.0  0.31994  0.92076  0.96144  1.0000
  H   H2142     1.0  0.27743  0.81616  0.86294  1.0000
  P   P93       1.0  0.21977  0.86669  0.85456  1.0000
  C   C2699     1.0  0.19790  0.84596  0.86080  1.0000
  C   C2700     1.0  0.11316  0.90749  0.96241  1.0000
  H   H2143     1.0  0.48377  0.97892  0.79160  1.0000
  H   H2144     1.0  0.29921  0.85932  0.91092  1.0000
  S   S368      1.0  0.48298  0.79764  0.80248  1.0000
  C   C2701     1.0  0.32332  0.50990  0.79718  1.0000
  C   C2702     1.0  0.46034  0.87022  0.82008  1.0000
  C   C2703     1.0  0.33724  0.76166  0.93204  1.0000
  C   C2704     1.0  0.34896  0.76259  0.93999  1.0000
  C   C2705     1.0  0.34379  0.76924  0.95417  1.0000
  C   C2706     1.0  0.32693  0.77523  0.96028  1.0000
  C   C2707     1.0  0.31526  0.77499  0.95190  1.0000
  C   C2708     1.0  0.32040  0.76805  0.93789  1.0000
  H   H2145     1.0  0.36195  0.75771  0.93554  1.0000
  S   S369      1.0  0.32096  0.78200  0.97892  1.0000
  C   C2709     1.0  0.38950  0.49432  0.84439  1.0000
  H   H2146     1.0  0.31132  0.76745  0.93168  1.0000
  C   C2710     1.0  0.42054  0.78414  0.85284  1.0000
  C   C2711     1.0  0.41203  0.78125  0.84258  1.0000
  C   C2712     1.0  0.41749  0.78529  0.82537  1.0000
  C   C2713     1.0  0.43182  0.79163  0.81845  1.0000
  C   C2714     1.0  0.44043  0.79423  0.82875  1.0000
  C   C2715     1.0  0.43469  0.79067  0.84586  1.0000
  H   H2147     1.0  0.40111  0.77613  0.84788  1.0000
  H   H2148     1.0  0.41087  0.78309  0.81746  1.0000
  H   H2149     1.0  0.45130  0.79935  0.82353  1.0000
  H   H2150     1.0  0.44114  0.79312  0.85372  1.0000
  C   C2716     1.0  0.38818  0.72298  0.83383  1.0000
  C   C2717     1.0  0.40255  0.71099  0.83628  1.0000
  C   C2718     1.0  0.40858  0.69867  0.82690  1.0000
  C   C2719     1.0  0.40000  0.69823  0.81543  1.0000
  C   C2720     1.0  0.38590  0.71045  0.81283  1.0000
  C   C2721     1.0  0.38009  0.72279  0.82191  1.0000
  H   H2151     1.0  0.40886  0.71111  0.84547  1.0000
  H   H2152     1.0  0.41942  0.68918  0.82896  1.0000
  H   H2153     1.0  0.37921  0.71014  0.80403  1.0000
  H   H2154     1.0  0.36896  0.73196  0.82002  1.0000
  C   C2722     1.0  0.47213  0.70185  0.91181  1.0000
  C   C2723     1.0  0.47018  0.68939  0.90549  1.0000
  C   C2724     1.0  0.45436  0.68879  0.90437  1.0000
  C   C2725     1.0  0.44054  0.70107  0.90885  1.0000
  C   C2726     1.0  0.44258  0.71389  0.91461  1.0000
  C   C2727     1.0  0.45828  0.71407  0.91642  1.0000
  C   C2728     1.0  0.44966  0.76058  0.94190  1.0000
  H   H2155     1.0  0.45280  0.67882  0.90002  1.0000
  H   H2156     1.0  0.43197  0.72336  0.91816  1.0000
  C   C2729     1.0  0.37980  0.76262  0.80200  1.0000
  H   H2157     1.0  0.47502  0.88165  0.82843  1.0000
  H   H2158     1.0  0.43771  0.83077  0.79160  1.0000
  C   C2730     1.0  0.47011  0.78897  0.86532  1.0000
  C   C2731     1.0  0.43341  0.61664  0.86172  1.0000
  C   C2732     1.0  0.42097  0.61063  0.85926  1.0000
  C   C2733     1.0  0.40458  0.61945  0.86212  1.0000
  C   C2734     1.0  0.40071  0.63454  0.86692  1.0000
  C   C2735     1.0  0.41330  0.64116  0.86842  1.0000
  C   C2736     1.0  0.42954  0.63166  0.86660  1.0000
  P   P94       1.0  0.40844  0.66097  0.87404  1.0000
  C   C2737     1.0  0.40407  0.65683  0.89628  1.0000
  C   C2738     1.0  0.42477  0.67231  0.86538  1.0000
  C   C2739     1.0  0.43745  0.66836  0.85199  1.0000
  C   C2740     1.0  0.45098  0.67591  0.84684  1.0000
  C   C2741     1.0  0.45176  0.68777  0.85466  1.0000
  C   C2742     1.0  0.43853  0.69272  0.86710  1.0000
  C   C2743     1.0  0.42496  0.68522  0.87224  1.0000
  C   C2744     1.0  0.41563  0.65745  0.90473  1.0000
  C   C2745     1.0  0.41167  0.65515  0.92189  1.0000
  C   C2746     1.0  0.39634  0.65174  0.93080  1.0000
  C   C2747     1.0  0.38497  0.65057  0.92253  1.0000
  C   C2748     1.0  0.38882  0.65309  0.90533  1.0000
  C   C2749     1.0  0.39048  0.67443  0.86695  1.0000
  C   C2750     1.0  0.38059  0.68670  0.87544  1.0000
  C   C2751     1.0  0.36688  0.69745  0.86982  1.0000
  C   C2752     1.0  0.36287  0.69594  0.85576  1.0000
  C   C2753     1.0  0.37272  0.68383  0.84718  1.0000
  C   C2754     1.0  0.38668  0.67334  0.85254  1.0000
  H   H2159     1.0  0.44618  0.60990  0.85942  1.0000
  H   H2160     1.0  0.42408  0.59918  0.85508  1.0000
  H   H2161     1.0  0.39491  0.61470  0.86037  1.0000
  H   H2162     1.0  0.38792  0.64111  0.86918  1.0000
  H   H2163     1.0  0.43938  0.63601  0.86844  1.0000
  H   H2164     1.0  0.43706  0.65938  0.84554  1.0000
  H   H2165     1.0  0.46084  0.67252  0.83673  1.0000
  H   H2166     1.0  0.46243  0.69336  0.85078  1.0000
  H   H2167     1.0  0.43879  0.70220  0.87301  1.0000
  H   H2168     1.0  0.41483  0.68917  0.88195  1.0000
  H   H2169     1.0  0.42757  0.66012  0.89817  1.0000
  H   H2170     1.0  0.42039  0.65645  0.92817  1.0000
  C   C2755     1.0  0.41884  0.88336  0.81216  1.0000
  H   H2171     1.0  0.38131  0.50660  0.80021  1.0000
  H   H2172     1.0  0.37980  0.65242  0.89904  1.0000
  H   H2173     1.0  0.38368  0.68824  0.88619  1.0000
  H   H2174     1.0  0.35965  0.70730  0.87605  1.0000
  H   H2175     1.0  0.35258  0.70462  0.85111  1.0000
  H   H2176     1.0  0.37011  0.68315  0.83584  1.0000
  H   H2177     1.0  0.39476  0.66482  0.84506  1.0000
  C   C2756     1.0  0.02281  0.85525  0.81059  1.0000
  H   H2178     1.0  0.07821  0.89949  0.84269  1.0000
  H   H2179     1.0  0.32307  0.48834  0.83273  1.0000
  H   H2180     1.0  0.48083  0.68008  0.90180  1.0000
  C   C2757     1.0  0.48516  0.85563  0.83032  1.0000
  H   H2181     1.0  0.35089  0.49281  0.81780  1.0000
  C   C2758     1.0  0.47057  0.84094  0.82086  1.0000
  H   H2182     1.0  0.10956  0.98086  0.82143  1.0000
  H   H2183     1.0  0.46874  0.80872  0.84398  1.0000
  H   H2184     1.0  0.48806  0.61049  0.86296  1.0000
  C   C2759     1.0  0.22992  0.87942  0.82093  1.0000
  H   H2185     1.0  0.47416  0.77960  0.85806  1.0000
  C   C2760     1.0  0.32348  0.91366  0.94780  1.0000
  H   H2186     1.0  0.49065  0.65781  0.93958  1.0000
  C   C2761     1.0  0.09368  0.88126  0.78618  1.0000
  C   C2762     1.0  0.01909  0.93321  0.78877  1.0000
  C   C2763     1.0  0.09106  0.86607  0.78586  1.0000
  C   C2764     1.0  0.48990  0.72178  0.83039  1.0000
  Fe  Fe188     1.0  0.14189  0.92116  0.78437  1.0000
  C   C2765     1.0  0.45974  0.81362  0.88350  1.0000
  C   C2766     1.0  0.10574  0.97415  0.78934  1.0000
  S   S370      1.0  0.49163  0.70217  0.91453  1.0000
  H   H2187     1.0  0.13126  0.84281  0.78965  1.0000
  H   H2188     1.0  0.03181  0.71279  0.96634  1.0000
  H   H2189     1.0  0.48828  0.73596  0.91580  1.0000
  H   H2190     1.0  0.07312  0.92979  0.83992  1.0000
  C   C2767     1.0  0.46204  0.81793  0.86633  1.0000
  C   C2768     1.0  0.31554  0.80672  0.89667  1.0000
  H   H2191     1.0  0.14019  0.86853  0.78655  1.0000
  C   C2769     1.0  0.00096  0.80381  0.81040  1.0000
  H   H2192     1.0  0.29500  0.85587  0.84801  1.0000
  H   H2193     1.0  0.28062  0.88403  0.85242  1.0000
  C   C2770     1.0  0.20513  0.89777  0.86121  1.0000
  C   C2771     1.0  0.46151  0.62752  0.91303  1.0000
  C   C2772     1.0  0.16596  0.86656  0.97952  1.0000
  C   C2773     1.0  0.44147  0.74554  0.81871  1.0000
  S   S371      1.0  0.28779  0.85997  0.96307  1.0000
  H   H2194     1.0  0.40895  0.64723  0.79580  1.0000
  C   C2774     1.0  0.41485  0.84232  0.81582  1.0000
  H   H2195     1.0  0.42941  0.67262  0.94984  1.0000
  C   C2775     1.0  0.13024  0.92390  0.94051  1.0000
  C   C2776     1.0  0.44334  0.72892  0.82668  1.0000
  H   H2196     1.0  0.44278  0.70458  0.82514  1.0000
  S   S372      1.0  0.17641  0.90450  0.97538  1.0000
  C   C2777     1.0  0.19832  0.88603  0.81455  1.0000
  H   H2197     1.0  0.07997  0.94601  0.78952  1.0000
  H   H2198     1.0  0.25363  0.84958  0.90670  1.0000
  C   C2778     1.0  0.21684  0.87465  0.83366  1.0000
  C   C2779     1.0  0.46250  0.79698  0.89160  1.0000
  H   H2199     1.0  0.17965  0.85071  0.90602  1.0000
  H   H2200     1.0  0.06521  0.97735  0.80853  1.0000
  H   H2201     1.0  0.01977  0.80533  0.96633  1.0000
  H   H2202     1.0  0.22214  0.92754  0.97641  1.0000
  Fe  Fe189     1.0  0.43097  0.66616  0.80288  1.0000
  C   C2780     1.0  0.47651  0.59759  0.94344  1.0000
  C   C2781     1.0  0.40512  0.82603  0.84273  1.0000
  H   H2203     1.0  0.39649  0.81871  0.85096  1.0000
  C   C2782     1.0  0.46266  0.64432  0.88539  1.0000
  S   S373      1.0  0.30777  0.49831  0.80429  1.0000
  H   H2204     1.0  0.45869  0.64804  0.87382  1.0000
  H   H2205     1.0  0.22704  0.84635  0.92509  1.0000
  H   H2206     1.0  0.32318  0.80995  0.94923  1.0000
  C   C2783     1.0  0.40975  0.89936  0.80742  1.0000
  H   H2207     1.0  0.01089  0.94056  0.79731  1.0000
  C   C2784     1.0  0.45150  0.67967  0.94986  1.0000
  C   C2785     1.0  0.21906  0.88470  0.86179  1.0000
  C   C2786     1.0  0.11711  0.91575  0.94592  1.0000
  H   H2208     1.0  0.01465  0.84677  0.81651  1.0000
  H   H2209     1.0  0.30227  0.77979  0.95640  1.0000
  H   H2210     1.0  0.20142  0.86528  0.88872  1.0000
  C   C2787     1.0  0.19960  0.95569  0.95558  1.0000
  H   H2211     1.0  0.40386  0.75554  0.80734  1.0000
  C   C2788     1.0  0.43402  0.75808  0.94286  1.0000
  H   H2212     1.0  0.19112  0.82626  0.96902  1.0000
  H   H2213     1.0  0.45570  0.82317  0.89056  1.0000
  C   C2789     1.0  0.26657  0.82588  0.86120  1.0000
  C   C2790     1.0  0.46267  0.61346  0.96447  1.0000
  C   C2791     1.0  0.30223  0.89804  0.96153  1.0000
  C   C2792     1.0  0.42975  0.75715  0.92872  1.0000
  C   C2793     1.0  0.44114  0.75857  0.91363  1.0000
  C   C2794     1.0  0.45705  0.76068  0.91260  1.0000
  C   C2795     1.0  0.46110  0.76201  0.92681  1.0000
  P   P95       1.0  0.47158  0.76305  0.89296  1.0000
  C   C2796     1.0  0.46762  0.78452  0.88255  1.0000
  H   H2214     1.0  0.44289  0.75451  0.82461  1.0000
  H   H2215     1.0  0.30609  0.80695  0.93209  1.0000
  C   C2797     1.0  0.27634  0.87658  0.87887  1.0000
  C   C2798     1.0  0.28643  0.84748  0.89007  1.0000
  H   H2216     1.0  0.45986  0.83081  0.86009  1.0000
  H   H2217     1.0  0.00165  0.96314  0.83903  1.0000
  C   C2799     1.0  0.14958  0.87518  0.98023  1.0000
  C   C2800     1.0  0.41832  0.82768  0.84817  1.0000
  H   H2218     1.0  0.44601  0.72499  0.83883  1.0000
  C   C2801     1.0  0.46862  0.75003  0.88125  1.0000
  C   C2802     1.0  0.45562  0.75538  0.87288  1.0000
  C   C2803     1.0  0.45221  0.74488  0.86510  1.0000
  C   C2804     1.0  0.46153  0.72875  0.86598  1.0000
  H   H2219     1.0  0.20516  0.91916  0.96229  1.0000
  H   H2220     1.0  0.25100  0.80313  0.95532  1.0000
  H   H2221     1.0  0.41757  0.75539  0.92935  1.0000
  H   H2222     1.0  0.43738  0.75799  0.90288  1.0000
  H   H2223     1.0  0.35285  0.76947  0.96060  1.0000
  H   H2224     1.0  0.29878  0.83269  0.87174  1.0000
  H   H2225     1.0  0.02541  0.78969  0.80249  1.0000
  H   H2226     1.0  0.19488  0.89702  0.85666  1.0000
  C   C2805     1.0  0.34679  0.59073  0.79648  1.0000
  S   S374      1.0  0.47723  0.76129  0.80202  1.0000
  H   H2227     1.0  0.47610  0.72815  0.78385  1.0000
  H   H2228     1.0  0.47490  0.57202  0.95009  1.0000
  C   C2806     1.0  0.15976  0.84461  0.94888  1.0000
  H   H2229     1.0  0.44783  0.76756  0.87276  1.0000
  H   H2230     1.0  0.44214  0.74926  0.85866  1.0000
  C   C2807     1.0  0.32473  0.51942  0.80728  1.0000
  H   H2231     1.0  0.02432  0.94261  0.82664  1.0000
  H   H2232     1.0  0.20302  0.84434  0.84827  1.0000
  H   H2233     1.0  0.23208  0.88535  0.97098  1.0000
  H   H2234     1.0  0.27003  0.88882  0.88094  1.0000
  H   H2235     1.0  0.46060  0.79387  0.90489  1.0000
  Fe  Fe190     1.0  0.44905  0.63357  0.79210  1.0000
  C   C2808     1.0  0.47191  0.61268  0.94845  1.0000
  C   C2809     1.0  0.47846  0.73408  0.88128  1.0000
  C   C2810     1.0  0.24938  0.90095  0.96591  1.0000
  C   C2811     1.0  0.19117  0.95831  0.97129  1.0000
  H   H2236     1.0  0.25956  0.82817  0.88654  1.0000
  C   C2812     1.0  0.02818  0.86238  0.82037  1.0000
  C   C2813     1.0  0.48015  0.64636  0.90206  1.0000
  C   C2814     1.0  0.43006  0.83626  0.83733  1.0000
  H   H2237     1.0  0.26932  0.77848  0.97184  1.0000
  H   H2238     1.0  0.44425  0.64559  0.94309  1.0000
  H   H2239     1.0  0.05890  0.94888  0.81860  1.0000
  C   C2815     1.0  0.02810  0.85903  0.79337  1.0000
  C   C2816     1.0  0.25175  0.81326  0.94468  1.0000
  H   H2240     1.0  0.45947  0.62480  0.96883  1.0000
  C   C2817     1.0  0.45629  0.63223  0.89812  1.0000
  C   C2818     1.0  0.20091  0.87851  0.83042  1.0000
  H   H2241     1.0  0.31625  0.51969  0.81909  1.0000
  C   C2819     1.0  0.31462  0.90227  0.94786  1.0000
  S   S375      1.0  0.11439  0.92602  0.78720  1.0000
  C   C2820     1.0  0.33747  0.52808  0.80250  1.0000
  C   C2821     1.0  0.40089  0.62664  0.79337  1.0000
  C   C2822     1.0  0.27836  0.86347  0.89236  1.0000
  C   C2823     1.0  0.32329  0.79141  0.89258  1.0000
  C   C2824     1.0  0.31381  0.78065  0.89252  1.0000
  C   C2825     1.0  0.41331  0.90807  0.79111  1.0000
  H   H2242     1.0  0.48406  0.59667  0.93126  1.0000
  C   C2826     1.0  0.24139  0.88826  0.97534  1.0000
  H   H2243     1.0  0.45864  0.72036  0.86049  1.0000
  H   H2244     1.0  0.19327  0.92180  0.86644  1.0000
  H   H2245     1.0  0.33879  0.53491  0.81068  1.0000
  C   C2827     1.0  0.25655  0.83265  0.87449  1.0000
  C   C2828     1.0  0.29654  0.78525  0.89635  1.0000
  H   H2246     1.0  0.27535  0.80368  0.90384  1.0000
  C   C2829     1.0  0.40336  0.83338  0.82657  1.0000
  H   H2247     1.0  0.11792  0.96707  0.79092  1.0000
  C   C2830     1.0  0.47486  0.72347  0.87375  1.0000
  C   C2831     1.0  0.18469  0.84941  0.89336  1.0000
  C   C2832     1.0  0.39697  0.75720  0.79803  1.0000
  C   C2833     1.0  0.38811  0.51070  0.83558  1.0000
  C   C2834     1.0  0.38529  0.51495  0.81962  1.0000
  C   C2835     1.0  0.38406  0.50282  0.81238  1.0000
  H   H2248     1.0  0.10338  0.90075  0.96614  1.0000
  H   H2249     1.0  0.47305  0.76420  0.92624  1.0000
  H   H2250     1.0  0.46992  0.82962  0.81812  1.0000
  C   C2836     1.0  0.25357  0.83947  0.91729  1.0000
  H   H2251     1.0  0.14972  0.92994  0.94742  1.0000
  H   H2252     1.0  0.39324  0.83189  0.82233  1.0000
  C   C2837     1.0  0.43506  0.88477  0.78422  1.0000
  C   C2838     1.0  0.24247  0.84507  0.87234  1.0000
  H   H2253     1.0  0.33048  0.72912  0.95989  1.0000
  H   H2254     1.0  0.41317  0.84812  0.80340  1.0000
  H   H2255     1.0  0.33309  0.91694  0.93720  1.0000
  C   C2839     1.0  0.23237  0.88630  0.86728  1.0000
  H   H2256     1.0  0.23465  0.84995  0.88288  1.0000
  H   H2257     1.0  0.45170  0.88173  0.81695  1.0000
  H   H2258     1.0  0.27335  0.86577  0.90467  1.0000
  H   H2259     1.0  0.13378  0.92964  0.92758  1.0000
  H   H2260     1.0  0.24203  0.87765  0.82339  1.0000
  C   C2840     1.0  0.02098  0.95490  0.81928  1.0000
  H   H2261     1.0  0.38894  0.52017  0.84118  1.0000
  C   C2841     1.0  0.47440  0.65152  0.88747  1.0000
  C   C2842     1.0  0.45118  0.65363  0.94457  1.0000
  C   C2843     1.0  0.48650  0.63534  0.84858  1.0000
  C   C2844     1.0  0.28873  0.80051  0.90058  1.0000
  C   C2845     1.0  0.20346  0.85637  0.86707  1.0000
  H   H2262     1.0  0.19778  0.95087  0.93302  1.0000
  C   C2846     1.0  0.16563  0.95684  0.96560  1.0000
  C   C2847     1.0  0.23139  0.90047  0.87272  1.0000
  C   C2848     1.0  0.23734  0.82457  0.94138  1.0000
  S   S376      1.0  0.44364  0.60955  0.78996  1.0000
  H   H2263     1.0  0.16768  0.95197  0.94183  1.0000
  C   C2849     1.0  0.19699  0.85776  0.88350  1.0000
  H   H2264     1.0  0.37306  0.64799  0.92942  1.0000
  H   H2265     1.0  0.31732  0.89666  0.93737  1.0000
  C   C2850     1.0  0.32097  0.83603  0.93961  1.0000
  C   C2851     1.0  0.43737  0.75070  0.80324  1.0000
  H   H2266     1.0  0.45588  0.61869  0.92296  1.0000
  H   H2267     1.0  0.06940  0.88839  0.82372  1.0000
  C   C2852     1.0  0.20425  0.91194  0.86657  1.0000
  C   C2853     1.0  0.30753  0.91651  0.97514  1.0000
  C   C2854     1.0  0.20327  0.91588  0.97558  1.0000
  C   C2855     1.0  0.17886  0.83947  0.88691  1.0000
  Fe  Fe191     1.0  0.46065  0.64537  0.81731  1.0000
  C   C2856     1.0  0.01753  0.80192  0.80206  1.0000
  H   H2268     1.0  0.45289  0.76148  0.95284  1.0000
  C   C2857     1.0  0.26713  0.81521  0.93453  1.0000
  H   H2269     1.0  0.24350  0.87674  0.86747  1.0000
  C   C2858     1.0  0.47366  0.63444  0.91501  1.0000
  H   H2270     1.0  0.31993  0.76859  0.88982  1.0000
  C   C2859     1.0  0.04406  0.87715  0.79590  1.0000
  C   C2860     1.0  0.31803  0.82063  0.94067  1.0000
  C   C2861     1.0  0.24824  0.84383  0.84358  1.0000
  H   H2271     1.0  0.20938  0.89614  0.78956  1.0000
  C   C2862     1.0  0.99713  0.83348  0.80078  1.0000
  H   H2272     1.0  0.32313  0.81478  0.89688  1.0000
  H   H2273     1.0  0.38376  0.52769  0.81284  1.0000
  C   C2863     1.0  0.21729  0.91322  0.87249  1.0000
  C   C2864     1.0  0.17416  0.95399  0.94999  1.0000
  H   H2274     1.0  0.03676  0.81403  0.78661  1.0000
  P   P96       1.0  0.28835  0.83044  0.90769  1.0000
  H   H2275     1.0  0.37383  0.76493  0.81421  1.0000
  C   C2865     1.0  0.31425  0.84983  0.92868  1.0000
  C   C2866     1.0  0.12237  0.90738  0.97362  1.0000
  C   C2867     1.0  0.45439  0.84653  0.78928  1.0000
  C   C2868     1.0  0.26236  0.83141  0.84578  1.0000
  C   C2869     1.0  0.35030  0.60604  0.78759  1.0000
  H   H2276     1.0  0.39132  0.49111  0.85690  1.0000
  C   C2870     1.0  0.30103  0.83291  0.92018  1.0000
  H   H2277     1.0  0.18094  0.83001  0.86564  1.0000
  H   H2278     1.0  0.19030  0.87619  0.84020  1.0000
  H   H2279     1.0  0.18592  0.88903  0.81228  1.0000
  C   C2871     1.0  0.39178  0.62136  0.78543  1.0000
  C   C2872     1.0  0.26154  0.90461  0.97141  1.0000
  C   C2873     1.0  0.17588  0.83904  0.95148  1.0000
  C   C2874     1.0  0.29251  0.84485  0.87394  1.0000
  H   H2280     1.0  0.11019  0.98022  0.85007  1.0000
  C   C2875     1.0  0.02441  0.97501  0.79348  1.0000
  C   C2876     1.0  0.23842  0.85107  0.85676  1.0000
  C   C2877     1.0  0.29038  0.85799  0.86041  1.0000
  C   C2878     1.0  0.17863  0.83023  0.96705  1.0000
  H   H2281     1.0  0.41975  0.82169  0.86065  1.0000
  H   H2282     1.0  0.11038  0.91537  0.93716  1.0000
  H   H2283     1.0  0.47918  0.66104  0.87769  1.0000
  H   H2284     1.0  0.28924  0.77680  0.89642  1.0000
  H   H2285     1.0  0.42513  0.75699  0.95453  1.0000
  H   H2286     1.0  0.39321  0.65018  0.94408  1.0000
  C   C2879     1.0  0.26825  0.82845  0.92083  1.0000
  H   H2287     1.0  0.27809  0.80632  0.93743  1.0000
  C   C2880     1.0  0.14909  0.83267  0.97750  1.0000
  C   C2881     1.0  0.29820  0.81120  0.90112  1.0000
  H   H2288     1.0  0.24488  0.84745  0.83172  1.0000
  C   C2882     1.0  0.43719  0.72254  0.80371  1.0000
  C   C2883     1.0  0.30433  0.84832  0.91901  1.0000
  S   S377      1.0  0.28001  0.81592  0.96891  1.0000
  H   H2289     1.0  0.33669  0.78761  0.88993  1.0000
  H   H2290     1.0  0.31618  0.86185  0.92821  1.0000
  C   C2884     1.0  0.23826  0.83759  0.92762  1.0000
  H   H2291     1.0  0.32813  0.83733  0.94753  1.0000
  H   H2292     1.0  0.24139  0.90148  0.87748  1.0000
  H   H2293     1.0  0.21636  0.92398  0.87713  1.0000
  C   C2885     1.0  0.30814  0.81905  0.93102  1.0000
  P   P97       1.0  0.04521  0.94366  0.79349  1.0000
  C   C2886     1.0  0.05563  0.92951  0.80906  1.0000
  C   C2887     1.0  0.02930  0.95908  0.80278  1.0000
  C   C2888     1.0  0.45757  0.59945  0.97511  1.0000
  H   H2294     1.0  0.05533  0.90718  0.80228  1.0000
  C   C2889     1.0  0.18549  0.83770  0.87064  1.0000
  C   C2890     1.0  0.34549  0.73127  0.97512  1.0000
  C   C2891     1.0  0.07603  0.98005  0.79931  1.0000
  C   C2892     1.0  0.06071  0.93570  0.81985  1.0000
  C   C2893     1.0  0.06869  0.92490  0.83203  1.0000
  C   C2894     1.0  0.07158  0.90785  0.83358  1.0000
  C   C2895     1.0  0.06656  0.90160  0.82290  1.0000
  C   C2896     1.0  0.05869  0.91235  0.81062  1.0000
  H   H2295     1.0  0.24621  0.90778  0.95425  1.0000
  C   C2897     1.0  0.42855  0.84347  0.82097  1.0000
  C   C2898     1.0  0.19113  0.95340  0.94499  1.0000
  C   C2899     1.0  0.00805  0.96648  0.82633  1.0000
  C   C2900     1.0  0.13920  0.92411  0.95167  1.0000
  H   H2296     1.0  0.43522  0.71343  0.79840  1.0000
  S   S378      1.0  0.46966  0.63403  0.84123  1.0000
  H   H2297     1.0  0.39168  0.60837  0.78826  1.0000
  C   C2901     1.0  0.29851  0.90512  0.97527  1.0000
  C   C2902     1.0  0.45884  0.85553  0.81710  1.0000
  H   H2298     1.0  0.26763  0.91443  0.96390  1.0000
  C   C2903     1.0  0.43155  0.87594  0.80059  1.0000
  C   C2904     1.0  0.37371  0.57691  0.78341  1.0000
  H   H2299     1.0  0.30458  0.73245  0.98102  1.0000
  C   C2905     1.0  0.01134  0.98647  0.80048  1.0000
  S   S379      1.0  0.14390  0.89503  0.79895  1.0000
  H   H2300     1.0  0.41596  0.87676  0.82487  1.0000
  C   C2906     1.0  0.01375  0.83169  0.79230  1.0000
  C   C2907     1.0  0.47140  0.58361  0.95409  1.0000
  H   H2301     1.0  0.34967  0.64663  0.78798  1.0000
  H   H2302     1.0  0.26991  0.82586  0.83557  1.0000
  C   C2908     1.0  0.03864  0.87015  0.78609  1.0000
  H   H2303     1.0  0.47796  0.72327  0.81107  1.0000
  H   H2304     1.0  0.14456  0.87795  0.96935  1.0000
  C   C2909     1.0  0.48862  0.71739  0.81649  1.0000
  H   H2305     1.0  0.35701  0.76834  0.79383  1.0000
  H   H2306     1.0  0.17338  0.86296  0.96827  1.0000
  P   P98       1.0  0.44316  0.85532  0.80699  1.0000
  Fe  Fe192     1.0  0.28145  0.83641  0.97932  1.0000
  C   C2910     1.0  0.02405  0.79995  0.97772  1.0000
  C   C2911     1.0  0.46874  0.67530  0.94717  1.0000
  S   S380      1.0  0.47367  0.63714  0.79362  1.0000
  H   H2307     1.0  0.23743  0.89051  0.79521  1.0000
  H   H2308     1.0  0.35677  0.72999  0.96569  1.0000
  H   H2309     1.0  0.44715  0.62669  0.89646  1.0000
  C   C2912     1.0  0.16520  0.82730  0.98017  1.0000
  H   H2310     1.0  0.04793  0.86834  0.97133  1.0000
  C   C2913     1.0  0.21153  0.89012  0.80180  1.0000
  H   H2311     1.0  0.01837  0.77633  0.98048  1.0000
  H   H2312     1.0  0.01648  0.69096  0.98138  1.0000
  H   H2313     1.0  0.35572  0.56430  0.80108  1.0000
  H   H2314     1.0  0.44022  0.83717  0.84183  1.0000
  H   H2315     1.0  0.29552  0.88920  0.96142  1.0000
  H   H2316     1.0  0.39993  0.90499  0.81641  1.0000
  H   H2317     1.0  0.05248  0.88542  0.79017  1.0000
  C   C2914     1.0  0.37034  0.76442  0.79056  1.0000
  C   C2915     1.0  0.13526  0.91594  0.96814  1.0000
  C   C2916     1.0  0.40171  0.64323  0.78974  1.0000
  H   H2318     1.0  0.04317  0.87866  0.82059  1.0000
  C   C2917     1.0  0.49270  0.62165  0.86000  1.0000
  C   C2918     1.0  0.03885  0.87328  0.81303  1.0000
  H   H2319     1.0  0.02417  0.85938  0.83366  1.0000
  H   H2320     1.0  0.29665  0.56155  0.78931  1.0000
  H   H2321     1.0  0.46779  0.70248  0.78401  1.0000
  H   H2322     1.0  0.14273  0.91565  0.97649  1.0000
  C   C2919     1.0  0.40487  0.75363  0.78247  1.0000
  H   H2323     1.0  0.49232  0.97603  0.83172  1.0000
  H   H2324     1.0  0.45794  0.57370  0.97815  1.0000
  C   C2920     1.0  0.46187  0.58455  0.96990  1.0000
  C   C2921     1.0  0.02293  0.71416  0.97777  1.0000
  H   H2325     1.0  0.43552  0.76369  0.79738  1.0000
  C   C2922     1.0  0.02393  0.81580  0.79305  1.0000
  H   H2326     1.0  0.43058  0.58134  0.79272  1.0000
  H   H2327     1.0  0.03031  0.82212  0.97845  1.0000
  H   H2328     1.0  0.99914  0.92553  0.78437  1.0000
  H   H2329     1.0  0.02715  0.73781  0.97737  1.0000
  H   H2330     1.0  0.00037  0.65149  0.97415  1.0000
  H   H2331     1.0  0.27970  0.50429  0.78515  1.0000
  H   H2332     1.0  0.99599  0.79304  0.81728  1.0000
  H   H2333     1.0  0.40625  0.92046  0.78744  1.0000
  H   H2334     1.0  0.32316  0.57032  0.78399  1.0000
  H   H2335     1.0  0.49257  0.82969  0.83039  1.0000
  H   H2336     1.0  0.15248  0.95724  0.96925  1.0000
  C   C2923     1.0  0.44873  0.83510  0.78455  1.0000
  H   H2337     1.0  0.47402  0.85988  0.78347  1.0000
  H   H2338     1.0  0.19818  0.95952  0.97938  1.0000
  C   C2924     1.0  0.17410  0.95886  0.97648  1.0000
  C   C2925     1.0  0.03979  0.86184  0.98141  1.0000
  C   C2926     1.0  0.50236  0.46649  0.17413  1.0000
  C   C2927     1.0  0.82968  0.02776  0.07278  1.0000
  H   H2339     1.0  0.93765  0.01487  0.08759  1.0000
  H   H2340     1.0  0.65322  0.06880  0.09092  1.0000
  H   H2341     1.0  0.69385  0.11938  0.11649  1.0000
  C   C2928     1.0  0.69094  0.04648  0.12578  1.0000
  Fe  Fe193     1.0  0.55365  0.22591  0.07482  1.0000
  S   S381      1.0  0.55390  0.24345  0.05041  1.0000
  S   S382      1.0  0.55667  0.23382  0.09642  1.0000
  Fe  Fe194     1.0  0.54266  0.20103  0.06367  1.0000
  S   S383      1.0  0.54137  0.21706  0.03840  1.0000
  C   C2929     1.0  0.58280  0.16287  0.04763  1.0000
  Fe  Fe195     1.0  0.56571  0.22139  0.03922  1.0000
  S   S384      1.0  0.58520  0.22724  0.01646  1.0000
  Fe  Fe196     1.0  0.52970  0.23763  0.05194  1.0000
  S   S385      1.0  0.50967  0.26043  0.04789  1.0000
  S   S386      1.0  0.56786  0.20410  0.06362  1.0000
  S   S387      1.0  0.52881  0.22117  0.07707  1.0000
  C   C2930     1.0  0.54745  0.29638  0.11204  1.0000
  C   C2931     1.0  0.83376  0.01933  0.08789  1.0000
  H   H2342     1.0  0.61923  0.10060  0.01275  1.0000
  C   C2932     1.0  0.56203  0.46514  0.13129  1.0000
  H   H2343     1.0  0.54714  0.29718  0.09938  1.0000
  H   H2344     1.0  0.80687  0.99668  0.12499  1.0000
  H   H2345     1.0  0.65921  0.00894  0.01483  1.0000
  H   H2346     1.0  0.56031  0.21487  0.00129  1.0000
  C   C2933     1.0  0.53462  0.15573  0.02009  1.0000
  S   S388      1.0  0.64429  0.10921  0.03007  1.0000
  C   C2934     1.0  0.69924  0.11941  0.04232  1.0000
  Fe  Fe197     1.0  0.74641  0.02309  0.01558  1.0000
  S   S389      1.0  0.72879  0.04773  0.01237  1.0000
  C   C2935     1.0  0.84359  0.99325  0.14074  1.0000
  Fe  Fe198     1.0  0.75606  0.02842  0.04537  1.0000
  S   S390      1.0  0.73921  0.05334  0.04427  1.0000
  S   S391      1.0  0.77129  0.01747  0.06491  1.0000
  Fe  Fe199     1.0  0.72096  0.04172  0.03998  1.0000
  S   S392      1.0  0.69487  0.04456  0.05500  1.0000
  Fe  Fe200     1.0  0.74898  0.05669  0.01697  1.0000
  H   H2347     1.0  0.61158  0.15371  0.07090  1.0000
  S   S393      1.0  0.73710  0.01625  0.04303  1.0000
  S   S394      1.0  0.76720  0.03250  0.01831  1.0000
  Fe  Fe201     1.0  0.80035  0.05462  0.12184  1.0000
  S   S395      1.0  0.82482  0.06039  0.12013  1.0000
  S   S396      1.0  0.78622  0.06520  0.10116  1.0000
  Fe  Fe202     1.0  0.80146  0.03084  0.15505  1.0000
  S   S397      1.0  0.82596  0.03424  0.15618  1.0000
  Fe  Fe203     1.0  0.81585  0.06102  0.14713  1.0000
  S   S398      1.0  0.81983  0.08091  0.15731  1.0000
  Fe  Fe204     1.0  0.83317  0.03320  0.12947  1.0000
  S   S399      1.0  0.85770  0.01790  0.11936  1.0000
  S   S400      1.0  0.79035  0.05786  0.14805  1.0000
  S   S401      1.0  0.80955  0.02746  0.12905  1.0000
  H   H2348     1.0  0.75713  0.04718  0.11752  1.0000
  H   H2349     1.0  0.56335  0.48107  0.10699  1.0000
  C   C2936     1.0  0.55819  0.44157  0.11652  1.0000
  C   C2937     1.0  0.56097  0.44912  0.14048  1.0000
  H   H2350     1.0  0.83234  0.00247  0.14229  1.0000
  C   C2938     1.0  0.74352  0.09324  0.07542  1.0000
  C   C2939     1.0  0.84132  0.06903  0.06722  1.0000
  C   C2940     1.0  0.56179  0.46903  0.11447  1.0000
  H   H2351     1.0  0.56357  0.14143  0.05106  1.0000
  C   C2941     1.0  0.92989  0.01702  0.09934  1.0000
  H   H2352     1.0  0.83833  0.10582  0.01873  1.0000
  H   H2353     1.0  0.77053  0.03645  0.14126  1.0000
  P   P99       1.0  0.67334  0.03717  0.99574  1.0000
  H   H2354     1.0  0.78245  0.05426  0.99283  1.0000
  C   C2942     1.0  0.77490  0.03101  0.07502  1.0000
  C   C2943     1.0  0.77233  0.04805  0.06869  1.0000
  C   C2944     1.0  0.77630  0.05833  0.07654  1.0000
  C   C2945     1.0  0.78257  0.05172  0.09092  1.0000
  C   C2946     1.0  0.78490  0.03469  0.09732  1.0000
  C   C2947     1.0  0.78099  0.02444  0.08947  1.0000
  H   H2355     1.0  0.76758  0.05329  0.05759  1.0000
  H   H2356     1.0  0.77451  0.07144  0.07142  1.0000
  H   H2357     1.0  0.78931  0.02939  0.10854  1.0000
  H   H2358     1.0  0.78271  0.01135  0.09462  1.0000
  C   C2948     1.0  0.55126  0.22295  0.15980  1.0000
  C   C2949     1.0  0.65855  0.09119  0.03646  1.0000
  C   C2950     1.0  0.67558  0.09014  0.03063  1.0000
  C   C2951     1.0  0.68685  0.07567  0.03602  1.0000
  C   C2952     1.0  0.68107  0.06240  0.04742  1.0000
  C   C2953     1.0  0.66404  0.06344  0.05317  1.0000
  C   C2954     1.0  0.65280  0.07778  0.04766  1.0000
  H   H2359     1.0  0.94353  0.00063  0.17694  1.0000
  H   H2360     1.0  0.69999  0.07478  0.03142  1.0000
  H   H2361     1.0  0.65954  0.05315  0.06193  1.0000
  H   H2362     1.0  0.63964  0.07853  0.05215  1.0000
  H   H2363     1.0  0.70171  0.40616  0.15040  1.0000
  S   S402      1.0  0.75576  0.08090  0.00373  1.0000
  H   H2364     1.0  0.58811  0.47357  0.16304  1.0000
  C   C2955     1.0  0.60412  0.21428  0.00939  1.0000
  C   C2956     1.0  0.60785  0.19709  0.01524  1.0000
  C   C2957     1.0  0.62271  0.18745  0.00772  1.0000
  H   H2365     1.0  0.52241  0.27656  0.12660  1.0000
  S   S403      1.0  0.66277  0.48239  0.12033  1.0000
  H   H2366     1.0  0.59907  0.19123  0.02506  1.0000
  H   H2367     1.0  0.62538  0.17417  0.01179  1.0000
  C   C2958     1.0  0.54086  0.25134  0.09941  1.0000
  C   C2959     1.0  0.53139  0.25912  0.08752  1.0000
  C   C2960     1.0  0.51932  0.27350  0.08924  1.0000
  C   C2961     1.0  0.51621  0.27998  0.10318  1.0000
  C   C2962     1.0  0.52498  0.27178  0.11564  1.0000
  C   C2963     1.0  0.53764  0.25770  0.11353  1.0000
  H   H2368     1.0  0.53326  0.25418  0.07687  1.0000
  C   C2964     1.0  0.57663  0.47007  0.16996  1.0000
  C   C2965     1.0  0.76332  0.11906  0.03395  1.0000
  H   H2369     1.0  0.54496  0.25181  0.12274  1.0000
  C   C2966     1.0  0.49897  0.17767  0.11061  1.0000
  C   C2967     1.0  0.80210  0.05653  0.03090  1.0000
  H   H2370     1.0  0.81012  0.00125  0.06729  1.0000
  C   C2968     1.0  0.68114  0.00045  0.04453  1.0000
  H   H2371     1.0  0.53159  0.14432  0.08968  1.0000
  C   C2969     1.0  0.60619  0.15414  0.06081  1.0000
  C   C2970     1.0  0.81594  0.07840  0.05711  1.0000
  C   C2971     1.0  0.67387  0.05224  0.13063  1.0000
  H   H2372     1.0  0.52385  0.20335  0.00813  1.0000
  C   C2972     1.0  0.53878  0.22149  0.15312  1.0000
  S   S404      1.0  0.62206  0.47852  0.15246  1.0000
  P   P100      1.0  0.56579  0.48007  0.14026  1.0000
  C   C2973     1.0  0.73089  0.42586  0.15092  1.0000
  C   C2974     1.0  0.85805  0.99740  0.13021  1.0000
  H   H2373     1.0  0.62484  0.45836  0.11831  1.0000
  H   H2374     1.0  0.49990  0.23407  0.15933  1.0000
  H   H2375     1.0  0.73232  0.43613  0.15497  1.0000
  C   C2975     1.0  0.70160  0.05755  0.12019  1.0000
  H   H2376     1.0  0.59346  0.43321  0.15519  1.0000
  S   S405      1.0  0.57003  0.41394  0.17604  1.0000
  C   C2976     1.0  0.65905  0.07928  0.08571  1.0000
  H   H2377     1.0  0.61662  0.38449  0.17574  1.0000
  C   C2977     1.0  0.80077  0.04179  0.02808  1.0000
  C   C2978     1.0  0.66734  0.06907  0.13007  1.0000
  H   H2378     1.0  0.66570  0.04364  0.13484  1.0000
  H   H2379     1.0  0.65410  0.07352  0.13381  1.0000
  H   H2380     1.0  0.67279  0.09317  0.12435  1.0000
  H   H2381     1.0  0.73644  0.08476  0.05765  1.0000
  C   C2979     1.0  0.56171  0.15240  0.02564  1.0000
  S   S406      1.0  0.49684  0.29229  0.15246  1.0000
  C   C2980     1.0  0.59210  0.15489  0.03480  1.0000
  C   C2981     1.0  0.75748  0.03685  0.14297  1.0000
  H   H2382     1.0  0.61667  0.14203  0.02448  1.0000
  S   S407      1.0  0.53756  0.17544  0.07063  1.0000
  H   H2383     1.0  0.63771  0.09537  0.07708  1.0000
  H   H2384     1.0  0.64746  0.16167  0.02685  1.0000
  C   C2982     1.0  0.70880  0.47885  0.13572  1.0000
  H   H2385     1.0  0.51022  0.19531  0.09072  1.0000
  C   C2983     1.0  0.61526  0.46938  0.11958  1.0000
  C   C2984     1.0  0.65100  0.43011  0.15001  1.0000
  H   H2386     1.0  0.79169  0.03512  0.03643  1.0000
  C   C2985     1.0  0.73357  0.00598  0.08922  1.0000
  C   C2986     1.0  0.54707  0.16883  0.11320  1.0000
  H   H2387     1.0  0.56861  0.21047  0.17545  1.0000
  H   H2388     1.0  0.59642  0.45594  0.13317  1.0000
  C   C2987     1.0  0.84238  0.07368  0.03800  1.0000
  H   H2389     1.0  0.67129  0.15286  0.07561  1.0000
  C   C2988     1.0  0.82529  0.09708  0.00577  1.0000
  H   H2390     1.0  0.83524  0.10475  0.15999  1.0000
  C   C2989     1.0  0.73674  0.08287  0.07051  1.0000
  C   C2990     1.0  0.55970  0.45734  0.10715  1.0000
  S   S408      1.0  0.63861  0.14240  0.99010  1.0000
  C   C2991     1.0  0.71458  0.13013  0.01502  1.0000
  C   C2992     1.0  0.52247  0.15368  0.09538  1.0000
  C   C2993     1.0  0.50046  0.38424  0.05804  1.0000
  S   S409      1.0  0.49885  0.33518  0.16039  1.0000
  C   C2994     1.0  0.55406  0.19429  0.17418  1.0000
  C   C2995     1.0  0.64852  0.17205  0.04646  1.0000
  H   H2391     1.0  0.53433  0.13973  0.06078  1.0000
  H   H2392     1.0  0.56906  0.27353  0.14115  1.0000
  C   C2996     1.0  0.51138  0.14896  0.11012  1.0000
  C   C2997     1.0  0.63269  0.07152  0.98366  1.0000
  P   P101      1.0  0.68493  0.12304  0.06133  1.0000
  H   H2393     1.0  0.84028  0.02457  0.09359  1.0000
  H   H2394     1.0  0.84961  0.07322  0.02564  1.0000
  C   C2998     1.0  0.72027  0.01924  0.08668  1.0000
  H   H2395     1.0  0.50585  0.27439  0.00567  1.0000
  H   H2396     1.0  0.73629  0.99595  0.08294  1.0000
  C   C2999     1.0  0.66598  0.15449  0.06513  1.0000
  C   C3000     1.0  0.50445  0.35386  0.11667  1.0000
  H   H2397     1.0  0.68319  0.99162  0.05581  1.0000
  C   C3001     1.0  0.61570  0.14669  0.04778  1.0000
  H   H2398     1.0  0.71254  0.01940  0.07859  1.0000
  P   P102      1.0  0.72362  0.05011  0.11371  1.0000
  H   H2399     1.0  0.54984  0.35064  0.18126  1.0000
  H   H2400     1.0  0.85228  0.12284  0.99360  1.0000
  C   C3002     1.0  0.63978  0.04637  0.01073  1.0000
  H   H2401     1.0  0.69602  0.08947  0.07947  1.0000
  C   C3003     1.0  0.67594  0.02343  0.01530  1.0000
  H   H2402     1.0  0.49486  0.21470  0.06294  1.0000
  C   C3004     1.0  0.74428  0.09058  0.09191  1.0000
  H   H2403     1.0  0.52472  0.31446  0.11630  1.0000
  H   H2404     1.0  0.69580  0.03337  0.12640  1.0000
  C   C3005     1.0  0.53488  0.30617  0.12154  1.0000
  C   C3006     1.0  0.78118  0.09554  0.02327  1.0000
  C   C3007     1.0  0.73158  0.03150  0.16074  1.0000
  C   C3008     1.0  0.58569  0.42065  0.18021  1.0000
  H   H2405     1.0  0.74916  0.01916  0.11415  1.0000
  C   C3009     1.0  0.55893  0.43746  0.13315  1.0000
  C   C3010     1.0  0.73297  0.04355  0.13152  1.0000
  C   C3011     1.0  0.58976  0.16229  0.06068  1.0000
  H   H2406     1.0  0.57012  0.16948  0.04763  1.0000
  H   H2407     1.0  0.52645  0.15971  0.01152  1.0000
  H   H2408     1.0  0.69448  0.03401  0.01908  1.0000
  C   C3012     1.0  0.55030  0.18451  0.11023  1.0000
  H   H2409     1.0  0.55947  0.46043  0.09417  1.0000
  H   H2410     1.0  0.89239  0.01232  0.12374  1.0000
  C   C3013     1.0  0.74075  0.01928  0.10681  1.0000
  H   H2411     1.0  0.50732  0.36634  0.98742  1.0000
  C   C3014     1.0  0.90201  0.03282  0.17679  1.0000
  C   C3015     1.0  0.72391  0.03758  0.14725  1.0000
  H   H2412     1.0  0.71098  0.03750  0.14918  1.0000
  H   H2413     1.0  0.70291  0.08320  0.11574  1.0000
  C   C3016     1.0  0.73089  0.06971  0.08208  1.0000
  H   H2414     1.0  0.71027  0.45494  0.13188  1.0000
  C   C3017     1.0  0.71518  0.42245  0.15374  1.0000
  P   P103      1.0  0.58279  0.15508  0.01833  1.0000
  H   H2415     1.0  0.61403  0.05374  0.02200  1.0000
  C   C3018     1.0  0.59379  0.13884  0.00730  1.0000
  C   C3019     1.0  0.84387  0.11596  0.99272  1.0000
  C   C3020     1.0  0.54742  0.29326  0.14527  1.0000
  H   H2416     1.0  0.75410  0.39525  0.13113  1.0000
  C   C3021     1.0  0.67465  0.10599  0.07085  1.0000
  H   H2417     1.0  0.69861  0.01411  0.04468  1.0000
  C   C3022     1.0  0.74326  0.40277  0.13750  1.0000
  S   S410      1.0  0.66956  0.11072  0.98460  1.0000
  H   H2418     1.0  0.60089  0.12090  0.02867  1.0000
  C   C3023     1.0  0.74985  0.04297  0.12952  1.0000
  C   C3024     1.0  0.82185  0.09862  0.99039  1.0000
  H   H2419     1.0  0.65771  0.44794  0.12778  1.0000
  P   P104      1.0  0.51820  0.20413  0.14797  1.0000
  H   H2420     1.0  0.54418  0.20719  0.11847  1.0000
  C   C3025     1.0  0.73821  0.07759  0.10355  1.0000
  C   C3026     1.0  0.50823  0.22386  0.13741  1.0000
  H   H2421     1.0  0.89001  0.04121  0.17756  1.0000
  H   H2422     1.0  0.53847  0.46966  0.16601  1.0000
  C   C3027     1.0  0.52956  0.38365  0.03360  1.0000
  C   C3028     1.0  0.52590  0.36887  0.04387  1.0000
  C   C3029     1.0  0.51111  0.36905  0.05590  1.0000
  H   H2423     1.0  0.91017  0.00729  0.09716  1.0000
  C   C3030     1.0  0.51865  0.39870  0.03548  1.0000
  C   C3031     1.0  0.51802  0.33263  0.06083  1.0000
  C   C3032     1.0  0.51208  0.34976  0.08858  1.0000
  C   C3033     1.0  0.66998  0.14195  0.05630  1.0000
  C   C3034     1.0  0.76875  0.98831  0.14111  1.0000
  C   C3035     1.0  0.52112  0.34995  0.11741  1.0000
  C   C3036     1.0  0.53333  0.34641  0.10362  1.0000
  C   C3037     1.0  0.52885  0.34639  0.08923  1.0000
  C   C3038     1.0  0.52648  0.31844  0.07017  1.0000
  C   C3039     1.0  0.53494  0.30476  0.06324  1.0000
  C   C3040     1.0  0.53471  0.30497  0.04709  1.0000
  C   C3041     1.0  0.52623  0.31900  0.03772  1.0000
  C   C3042     1.0  0.51784  0.33275  0.04458  1.0000
  H   H2424     1.0  0.53249  0.15159  0.12918  1.0000
  H   H2425     1.0  0.84753  0.06521  0.07745  1.0000
  C   C3043     1.0  0.63388  0.19513  0.99471  1.0000
  H   H2426     1.0  0.68967  0.38508  0.17836  1.0000
  H   H2427     1.0  0.54095  0.38345  0.02429  1.0000
  H   H2428     1.0  0.53471  0.35739  0.04249  1.0000
  C   C3044     1.0  0.49992  0.35396  0.10227  1.0000
  C   C3045     1.0  0.52910  0.19025  0.13435  1.0000
  C   C3046     1.0  0.71131  0.12999  0.06929  1.0000
  H   H2429     1.0  0.52448  0.34959  0.12875  1.0000
  H   H2430     1.0  0.54626  0.34345  0.10419  1.0000
  H   H2431     1.0  0.53845  0.34363  0.07864  1.0000
  H   H2432     1.0  0.52613  0.31762  0.08298  1.0000
  H   H2433     1.0  0.54126  0.29374  0.07058  1.0000
  H   H2434     1.0  0.54084  0.29411  0.04197  1.0000
  H   H2435     1.0  0.52589  0.31902  0.02527  1.0000
  H   H2436     1.0  0.51101  0.34338  0.03731  1.0000
  C   C3047     1.0  0.53908  0.14436  0.04781  1.0000
  H   H2437     1.0  0.72059  0.12825  0.10569  1.0000
  C   C3048     1.0  0.61207  0.11185  0.00654  1.0000
  H   H2438     1.0  0.81802  0.02763  0.05379  1.0000
  C   C3049     1.0  0.69495  0.07443  0.11982  1.0000
  H   H2439     1.0  0.68010  0.10051  0.02202  1.0000
  C   C3050     1.0  0.70707  0.10330  0.04031  1.0000
  C   C3051     1.0  0.65505  0.42101  0.16498  1.0000
  C   C3052     1.0  0.67788  0.08014  0.12473  1.0000
  C   C3053     1.0  0.84081  0.09306  0.16698  1.0000
  H   H2440     1.0  0.60721  0.16817  0.98993  1.0000
  C   C3054     1.0  0.68497  0.06283  0.99911  1.0000
  C   C3055     1.0  0.69438  0.46699  0.16857  1.0000
  H   H2441     1.0  0.55951  0.18858  0.09960  1.0000
  C   C3056     1.0  0.72743  0.03271  0.10429  1.0000
  C   C3057     1.0  0.50009  0.19531  0.18016  1.0000
  H   H2442     1.0  0.55818  0.42513  0.14043  1.0000
  C   C3058     1.0  0.84301  0.06365  0.17701  1.0000
  C   C3059     1.0  0.53372  0.20647  0.15708  1.0000
  C   C3060     1.0  0.76571  0.10626  0.02598  1.0000
  C   C3061     1.0  0.69956  0.45644  0.15741  1.0000
  H   H2443     1.0  0.62842  0.14029  0.04779  1.0000
  C   C3062     1.0  0.60882  0.14739  0.03466  1.0000
  C   C3063     1.0  0.60184  0.12355  0.01549  1.0000
  C   C3064     1.0  0.59916  0.46807  0.12814  1.0000
  H   H2444     1.0  0.75445  0.99600  0.10075  1.0000
  C   C3065     1.0  0.82933  0.00420  0.09577  1.0000
  C   C3066     1.0  0.54149  0.19510  0.12086  1.0000
  C   C3067     1.0  0.89253  0.99405  0.15888  1.0000
  H   H2445     1.0  0.58235  0.16816  0.07071  1.0000
  H   H2446     1.0  0.72591  0.06174  0.07793  1.0000
  C   C3068     1.0  0.52558  0.26905  0.17717  1.0000
  C   C3069     1.0  0.53512  0.16369  0.12693  1.0000
  C   C3070     1.0  0.77462  0.08070  0.98934  1.0000
  C   C3071     1.0  0.73173  0.06683  0.09868  1.0000
  H   H2447     1.0  0.74996  0.09832  0.09566  1.0000
  C   C3072     1.0  0.63025  0.21229  0.98941  1.0000
  C   C3073     1.0  0.85837  0.00232  0.17053  1.0000
  C   C3074     1.0  0.65243  0.04926  0.99670  1.0000
  C   C3075     1.0  0.81358  0.06544  0.02003  1.0000
  H   H2448     1.0  0.55672  0.43245  0.11086  1.0000
  H   H2449     1.0  0.49343  0.31691  0.03989  1.0000
  H   H2450     1.0  0.67189  0.41535  0.18091  1.0000
  C   C3076     1.0  0.74836  0.03114  0.15860  1.0000
  H   H2451     1.0  0.73885  0.07587  0.11627  1.0000
  C   C3077     1.0  0.61542  0.22175  0.99655  1.0000
  H   H2452     1.0  0.74853  0.10308  0.06637  1.0000
  C   C3078     1.0  0.55114  0.15721  0.01454  1.0000
  H   H2453     1.0  0.55357  0.16079  0.10469  1.0000
  C   C3079     1.0  0.70658  0.46261  0.14087  1.0000
  C   C3080     1.0  0.86233  0.06635  0.13232  1.0000
  C   C3081     1.0  0.86710  0.07954  0.13481  1.0000
  C   C3082     1.0  0.88091  0.07662  0.14154  1.0000
  C   C3083     1.0  0.88986  0.06049  0.14590  1.0000
  C   C3084     1.0  0.88467  0.04707  0.14416  1.0000
  C   C3085     1.0  0.87118  0.05019  0.13676  1.0000
  P   P105      1.0  0.89663  0.02629  0.14909  1.0000
  C   C3086     1.0  0.90839  0.02387  0.16427  1.0000
  C   C3087     1.0  0.88449  0.01072  0.15780  1.0000
  C   C3088     1.0  0.55091  0.32368  0.15838  1.0000
  H   H2454     1.0  0.50215  0.45657  0.16879  1.0000
  H   H2455     1.0  0.55563  0.16227  0.00163  1.0000
  C   C3089     1.0  0.50430  0.18910  0.04738  1.0000
  H   H2456     1.0  0.55520  0.23454  0.15651  1.0000
  C   C3090     1.0  0.50415  0.39899  0.04775  1.0000
  H   H2457     1.0  0.68240  0.06588  0.09177  1.0000
  C   C3091     1.0  0.59646  0.17801  0.99202  1.0000
  H   H2458     1.0  0.50718  0.18185  0.05904  1.0000
  C   C3092     1.0  0.92337  0.01212  0.16446  1.0000
  C   C3093     1.0  0.90985  0.02237  0.12983  1.0000
  C   C3094     1.0  0.92516  0.02705  0.12421  1.0000
  C   C3095     1.0  0.93520  0.02425  0.10905  1.0000
  H   H2459     1.0  0.83277  0.99788  0.10745  1.0000
  H   H2460     1.0  0.72644  0.38901  0.13610  1.0000
  C   C3096     1.0  0.90444  0.01544  0.11987  1.0000
  H   H2461     1.0  0.85157  0.06870  0.12721  1.0000
  H   H2462     1.0  0.85989  0.09198  0.13181  1.0000
  H   H2463     1.0  0.88450  0.08681  0.14368  1.0000
  H   H2464     1.0  0.90072  0.05862  0.15074  1.0000
  H   H2465     1.0  0.86743  0.04016  0.13447  1.0000
  H   H2466     1.0  0.73165  0.13523  0.07553  1.0000
  C   C3097     1.0  0.65810  0.10750  0.07040  1.0000
  H   H2467     1.0  0.49762  0.23951  0.03449  1.0000
  C   C3098     1.0  0.67496  0.44215  0.14353  1.0000
  C   C3099     1.0  0.64882  0.06226  0.98338  1.0000
  H   H2468     1.0  0.71394  0.48367  0.12289  1.0000
  C   C3100     1.0  0.68728  0.02457  0.02372  1.0000
  Fe  Fe205     1.0  0.65774  0.15727  0.98480  1.0000
  H   H2469     1.0  0.92928  0.03290  0.13151  1.0000
  H   H2470     1.0  0.94706  0.02777  0.10482  1.0000
  C   C3101     1.0  0.57006  0.20442  0.99832  1.0000
  H   H2471     1.0  0.72405  0.08823  0.02402  1.0000
  C   C3102     1.0  0.71377  0.12735  0.09723  1.0000
  C   C3103     1.0  0.67553  0.07763  0.08616  1.0000
  C   C3104     1.0  0.68980  0.01314  0.03829  1.0000
  C   C3105     1.0  0.71720  0.03257  0.09415  1.0000
  C   C3106     1.0  0.79193  0.11038  0.03660  1.0000
  H   H2472     1.0  0.70702  0.04284  0.09170  1.0000
  C   C3107     1.0  0.69872  0.12231  0.10331  1.0000
  H   H2473     1.0  0.56907  0.27662  0.11196  1.0000
  H   H2474     1.0  0.66558  0.13484  0.03604  1.0000
  H   H2475     1.0  0.64227  0.03703  0.02151  1.0000
  H   H2476     1.0  0.79577  0.00713  0.99863  1.0000
  C   C3108     1.0  0.49968  0.16088  0.11787  1.0000
  H   H2477     1.0  0.75568  0.10480  0.02154  1.0000
  S   S411      1.0  0.65388  0.46904  0.16944  1.0000
  C   C3109     1.0  0.83569  0.07874  0.16779  1.0000
  P   P106      1.0  0.54661  0.29108  0.16688  1.0000
  H   H2478     1.0  0.73078  0.11191  0.00172  1.0000
  C   C3110     1.0  0.72001  0.13127  0.08024  1.0000
  C   C3111     1.0  0.52856  0.14946  0.03675  1.0000
  C   C3112     1.0  0.56359  0.47231  0.16223  1.0000
  H   H2479     1.0  0.83355  0.06538  0.99826  1.0000
  H   H2480     1.0  0.55954  0.18701  0.01868  1.0000
  C   C3113     1.0  0.81103  0.03575  0.01445  1.0000
  Fe  Fe206     1.0  0.65518  0.12326  0.00525  1.0000
  C   C3114     1.0  0.65032  0.09424  0.07794  1.0000
  C   C3115     1.0  0.68324  0.09098  0.07899  1.0000
  C   C3116     1.0  0.82408  0.07369  0.07019  1.0000
  H   H2481     1.0  0.51203  0.13599  0.11569  1.0000
  H   H2482     1.0  0.92800  0.00426  0.15561  1.0000
  H   H2483     1.0  0.53337  0.23201  0.14463  1.0000
  C   C3117     1.0  0.55566  0.14558  0.04226  1.0000
  C   C3118     1.0  0.58276  0.17521  0.00487  1.0000
  H   H2484     1.0  0.51351  0.21740  0.11364  1.0000
  H   H2485     1.0  0.67820  0.11738  0.09727  1.0000
  C   C3119     1.0  0.82509  0.07897  0.04084  1.0000
  C   C3120     1.0  0.69510  0.07424  0.99405  1.0000
  H   H2486     1.0  0.77466  0.13113  0.04532  1.0000
  C   C3121     1.0  0.58672  0.48229  0.13015  1.0000
  H   H2487     1.0  0.51231  0.27945  0.07975  1.0000
  H   H2488     1.0  0.86382  0.06492  0.04888  1.0000
  C   C3122     1.0  0.55972  0.28304  0.13579  1.0000
  C   C3123     1.0  0.82285  0.04431  0.00381  1.0000
  C   C3124     1.0  0.85047  0.06888  0.05114  1.0000
  C   C3125     1.0  0.52233  0.17038  0.08845  1.0000
  H   H2489     1.0  0.51568  0.14868  0.04114  1.0000
  C   C3126     1.0  0.62370  0.05592  0.01110  1.0000
  C   C3127     1.0  0.66289  0.14453  0.04275  1.0000
  H   H2490     1.0  0.78285  0.08604  0.01661  1.0000
  C   C3128     1.0  0.51721  0.19157  0.03370  1.0000
  H   H2491     1.0  0.83295  0.03953  0.06677  1.0000
  C   C3129     1.0  0.78553  0.06595  0.98634  1.0000
  H   H2492     1.0  0.69846  0.00701  0.99212  1.0000
  H   H2493     1.0  0.67616  0.06246  0.01082  1.0000
  S   S412      1.0  0.78968  0.01095  0.17315  1.0000
  C   C3130     1.0  0.91447  0.01269  0.10472  1.0000
  C   C3131     1.0  0.71838  0.10067  0.02573  1.0000
  C   C3132     1.0  0.66756  0.01039  0.02146  1.0000
  C   C3133     1.0  0.68993  0.12113  0.09240  1.0000
  H   H2494     1.0  0.65116  0.11870  0.06399  1.0000
  H   H2495     1.0  0.69430  0.08260  0.00167  1.0000
  H   H2496     1.0  0.70432  0.09265  0.04972  1.0000
  C   C3134     1.0  0.78245  0.99499  0.13882  1.0000
  C   C3135     1.0  0.54163  0.19280  0.16745  1.0000
  C   C3136     1.0  0.49942  0.35784  0.99452  1.0000
  H   H2497     1.0  0.55308  0.32305  0.14561  1.0000
  H   H2498     1.0  0.78508  0.07583  0.17572  1.0000
  H   H2499     1.0  0.49500  0.35662  0.12739  1.0000
  H   H2500     1.0  0.75139  0.12751  0.03571  1.0000
  H   H2501     1.0  0.86093  0.02747  0.16402  1.0000
  H   H2502     1.0  0.79405  0.06111  0.04145  1.0000
  C   C3137     1.0  0.66098  0.44062  0.13928  1.0000
  C   C3138     1.0  0.74486  0.41606  0.14282  1.0000
  C   C3139     1.0  0.56972  0.18863  0.00819  1.0000
  C   C3140     1.0  0.74375  0.00596  0.09934  1.0000
  P   P107      1.0  0.81476  0.08459  0.02386  1.0000
  C   C3141     1.0  0.59468  0.14149  0.99031  1.0000
  C   C3142     1.0  0.69624  0.12482  0.07531  1.0000
  S   S413      1.0  0.65266  0.18428  0.98452  1.0000
  H   H2503     1.0  0.51499  0.36113  0.15751  1.0000
  H   H2504     1.0  0.49736  0.29959  0.01676  1.0000
  C   C3143     1.0  0.79438  0.09742  0.02869  1.0000
  H   H2505     1.0  0.84508  0.00542  0.17481  1.0000
  C   C3144     1.0  0.54867  0.46802  0.17173  1.0000
  C   C3145     1.0  0.50781  0.22688  0.12069  1.0000
  C   C3146     1.0  0.72215  0.11405  0.01311  1.0000
  C   C3147     1.0  0.61912  0.48491  0.11303  1.0000
  C   C3148     1.0  0.71367  0.40902  0.14843  1.0000
  H   H2506     1.0  0.65216  0.17917  0.06699  1.0000
  H   H2507     1.0  0.90579  0.99053  0.15454  1.0000
  H   H2508     1.0  0.81697  0.07340  0.08271  1.0000
  C   C3149     1.0  0.51379  0.20124  0.01866  1.0000
  H   H2509     1.0  0.78245  0.00264  0.14688  1.0000
  C   C3150     1.0  0.53493  0.30472  0.13804  1.0000
  C   C3151     1.0  0.65519  0.16945  0.06025  1.0000
  H   H2510     1.0  0.80254  0.08143  0.05982  1.0000
  H   H2511     1.0  0.52500  0.31228  0.14529  1.0000
  C   C3152     1.0  0.83606  0.10616  0.00692  1.0000
  H   H2512     1.0  0.52988  0.18615  0.03495  1.0000
  H   H2513     1.0  0.61417  0.44453  0.16156  1.0000
  H   H2514     1.0  0.71638  0.13303  0.05618  1.0000
  C   C3153     1.0  0.66907  0.42245  0.16923  1.0000
  C   C3154     1.0  0.56445  0.27652  0.17321  1.0000
  C   C3155     1.0  0.51045  0.18241  0.09600  1.0000
  C   C3156     1.0  0.60714  0.43658  0.17117  1.0000
  H   H2515     1.0  0.61263  0.23498  0.99198  1.0000
  C   C3157     1.0  0.52609  0.17436  0.13745  1.0000
  S   S414      1.0  0.75276  0.00391  0.00017  1.0000
  C   C3158     1.0  0.82426  0.05903  0.00665  1.0000
  C   C3159     1.0  0.77642  0.12108  0.03932  1.0000
  H   H2516     1.0  0.80973  0.02451  0.01211  1.0000
  H   H2517     1.0  0.56206  0.44533  0.15322  1.0000
  C   C3160     1.0  0.70326  0.13284  0.02960  1.0000
  C   C3161     1.0  0.82058  0.99743  0.08864  1.0000
  H   H2518     1.0  0.82531  0.99317  0.99117  1.0000
  C   C3162     1.0  0.49740  0.20836  0.01730  1.0000
  C   C3163     1.0  0.55979  0.28473  0.11919  1.0000
  H   H2519     1.0  0.68232  0.45057  0.13510  1.0000
  H   H2520     1.0  0.80208  0.11236  0.04042  1.0000
  H   H2521     1.0  0.83906  0.05251  0.17790  1.0000
  H   H2522     1.0  0.69754  0.14543  0.03080  1.0000
  H   H2523     1.0  0.63998  0.42921  0.14687  1.0000
  H   H2524     1.0  0.60768  0.07583  0.99782  1.0000
  C   C3164     1.0  0.59539  0.43028  0.16758  1.0000
  H   H2525     1.0  0.53821  0.18098  0.17022  1.0000
  H   H2526     1.0  0.88395  0.98836  0.12063  1.0000
  S   S415      1.0  0.67321  0.13901  0.00159  1.0000
  H   H2527     1.0  0.64038  0.18373  0.04245  1.0000
  H   H2528     1.0  0.83072  0.03973  0.99314  1.0000
  H   H2529     1.0  0.72456  0.02697  0.17288  1.0000
  C   C3165     1.0  0.82131  0.02101  0.06543  1.0000
  C   C3166     1.0  0.50520  0.48160  0.16402  1.0000
  H   H2530     1.0  0.71728  0.14043  0.00498  1.0000
  C   C3167     1.0  0.55885  0.20937  0.17039  1.0000
  H   H2531     1.0  0.58811  0.15288  0.98377  1.0000
  H   H2532     1.0  0.81314  0.09219  0.98937  1.0000
  H   H2533     1.0  0.51677  0.17011  0.14784  1.0000
  C   C3168     1.0  0.50019  0.23628  0.14629  1.0000
  P   P108      1.0  0.69714  0.43524  0.16406  1.0000
  C   C3169     1.0  0.49746  0.34591  0.98746  1.0000
  C   C3170     1.0  0.86737  0.01479  0.16408  1.0000
  Fe  Fe207     1.0  0.62788  0.46551  0.17707  1.0000
  H   H2534     1.0  0.75436  0.02638  0.16902  1.0000
  C   C3171     1.0  0.72768  0.39925  0.14032  1.0000
  C   C3172     1.0  0.65245  0.15961  0.03768  1.0000
  C   C3173     1.0  0.80266  0.00967  0.98599  1.0000
  C   C3174     1.0  0.67900  0.43326  0.15865  1.0000
  H   H2535     1.0  0.75693  0.41884  0.14058  1.0000
  H   H2536     1.0  0.49697  0.30676  0.06861  1.0000
  C   C3175     1.0  0.61378  0.11509  0.98947  1.0000
  P   P109      1.0  0.50651  0.35021  0.06972  1.0000
  H   H2537     1.0  0.52154  0.41014  0.02756  1.0000
  C   C3176     1.0  0.50164  0.19636  0.16330  1.0000
  H   H2538     1.0  0.58190  0.28991  0.15529  1.0000
  S   S416      1.0  0.50170  0.29863  0.10424  1.0000
  C   C3177     1.0  0.68642  0.05188  0.98915  1.0000
  C   C3178     1.0  0.59432  0.26835  0.17025  1.0000
  H   H2539     1.0  0.75808  0.99092  0.15091  1.0000
  H   H2540     1.0  0.50725  0.48339  0.15077  1.0000
  C   C3179     1.0  0.62012  0.06840  0.99752  1.0000
  H   H2541     1.0  0.64698  0.41329  0.17355  1.0000
  H   H2542     1.0  0.85760  0.10351  0.17334  1.0000
  C   C3180     1.0  0.67005  0.99904  0.03609  1.0000
  C   C3181     1.0  0.69651  0.48325  0.16335  1.0000
  C   C3182     1.0  0.81684  0.00591  0.07324  1.0000
  H   H2543     1.0  0.70448  0.35642  0.17613  1.0000
  C   C3183     1.0  0.55201  0.33815  0.16201  1.0000
  H   H2544     1.0  0.55469  0.34857  0.15216  1.0000
  H   H2545     1.0  0.66353  0.98904  0.04079  1.0000
  C   C3184     1.0  0.49997  0.24237  0.11288  1.0000
  H   H2546     1.0  0.68847  0.46293  0.18129  1.0000
  C   C3185     1.0  0.54937  0.33932  0.17839  1.0000
  C   C3186     1.0  0.54707  0.31030  0.17117  1.0000
  C   C3187     1.0  0.93224  0.01004  0.17651  1.0000
  C   C3188     1.0  0.50158  0.34399  0.17565  1.0000
  H   H2547     1.0  0.60655  0.27051  0.16403  1.0000
  H   H2548     1.0  0.53531  0.26112  0.17015  1.0000
  C   C3189     1.0  0.58352  0.20700  0.98526  1.0000
  C   C3190     1.0  0.58034  0.27927  0.16529  1.0000
  C   C3191     1.0  0.79627  0.99172  0.12623  1.0000
  C   C3192     1.0  0.51033  0.35677  0.17051  1.0000
  Fe  Fe208     1.0  0.64723  0.48425  0.14571  1.0000
  C   C3193     1.0  0.85347  0.09237  0.17461  1.0000
  H   H2549     1.0  0.63172  0.48590  0.10681  1.0000
  H   H2550     1.0  0.50022  0.24492  0.09983  1.0000
  H   H2551     1.0  0.77050  0.10723  0.98318  1.0000
  H   H2552     1.0  0.52005  0.37368  0.17789  1.0000
  C   C3194     1.0  0.52757  0.28451  0.17773  1.0000
  H   H2553     1.0  0.49582  0.41068  0.04939  1.0000
  H   H2554     1.0  0.49527  0.09792  0.12571  1.0000
  H   H2555     1.0  0.49472  0.21597  0.00569  1.0000
  H   H2556     1.0  0.49422  0.23304  0.08035  1.0000
  H   H2557     1.0  0.56010  0.18369  0.18219  1.0000
  C   C3195     1.0  0.51324  0.36393  0.18205  1.0000
  H   H2558     1.0  0.62240  0.10655  0.98236  1.0000
  Fe  Fe209     1.0  0.52239  0.41790  0.22479  1.0000
  S   S417      1.0  0.54949  0.41473  0.22260  1.0000
  H   H2559     1.0  0.60186  0.41983  0.21223  1.0000
  Fe  Fe210     1.0  0.52598  0.38496  0.21456  1.0000
  S   S418      1.0  0.55364  0.37921  0.21182  1.0000
  C   C3196     1.0  0.61968  0.46460  0.37726  1.0000
  Fe  Fe211     1.0  0.54910  0.38834  0.23506  1.0000
  S   S419      1.0  0.56223  0.37313  0.25560  1.0000
  Fe  Fe212     1.0  0.55204  0.40600  0.19954  1.0000
  S   S420      1.0  0.52150  0.39199  0.23900  1.0000
  S   S421      1.0  0.52471  0.41139  0.20055  1.0000
  H   H2560     1.0  0.76948  0.33445  0.35216  1.0000
  Fe  Fe213     1.0  0.64682  0.42766  0.27564  1.0000
  S   S422      1.0  0.62132  0.42569  0.27555  1.0000
  S   S423      1.0  0.66624  0.43926  0.25621  1.0000
  Fe  Fe214     1.0  0.64697  0.40599  0.31011  1.0000
  S   S424      1.0  0.62176  0.40146  0.31302  1.0000
  S   S425      1.0  0.66291  0.39489  0.32914  1.0000
  Fe  Fe215     1.0  0.62945  0.39889  0.28658  1.0000
  S   S426      1.0  0.62482  0.37793  0.27858  1.0000
  Fe  Fe216     1.0  0.61541  0.42839  0.30180  1.0000
  S   S427      1.0  0.59145  0.44342  0.31272  1.0000
  S   S428      1.0  0.65555  0.40048  0.28480  1.0000
  S   S429      1.0  0.63995  0.43326  0.30085  1.0000
  Fe  Fe217     1.0  0.88282  0.06239  0.21697  1.0000
  S   S430      1.0  0.90892  0.05298  0.22131  1.0000
  H   H2561     1.0  0.96179  0.07105  0.35919  1.0000
  Fe  Fe218     1.0  0.86752  0.04800  0.25197  1.0000
  S   S431      1.0  0.89212  0.03735  0.25882  1.0000
  S   S432      1.0  0.84407  0.04694  0.27149  1.0000
  Fe  Fe219     1.0  0.89892  0.06173  0.24524  1.0000
  S   S433      1.0  0.91284  0.07108  0.25910  1.0000
  Fe  Fe220     1.0  0.89993  0.02954  0.23452  1.0000
  S   S434      1.0  0.91499  0.00344  0.23393  1.0000
  S   S435      1.0  0.87357  0.07285  0.23985  1.0000
  S   S436      1.0  0.87469  0.03855  0.22874  1.0000
  S   S437      1.0  0.76388  0.01818  0.24734  1.0000
  H   H2562     1.0  0.49832  0.41347  0.27135  1.0000
  H   H2563     1.0  0.53275  0.44650  0.23924  1.0000
  H   H2564     1.0  0.49355  0.43942  0.28079  1.0000
  S   S438      1.0  0.98962  0.27264  0.33503  1.0000
  C   C3197     1.0  0.87108  0.00048  0.28014  1.0000
  C   C3198     1.0  0.57324  0.47344  0.30076  1.0000
  P   P110      1.0  0.98285  0.11395  0.24224  1.0000
  H   H2565     1.0  0.53454  0.44782  0.34090  1.0000
  C   C3199     1.0  0.89887  0.15418  0.36774  1.0000
  S   S439      1.0  0.91236  0.27936  0.34971  1.0000
  Fe  Fe221     1.0  0.93577  0.14953  0.28217  1.0000
  S   S440      1.0  0.92889  0.14679  0.30956  1.0000
  S   S441      1.0  0.92469  0.13859  0.26715  1.0000
  Fe  Fe222     1.0  0.95463  0.17698  0.27897  1.0000
  S   S442      1.0  0.94837  0.17626  0.30616  1.0000
  S   S443      1.0  0.97038  0.19329  0.25951  1.0000
  Fe  Fe223     1.0  0.95477  0.14878  0.30825  1.0000
  Fe  Fe224     1.0  0.92313  0.17445  0.30494  1.0000
  S   S444      1.0  0.89725  0.18723  0.31545  1.0000
  C   C3200     1.0  0.97492  0.21113  0.26214  1.0000
  S   S445      1.0  0.92890  0.17727  0.27752  1.0000
  H   H2566     1.0  0.95054  0.13586  0.23835  1.0000
  H   H2567     1.0  0.59360  0.40212  0.35228  1.0000
  C   C3201     1.0  0.60021  0.42267  0.19974  1.0000
  H   H2568     1.0  0.97120  0.23367  0.29039  1.0000
  S   S446      1.0  0.87732  0.07772  0.19239  1.0000
  C   C3202     1.0  0.98792  0.43326  0.30792  1.0000
  C   C3203     1.0  0.93355  0.27883  0.34631  1.0000
  C   C3204     1.0  0.94147  0.28801  0.33169  1.0000
  C   C3205     1.0  0.95867  0.28651  0.32827  1.0000
  C   C3206     1.0  0.96795  0.27601  0.33957  1.0000
  C   C3207     1.0  0.95989  0.26756  0.35453  1.0000
  C   C3208     1.0  0.94273  0.26890  0.35790  1.0000
  H   H2569     1.0  0.93442  0.29603  0.32283  1.0000
  H   H2570     1.0  0.96472  0.29343  0.31689  1.0000
  H   H2571     1.0  0.96708  0.25950  0.36325  1.0000
  H   H2572     1.0  0.98840  0.18524  0.35659  1.0000
  H   H2573     1.0  0.75536  0.08333  0.18901  1.0000
  S   S447      1.0  0.87005  0.21947  0.37791  1.0000
  C   C3209     1.0  0.87514  0.19513  0.34260  1.0000
  C   C3210     1.0  0.89122  0.19535  0.33331  1.0000
  C   C3211     1.0  0.90127  0.20298  0.33780  1.0000
  C   C3212     1.0  0.89507  0.21044  0.35157  1.0000
  H   H2574     1.0  0.98431  0.21875  0.23609  1.0000
  H   H2575     1.0  0.86727  0.18946  0.33906  1.0000
  H   H2576     1.0  0.91360  0.20347  0.33047  1.0000
  H   H2577     1.0  0.90268  0.21658  0.35485  1.0000
  H   H2578     1.0  0.98426  0.10037  0.31020  1.0000
  C   C3213     1.0  0.77122  0.01631  0.22667  1.0000
  C   C3214     1.0  0.76911  0.03025  0.21385  1.0000
  C   C3215     1.0  0.77535  0.02887  0.19732  1.0000
  C   C3216     1.0  0.78313  0.01339  0.19363  1.0000
  C   C3217     1.0  0.78499  0.99943  0.20643  1.0000
  C   C3218     1.0  0.77929  0.00092  0.22290  1.0000
  H   H2579     1.0  0.76277  0.04210  0.21674  1.0000
  C   C3219     1.0  0.68918  0.47236  0.37405  1.0000
  H   H2580     1.0  0.79505  0.36252  0.38027  1.0000
  C   C3220     1.0  0.97571  0.13610  0.23818  1.0000
  C   C3221     1.0  0.91510  0.09019  0.26165  1.0000
  C   C3222     1.0  0.91115  0.10517  0.25060  1.0000
  C   C3223     1.0  0.91406  0.11978  0.25261  1.0000
  C   C3224     1.0  0.92104  0.11968  0.26562  1.0000
  C   C3225     1.0  0.92493  0.10471  0.27674  1.0000
  C   C3226     1.0  0.92201  0.09010  0.27473  1.0000
  H   H2581     1.0  0.90642  0.10541  0.24017  1.0000
  H   H2582     1.0  0.91112  0.13122  0.24384  1.0000
  H   H2583     1.0  0.93031  0.10436  0.28680  1.0000
  H   H2584     1.0  0.92542  0.07857  0.28319  1.0000
  C   C3227     1.0  0.83573  0.02910  0.27875  1.0000
  C   C3228     1.0  0.83573  0.01913  0.26836  1.0000
  C   C3229     1.0  0.82837  0.00528  0.27485  1.0000
  C   C3230     1.0  0.82127  0.00131  0.29176  1.0000
  C   C3231     1.0  0.82148  0.01125  0.30202  1.0000
  C   C3232     1.0  0.82838  0.02523  0.29551  1.0000
  H   H2585     1.0  0.84128  0.02211  0.25537  1.0000
  C   C3233     1.0  0.59436  0.38841  0.37720  1.0000
  C   C3234     1.0  0.61674  0.40028  0.35840  1.0000
  H   H2586     1.0  0.82821  0.03294  0.30356  1.0000
  H   H2587     1.0  0.54857  0.40108  0.27672  1.0000
  H   H2588     1.0  0.92222  0.18179  0.36322  1.0000
  H   H2589     1.0  0.95951  0.18357  0.23363  1.0000
  H   H2590     1.0  0.73559  0.34343  0.35443  1.0000
  C   C3235     1.0  0.66385  0.40668  0.34254  1.0000
  C   C3236     1.0  0.67589  0.40056  0.35211  1.0000
  H   H2591     1.0  0.56329  0.47020  0.31091  1.0000
  H   H2592     1.0  0.88624  0.15275  0.37267  1.0000
  C   C3237     1.0  0.65352  0.43035  0.35554  1.0000
  C   C3238     1.0  0.65265  0.42167  0.34425  1.0000
  H   H2593     1.0  0.49816  0.45222  0.19905  1.0000
  H   H2594     1.0  0.80314  0.31965  0.37484  1.0000
  H   H2595     1.0  0.64330  0.42649  0.33696  1.0000
  C   C3239     1.0  0.65888  0.48185  0.21206  1.0000
  C   C3240     1.0  0.67321  0.47772  0.21825  1.0000
  C   C3241     1.0  0.67498  0.46494  0.23212  1.0000
  C   C3242     1.0  0.66224  0.45652  0.24025  1.0000
  C   C3243     1.0  0.64758  0.46101  0.23448  1.0000
  C   C3244     1.0  0.64605  0.47345  0.22014  1.0000
  H   H2596     1.0  0.96963  0.08426  0.26011  1.0000
  H   H2597     1.0  0.68638  0.46143  0.23646  1.0000
  H   H2598     1.0  0.63763  0.45463  0.24071  1.0000
  H   H2599     1.0  0.63489  0.47662  0.21550  1.0000
  H   H2600     1.0  0.88123  0.00973  0.25463  1.0000
  C   C3245     1.0  0.69298  0.35858  0.18512  1.0000
  P   P111      1.0  0.65154  0.48372  0.29755  1.0000
  C   C3246     1.0  0.95343  0.16042  0.23538  1.0000
  C   C3247     1.0  0.81377  0.26308  0.36332  1.0000
  C   C3248     1.0  0.60699  0.37804  0.27196  1.0000
  C   C3249     1.0  0.60210  0.36303  0.27561  1.0000
  C   C3250     1.0  0.58836  0.36198  0.27055  1.0000
  C   C3251     1.0  0.57957  0.37576  0.26117  1.0000
  C   C3252     1.0  0.58461  0.39083  0.25703  1.0000
  C   C3253     1.0  0.59811  0.39207  0.26273  1.0000
  H   H2601     1.0  0.60884  0.35213  0.28263  1.0000
  H   H2602     1.0  0.58461  0.35030  0.27382  1.0000
  H   H2603     1.0  0.57803  0.40146  0.24960  1.0000
  H   H2604     1.0  0.60176  0.40375  0.25979  1.0000
  C   C3254     1.0  0.54324  0.44418  0.30090  1.0000
  H   H2605     1.0  0.95698  0.11338  0.27201  1.0000
  C   C3255     1.0  0.60157  0.46668  0.28585  1.0000
  C   C3256     1.0  0.58857  0.46244  0.29885  1.0000
  H   H2606     1.0  0.55652  0.42695  0.25340  1.0000
  C   C3257     1.0  0.56272  0.26302  0.18658  1.0000
  H   H2607     1.0  0.98060  0.15848  0.32761  1.0000
  H   H2608     1.0  0.61352  0.45832  0.28440  1.0000
  C   C3258     1.0  0.66548  0.42406  0.36525  1.0000
  C   C3259     1.0  0.76106  0.29102  0.37443  1.0000
  C   C3260     1.0  0.96932  0.10368  0.23798  1.0000
  C   C3261     1.0  0.52295  0.46640  0.25250  1.0000
  C   C3262     1.0  0.52177  0.45488  0.24413  1.0000
  C   C3263     1.0  0.49798  0.27414  0.19423  1.0000
  H   H2609     1.0  0.50909  0.19872  0.18445  1.0000
  C   C3264     1.0  0.59748  0.47993  0.32229  1.0000
  S   S448      1.0  0.96227  0.14945  0.28102  1.0000
  P   P112      1.0  0.55093  0.42894  0.28827  1.0000
  C   C3265     1.0  0.51436  0.29496  0.18609  1.0000
  H   H2610     1.0  0.54786  0.48223  0.22955  1.0000
  H   H2611     1.0  0.53485  0.46665  0.25418  1.0000
  H   H2612     1.0  0.85663  0.20205  0.36341  1.0000
  C   C3266     1.0  0.62684  0.46805  0.31921  1.0000
  C   C3267     1.0  0.50625  0.45412  0.24238  1.0000
  H   H2613     1.0  0.72136  0.41628  0.18475  1.0000
  H   H2614     1.0  0.63667  0.31296  0.27712  1.0000
  C   C3268     1.0  0.63952  0.48208  0.37058  1.0000
  C   C3269     1.0  0.75978  0.07617  0.21365  1.0000
  H   H2615     1.0  0.58193  0.38642  0.37986  1.0000
  H   H2616     1.0  0.83078  0.31958  0.37853  1.0000
  H   H2617     1.0  0.52450  0.47712  0.32786  1.0000
  C   C3270     1.0  0.87639  0.99976  0.26352  1.0000
  C   C3271     1.0  0.92307  0.10733  0.35824  1.0000
  Fe  Fe225     1.0  0.90351  0.26126  0.37257  1.0000
  C   C3272     1.0  0.86910  0.20229  0.35637  1.0000
  H   H2618     1.0  0.58598  0.41420  0.28972  1.0000
  H   H2619     1.0  0.80603  0.06407  0.19257  1.0000
  H   H2620     1.0  0.95748  0.10783  0.30150  1.0000
  H   H2621     1.0  0.53576  0.45711  0.19575  1.0000
  C   C3273     1.0  0.84144  0.01404  0.20741  1.0000
  H   H2622     1.0  0.51514  0.30730  0.18593  1.0000
  H   H2623     1.0  0.81267  0.27612  0.36208  1.0000
  C   C3274     1.0  0.95920  0.14335  0.23715  1.0000
  C   C3275     1.0  0.58607  0.39084  0.30675  1.0000
  H   H2624     1.0  0.80212  0.02354  0.24838  1.0000
  C   C3276     1.0  0.60087  0.39732  0.36170  1.0000
  H   H2625     1.0  0.88210  0.16114  0.31063  1.0000
  H   H2626     1.0  0.55912  0.45251  0.20901  1.0000
  H   H2627     1.0  0.58478  0.47875  0.32760  1.0000
  H   H2628     1.0  0.79096  0.01372  0.27773  1.0000
  H   H2629     1.0  0.98371  0.45682  0.31388  1.0000
  C   C3277     1.0  0.72838  0.38542  0.36640  1.0000
  H   H2630     1.0  0.66338  0.39006  0.19873  1.0000
  C   C3278     1.0  0.69562  0.42893  0.18610  1.0000
  C   C3279     1.0  0.82473  0.01675  0.20722  1.0000
  H   H2631     1.0  0.81607  0.00824  0.31505  1.0000
  H   H2632     1.0  0.71913  0.40926  0.21478  1.0000
  H   H2633     1.0  0.54197  0.30125  0.19765  1.0000
  H   H2634     1.0  0.57629  0.43683  0.22851  1.0000
  H   H2635     1.0  0.52581  0.39407  0.27005  1.0000
  C   C3280     1.0  0.90256  0.99487  0.21140  1.0000
  H   H2636     1.0  0.77702  0.03341  0.29589  1.0000
  H   H2637     1.0  0.90076  0.11029  0.30743  1.0000
  H   H2638     1.0  0.59561  0.45290  0.22981  1.0000
  H   H2639     1.0  0.90760  0.10363  0.33481  1.0000
  H   H2640     1.0  0.60910  0.48515  0.26454  1.0000
  H   H2641     1.0  0.79092  0.98741  0.20364  1.0000
  C   C3281     1.0  0.98361  0.10847  0.26378  1.0000
  C   C3282     1.0  0.99157  0.21204  0.32798  1.0000
  H   H2642     1.0  0.59523  0.45870  0.25657  1.0000
  C   C3283     1.0  0.80552  0.07805  0.32476  1.0000
  C   C3284     1.0  0.79988  0.07221  0.31417  1.0000
  C   C3285     1.0  0.80879  0.07239  0.29798  1.0000
  C   C3286     1.0  0.82328  0.07844  0.29238  1.0000
  C   C3287     1.0  0.82918  0.08413  0.30297  1.0000
  C   C3288     1.0  0.82019  0.08389  0.31924  1.0000
  P   P113      1.0  0.84907  0.08982  0.29597  1.0000
  C   C3289     1.0  0.85131  0.10221  0.30873  1.0000
  C   C3290     1.0  0.86527  0.07129  0.29738  1.0000
  C   C3291     1.0  0.88145  0.07228  0.29681  1.0000
  C   C3292     1.0  0.89395  0.05797  0.29818  1.0000
  C   C3293     1.0  0.89047  0.04259  0.30002  1.0000
  C   C3294     1.0  0.87439  0.04148  0.30079  1.0000
  C   C3295     1.0  0.86183  0.05573  0.29954  1.0000
  C   C3296     1.0  0.85581  0.09453  0.32393  1.0000
  C   C3297     1.0  0.85812  0.10393  0.33366  1.0000
  C   C3298     1.0  0.85592  0.12107  0.32831  1.0000
  C   C3299     1.0  0.85142  0.12881  0.31322  1.0000
  C   C3300     1.0  0.84911  0.11945  0.30345  1.0000
  C   C3301     1.0  0.85059  0.10175  0.27503  1.0000
  C   C3302     1.0  0.83634  0.11220  0.26996  1.0000
  C   C3303     1.0  0.83738  0.12165  0.25386  1.0000
  C   C3304     1.0  0.85266  0.12089  0.24275  1.0000
  C   C3305     1.0  0.86688  0.11069  0.24774  1.0000
  C   C3306     1.0  0.86591  0.10113  0.26380  1.0000
  H   H2643     1.0  0.79867  0.07776  0.33736  1.0000
  H   H2644     1.0  0.78875  0.06732  0.31855  1.0000
  H   H2645     1.0  0.80479  0.06742  0.28984  1.0000
  H   H2646     1.0  0.83024  0.07812  0.27992  1.0000
  H   H2647     1.0  0.82454  0.08797  0.32774  1.0000
  H   H2648     1.0  0.88453  0.08412  0.29492  1.0000
  H   H2649     1.0  0.90653  0.05886  0.29707  1.0000
  H   H2650     1.0  0.90031  0.03161  0.30045  1.0000
  H   H2651     1.0  0.87167  0.02962  0.30197  1.0000
  H   H2652     1.0  0.84957  0.05443  0.30004  1.0000
  H   H2653     1.0  0.85767  0.08124  0.32818  1.0000
  H   H2654     1.0  0.86175  0.09789  0.34528  1.0000
  H   H2655     1.0  0.85793  0.12837  0.33570  1.0000
  H   H2656     1.0  0.84994  0.14208  0.30897  1.0000
  H   H2657     1.0  0.84581  0.12572  0.29173  1.0000
  H   H2658     1.0  0.82441  0.11308  0.27844  1.0000
  H   H2659     1.0  0.82633  0.12954  0.24998  1.0000
  H   H2660     1.0  0.85350  0.12811  0.23023  1.0000
  H   H2661     1.0  0.87867  0.10990  0.23902  1.0000
  H   H2662     1.0  0.87711  0.09316  0.26722  1.0000
  C   C3307     1.0  0.57840  0.40591  0.29805  1.0000
  H   H2663     1.0  0.82045  0.00878  0.20228  1.0000
  H   H2664     1.0  0.64485  0.44191  0.35680  1.0000
  C   C3308     1.0  0.99284  0.44723  0.30853  1.0000
  H   H2665     1.0  0.82877  0.10565  0.19998  1.0000
  H   H2666     1.0  0.58514  0.46118  0.19273  1.0000
  C   C3309     1.0  0.76685  0.32240  0.35837  1.0000
  C   C3310     1.0  0.86073  0.07750  0.18397  1.0000
  C   C3311     1.0  0.81158  0.25237  0.37891  1.0000
  Fe  Fe226     1.0  0.77305  0.99430  0.26416  1.0000
  C   C3312     1.0  0.98299  0.13212  0.33624  1.0000
  H   H2667     1.0  0.96611  0.20726  0.28848  1.0000
  H   H2668     1.0  0.82003  0.26518  0.33700  1.0000
  H   H2669     1.0  0.78093  0.99007  0.23266  1.0000
  C   C3313     1.0  0.52364  0.40549  0.27401  1.0000
  C   C3314     1.0  0.54205  0.43958  0.31804  1.0000
  H   H2670     1.0  0.55218  0.37520  0.32775  1.0000
  C   C3315     1.0  0.50865  0.47727  0.25897  1.0000
  C   C3316     1.0  0.50761  0.35823  0.19895  1.0000
  C   C3317     1.0  0.57499  0.46299  0.18681  1.0000
  C   C3318     1.0  0.89799  0.11988  0.31428  1.0000
  C   C3319     1.0  0.93609  0.10648  0.34432  1.0000
  C   C3320     1.0  0.53655  0.40948  0.27792  1.0000
  C   C3321     1.0  0.89094  0.13607  0.30734  1.0000
  C   C3322     1.0  0.53115  0.47262  0.30336  1.0000
  C   C3323     1.0  0.77412  0.30907  0.35065  1.0000
  C   C3324     1.0  0.49862  0.34562  0.20407  1.0000
  H   H2671     1.0  0.82842  0.99756  0.26685  1.0000
  C   C3325     1.0  0.59251  0.25474  0.18331  1.0000
  C   C3326     1.0  0.79619  0.03250  0.25602  1.0000
  H   H2672     1.0  0.49903  0.47444  0.21144  1.0000
  H   H2673     1.0  0.69287  0.33273  0.19443  1.0000
  H   H2674     1.0  0.68310  0.48371  0.30461  1.0000
  H   H2675     1.0  0.93594  0.13721  0.34556  1.0000
  C   C3327     1.0  0.50048  0.47669  0.19820  1.0000
  C   C3328     1.0  0.79495  0.04947  0.24944  1.0000
  C   C3329     1.0  0.61529  0.38000  0.18894  1.0000
  C   C3330     1.0  0.49555  0.33859  0.19252  1.0000
  C   C3331     1.0  0.93799  0.08166  0.37279  1.0000
  H   H2676     1.0  0.71635  0.39579  0.34590  1.0000
  H   H2677     1.0  0.77423  0.06358  0.28439  1.0000
  H   H2678     1.0  0.70080  0.35519  0.37738  1.0000
  C   C3332     1.0  0.69331  0.42084  0.22032  1.0000
  H   H2679     1.0  0.86104  0.05150  0.19230  1.0000
  C   C3333     1.0  0.72572  0.36950  0.34852  1.0000
  S   S449      1.0  0.51148  0.36621  0.21422  1.0000
  C   C3334     1.0  0.87527  0.11423  0.37158  1.0000
  C   C3335     1.0  0.92414  0.09476  0.37251  1.0000
  H   H2680     1.0  0.84135  0.10404  0.22313  1.0000
  C   C3336     1.0  0.98013  0.24146  0.26423  1.0000
  H   H2681     1.0  0.78575  0.07382  0.25488  1.0000
  H   H2682     1.0  0.87521  0.11338  0.35934  1.0000
  S   S450      1.0  0.97988  0.26207  0.26430  1.0000
  C   C3337     1.0  0.78126  0.07411  0.18900  1.0000
  H   H2683     1.0  0.58587  0.37082  0.22343  1.0000
  C   C3338     1.0  0.68056  0.43368  0.19687  1.0000
  C   C3339     1.0  0.96373  0.10947  0.22317  1.0000
  H   H2684     1.0  0.83990  0.04478  0.22556  1.0000
  C   C3340     1.0  0.75643  0.32017  0.37411  1.0000
  H   H2685     1.0  0.63386  0.33714  0.22714  1.0000
  H   H2686     1.0  0.51599  0.44640  0.28821  1.0000
  C   C3341     1.0  0.78690  0.06067  0.25977  1.0000
  C   C3342     1.0  0.98379  0.23703  0.24900  1.0000
  H   H2687     1.0  0.58281  0.36795  0.32375  1.0000
  C   C3343     1.0  0.95002  0.09353  0.34472  1.0000
  H   H2688     1.0  0.77678  0.28304  0.35266  1.0000
  C   C3344     1.0  0.98491  0.20440  0.31973  1.0000
  C   C3345     1.0  0.56034  0.45814  0.19602  1.0000
  C   C3346     1.0  0.72293  0.38466  0.35287  1.0000
  C   C3347     1.0  0.78975  0.02684  0.27272  1.0000
  H   H2689     1.0  0.87140  0.01129  0.28400  1.0000
  C   C3348     1.0  0.89115  0.14488  0.33162  1.0000
  H   H2690     1.0  0.94050  0.16583  0.23521  1.0000
  H   H2691     1.0  0.57601  0.44813  0.28185  1.0000
  C   C3349     1.0  0.58696  0.44851  0.24087  1.0000
  C   C3350     1.0  0.95096  0.08108  0.35892  1.0000
  H   H2692     1.0  0.53898  0.46476  0.28045  1.0000
  C   C3351     1.0  0.89698  0.30320  0.27638  1.0000
  C   C3352     1.0  0.89953  0.31343  0.28511  1.0000
  C   C3353     1.0  0.90684  0.30649  0.29874  1.0000
  C   C3354     1.0  0.91181  0.28936  0.30350  1.0000
  C   C3355     1.0  0.90978  0.27903  0.29451  1.0000
  C   C3356     1.0  0.90191  0.28603  0.28118  1.0000
  P   P114      1.0  0.91561  0.25692  0.30114  1.0000
  C   C3357     1.0  0.93222  0.25220  0.31176  1.0000
  C   C3358     1.0  0.89697  0.25084  0.31415  1.0000
  C   C3359     1.0  0.88812  0.24255  0.30882  1.0000
  C   C3360     1.0  0.87345  0.23839  0.31890  1.0000
  C   C3361     1.0  0.86722  0.24297  0.33411  1.0000
  C   C3362     1.0  0.87564  0.25170  0.33924  1.0000
  C   C3363     1.0  0.89042  0.25569  0.32931  1.0000
  C   C3364     1.0  0.94633  0.25873  0.30383  1.0000
  C   C3365     1.0  0.95923  0.25567  0.31184  1.0000
  C   C3366     1.0  0.95817  0.24612  0.32783  1.0000
  C   C3367     1.0  0.94428  0.23937  0.33577  1.0000
  C   C3368     1.0  0.93140  0.24220  0.32770  1.0000
  C   C3369     1.0  0.92445  0.24730  0.28368  1.0000
  C   C3370     1.0  0.92489  0.23054  0.28537  1.0000
  C   C3371     1.0  0.93183  0.22312  0.27184  1.0000
  C   C3372     1.0  0.93888  0.23215  0.25671  1.0000
  C   C3373     1.0  0.93938  0.24855  0.25521  1.0000
  C   C3374     1.0  0.93229  0.25609  0.26866  1.0000
  H   H2693     1.0  0.89118  0.30856  0.26591  1.0000
  H   H2694     1.0  0.89577  0.32672  0.28139  1.0000
  H   H2695     1.0  0.90865  0.31431  0.30572  1.0000
  H   H2696     1.0  0.91717  0.28417  0.31426  1.0000
  H   H2697     1.0  0.89969  0.27821  0.27448  1.0000
  H   H2698     1.0  0.89241  0.23925  0.29694  1.0000
  H   H2699     1.0  0.86713  0.23132  0.31505  1.0000
  H   H2700     1.0  0.85614  0.23936  0.34218  1.0000
  H   H2701     1.0  0.87088  0.25503  0.35112  1.0000
  H   H2702     1.0  0.89678  0.26250  0.33350  1.0000
  H   H2703     1.0  0.94738  0.26631  0.29146  1.0000
  H   H2704     1.0  0.96991  0.26105  0.30576  1.0000
  H   H2705     1.0  0.96793  0.24448  0.33417  1.0000
  H   H2706     1.0  0.94330  0.23241  0.34837  1.0000
  H   H2707     1.0  0.92078  0.23683  0.33403  1.0000
  H   H2708     1.0  0.92010  0.22312  0.29717  1.0000
  H   H2709     1.0  0.93233  0.21018  0.27320  1.0000
  H   H2710     1.0  0.94480  0.22613  0.24645  1.0000
  H   H2711     1.0  0.94583  0.25523  0.24382  1.0000
  H   H2712     1.0  0.93342  0.26859  0.26741  1.0000
  S   S451      1.0  0.76936  0.99014  0.29169  1.0000
  H   H2713     1.0  0.76766  0.06759  0.23658  1.0000
  H   H2714     1.0  0.80049  0.03160  0.21352  1.0000
  H   H2715     1.0  0.96706  0.12038  0.21449  1.0000
  H   H2716     1.0  0.98735  0.28095  0.37381  1.0000
  P   P115      1.0  0.90522  0.12440  0.35771  1.0000
  H   H2717     1.0  0.96208  0.20513  0.35254  1.0000
  H   H2718     1.0  0.62177  0.40736  0.34648  1.0000
  C   C3375     1.0  0.97426  0.23036  0.27857  1.0000
  C   C3376     1.0  0.96636  0.22476  0.37578  1.0000
  C   C3377     1.0  0.85537  0.06309  0.18529  1.0000
  H   H2719     1.0  0.72124  0.36892  0.33817  1.0000
  H   H2720     1.0  0.63036  0.31351  0.25058  1.0000
  H   H2721     1.0  0.65089  0.36590  0.37131  1.0000
  C   C3378     1.0  0.56489  0.43380  0.25436  1.0000
  H   H2722     1.0  0.66741  0.47419  0.34584  1.0000
  H   H2723     1.0  0.64658  0.33627  0.28004  1.0000
  C   C3379     1.0  0.82003  0.24003  0.35006  1.0000
  S   S452      1.0  0.96901  0.12943  0.32594  1.0000
  H   H2724     1.0  0.95184  0.06999  0.25348  1.0000
  C   C3380     1.0  0.50007  0.46404  0.19120  1.0000
  C   C3381     1.0  0.77471  0.35167  0.38198  1.0000
  C   C3382     1.0  0.98054  0.16326  0.23563  1.0000
  H   H2725     1.0  0.60397  0.46970  0.36012  1.0000
  H   H2726     1.0  0.65024  0.35972  0.25694  1.0000
  H   H2727     1.0  0.97172  0.20506  0.32258  1.0000
  C   C3383     1.0  0.96195  0.19413  0.36220  1.0000
  C   C3384     1.0  0.98408  0.10231  0.29730  1.0000
  C   C3385     1.0  0.66541  0.46364  0.30007  1.0000
  C   C3386     1.0  0.67240  0.45579  0.28674  1.0000
  C   C3387     1.0  0.68295  0.44016  0.28889  1.0000
  C   C3388     1.0  0.68674  0.43235  0.30425  1.0000
  C   C3389     1.0  0.68016  0.44025  0.31746  1.0000
  C   C3390     1.0  0.66937  0.45573  0.31546  1.0000
  C   C3391     1.0  0.95367  0.10127  0.21952  1.0000
  H   H2728     1.0  0.86063  0.98810  0.30447  1.0000
  C   C3392     1.0  0.81496  0.07261  0.22676  1.0000
  C   C3393     1.0  0.73399  0.35510  0.35771  1.0000
  H   H2729     1.0  0.58150  0.40866  0.20587  1.0000
  C   C3394     1.0  0.55173  0.39888  0.31097  1.0000
  H   H2730     1.0  0.58950  0.37982  0.19297  1.0000
  H   H2731     1.0  0.63656  0.45768  0.32262  1.0000
  C   C3395     1.0  0.62617  0.39418  0.37048  1.0000
  C   C3396     1.0  0.97142  0.21532  0.27751  1.0000
  C   C3397     1.0  0.94944  0.08704  0.23045  1.0000
  H   H2732     1.0  0.90592  0.03780  0.19820  1.0000
  H   H2733     1.0  0.93666  0.26204  0.36931  1.0000
  H   H2734     1.0  0.66950  0.46145  0.27475  1.0000
  H   H2735     1.0  0.68787  0.43395  0.27867  1.0000
  H   H2736     1.0  0.69448  0.42003  0.30601  1.0000
  H   H2737     1.0  0.68302  0.43409  0.32941  1.0000
  H   H2738     1.0  0.66386  0.46136  0.32601  1.0000
  H   H2739     1.0  0.78213  0.31089  0.33849  1.0000
  H   H2740     1.0  0.72615  0.39714  0.36990  1.0000
  C   C3398     1.0  0.89907  0.12882  0.33827  1.0000
  C   C3399     1.0  0.58835  0.41666  0.19620  1.0000
  C   C3400     1.0  0.67666  0.40914  0.36345  1.0000
  S   S453      1.0  0.50339  0.44009  0.23228  1.0000
  H   H2741     1.0  0.68064  0.35608  0.36111  1.0000
  C   C3401     1.0  0.81797  0.25691  0.34898  1.0000
  H   H2742     1.0  0.54322  0.32716  0.20387  1.0000
  C   C3402     1.0  0.53802  0.46085  0.29363  1.0000
  C   C3403     1.0  0.93084  0.15956  0.35380  1.0000
  H   H2743     1.0  0.94312  0.16186  0.34801  1.0000
  H   H2744     1.0  0.69236  0.41807  0.23354  1.0000
  H   H2745     1.0  0.96755  0.23268  0.36364  1.0000
  H   H2746     1.0  0.93280  0.01771  0.19807  1.0000
  H   H2747     1.0  0.63828  0.39692  0.36785  1.0000
  C   C3404     1.0  0.77169  0.06962  0.22332  1.0000
  C   C3405     1.0  0.95533  0.08095  0.24499  1.0000
  H   H2748     1.0  0.98380  0.21826  0.33758  1.0000
  C   C3406     1.0  0.73957  0.35582  0.37129  1.0000
  H   H2749     1.0  0.59938  0.38753  0.30493  1.0000
  C   C3407     1.0  0.54563  0.32603  0.19117  1.0000
  H   H2750     1.0  0.66968  0.44084  0.19220  1.0000
  H   H2751     1.0  0.81264  0.08555  0.20184  1.0000
  C   C3408     1.0  0.96523  0.08922  0.24878  1.0000
  H   H2752     1.0  0.53838  0.40182  0.31275  1.0000
  C   C3409     1.0  0.90318  0.16804  0.36940  1.0000
  C   C3410     1.0  0.70835  0.41596  0.20974  1.0000
  C   C3411     1.0  0.56116  0.40995  0.29994  1.0000
  H   H2753     1.0  0.97518  0.43213  0.31286  1.0000
  H   H2754     1.0  0.94904  0.10597  0.20828  1.0000
  C   C3412     1.0  0.53399  0.42417  0.28323  1.0000
  C   C3413     1.0  0.57603  0.43952  0.24011  1.0000
  C   C3414     1.0  0.60943  0.43283  0.18733  1.0000
  C   C3415     1.0  0.86503  0.98743  0.29162  1.0000
  C   C3416     1.0  0.73645  0.37105  0.37572  1.0000
  H   H2755     1.0  0.55062  0.26098  0.19341  1.0000
  S   S454      1.0  0.87626  0.26228  0.37978  1.0000
  H   H2756     1.0  0.71473  0.45993  0.37315  1.0000
  C   C3417     1.0  0.56483  0.43673  0.26960  1.0000
  H   H2757     1.0  0.77378  0.03968  0.18748  1.0000
  C   C3418     1.0  0.70442  0.46328  0.36710  1.0000
  H   H2758     1.0  0.94139  0.08080  0.22783  1.0000
  C   C3419     1.0  0.67944  0.42958  0.21384  1.0000
  C   C3420     1.0  0.59916  0.48191  0.27471  1.0000
  C   C3421     1.0  0.50547  0.43089  0.28033  1.0000
  C   C3422     1.0  0.70625  0.45811  0.35260  1.0000
  C   C3423     1.0  0.69291  0.46224  0.34490  1.0000
  C   C3424     1.0  0.67765  0.47131  0.35182  1.0000
  C   C3425     1.0  0.65947  0.36604  0.37836  1.0000
  C   C3426     1.0  0.96900  0.10646  0.29241  1.0000
  C   C3427     1.0  0.76457  0.07842  0.19650  1.0000
  H   H2759     1.0  0.75883  0.27886  0.38063  1.0000
  C   C3428     1.0  0.94699  0.19141  0.37267  1.0000
  C   C3429     1.0  0.92668  0.14551  0.35243  1.0000
  H   H2760     1.0  0.68467  0.38910  0.35074  1.0000
  H   H2761     1.0  0.71797  0.45075  0.34746  1.0000
  H   H2762     1.0  0.69434  0.45812  0.33373  1.0000
  C   C3430     1.0  0.51832  0.43486  0.28444  1.0000
  H   H2763     1.0  0.89346  0.00636  0.21136  1.0000
  H   H2764     1.0  0.95413  0.14537  0.37504  1.0000
  H   H2765     1.0  0.85975  0.02168  0.21437  1.0000
  H   H2766     1.0  0.60774  0.45563  0.33498  1.0000
  C   C3431     1.0  0.78192  0.03799  0.28296  1.0000
  C   C3432     1.0  0.82663  0.09642  0.21125  1.0000
  C   C3433     1.0  0.78041  0.05493  0.27647  1.0000
  C   C3434     1.0  0.88725  0.14849  0.31614  1.0000
  P   P116      1.0  0.80407  0.05693  0.22810  1.0000
  H   H2767     1.0  0.81972  0.21617  0.36635  1.0000
  H   H2768     1.0  0.74681  0.07916  0.21951  1.0000
  C   C3435     1.0  0.81878  0.04026  0.21984  1.0000
  H   H2769     1.0  0.66782  0.43347  0.22196  1.0000
  H   H2770     1.0  0.82365  0.23521  0.33895  1.0000
  C   C3436     1.0  0.79316  0.06750  0.19862  1.0000
  H   H2771     1.0  0.99301  0.16092  0.26599  1.0000
  C   C3437     1.0  0.96876  0.10957  0.27571  1.0000
  C   C3438     1.0  0.97674  0.18294  0.36454  1.0000
  C   C3439     1.0  0.81778  0.22931  0.36549  1.0000
  C   C3440     1.0  0.82200  0.07191  0.23987  1.0000
  C   C3441     1.0  0.81341  0.02976  0.21352  1.0000
  C   C3442     1.0  0.83365  0.09556  0.22432  1.0000
  H   H2772     1.0  0.93567  0.11596  0.33315  1.0000
  C   C3443     1.0  0.58679  0.45171  0.25593  1.0000
  C   C3444     1.0  0.55949  0.38381  0.31958  1.0000
  C   C3445     1.0  0.91388  0.99040  0.22168  1.0000
  C   C3446     1.0  0.91071  0.14255  0.35955  1.0000
  H   H2773     1.0  0.88863  0.13903  0.29501  1.0000
  C   C3447     1.0  0.83119  0.08341  0.23869  1.0000
  C   C3448     1.0  0.54472  0.31149  0.18759  1.0000
  H   H2774     1.0  0.83685  0.08250  0.24875  1.0000
  H   H2775     1.0  0.85033  0.00415  0.20247  1.0000
  C   C3449     1.0  0.83552  0.03713  0.22039  1.0000
  H   H2776     1.0  0.88874  0.15486  0.33790  1.0000
  H   H2777     1.0  0.77066  0.36083  0.37169  1.0000
  H   H2778     1.0  0.82082  0.06216  0.25083  1.0000
  C   C3450     1.0  0.78850  0.06536  0.21585  1.0000
  C   C3451     1.0  0.90193  0.11621  0.32975  1.0000
  H   H2779     1.0  0.52687  0.48539  0.29762  1.0000
  C   C3452     1.0  0.84680  0.02407  0.21412  1.0000
  C   C3453     1.0  0.61044  0.46689  0.32649  1.0000
  C   C3454     1.0  0.81740  0.08494  0.21238  1.0000
  C   C3455     1.0  0.53535  0.45143  0.32772  1.0000
  C   C3456     1.0  0.57584  0.44578  0.27024  1.0000
  C   C3457     1.0  0.57669  0.37975  0.31738  1.0000
  C   C3458     1.0  0.96409  0.17038  0.23457  1.0000
  C   C3459     1.0  0.61392  0.47312  0.36296  1.0000
  H   H2780     1.0  0.54630  0.42691  0.32399  1.0000
  S   S455      1.0  0.62331  0.44098  0.19263  1.0000
  H   H2781     1.0  0.68603  0.40423  0.37067  1.0000
  C   C3460     1.0  0.68772  0.35972  0.38173  1.0000
  C   C3461     1.0  0.66980  0.37749  0.19797  1.0000
  C   C3462     1.0  0.66326  0.36414  0.20854  1.0000
  C   C3463     1.0  0.67160  0.34798  0.20707  1.0000
  P   P117      1.0  0.64393  0.36799  0.22322  1.0000
  C   C3464     1.0  0.64247  0.35023  0.24014  1.0000
  C   C3465     1.0  0.64348  0.38593  0.23040  1.0000
  C   C3466     1.0  0.65729  0.38701  0.23541  1.0000
  C   C3467     1.0  0.65731  0.40119  0.24025  1.0000
  C   C3468     1.0  0.64380  0.41455  0.23961  1.0000
  C   C3469     1.0  0.63011  0.41366  0.23447  1.0000
  C   C3470     1.0  0.62986  0.39933  0.23005  1.0000
  C   C3471     1.0  0.64625  0.34964  0.25512  1.0000
  C   C3472     1.0  0.64422  0.33622  0.26836  1.0000
  C   C3473     1.0  0.63854  0.32318  0.26673  1.0000
  C   C3474     1.0  0.63498  0.32351  0.25179  1.0000
  C   C3475     1.0  0.63695  0.33695  0.23854  1.0000
  C   C3476     1.0  0.62678  0.37189  0.21344  1.0000
  C   C3477     1.0  0.62870  0.37725  0.19627  1.0000
  H   H2782     1.0  0.93561  0.20034  0.37104  1.0000
  C   C3478     1.0  0.59995  0.37738  0.19867  1.0000
  C   C3479     1.0  0.59788  0.37239  0.21579  1.0000
  C   C3480     1.0  0.61119  0.36977  0.22316  1.0000
  H   H2783     1.0  0.49408  0.34121  0.21710  1.0000
  H   H2784     1.0  0.95519  0.12114  0.36470  1.0000
  H   H2785     1.0  0.60928  0.36619  0.23647  1.0000
  C   C3481     1.0  0.98157  0.22184  0.24801  1.0000
  H   H2786     1.0  0.66673  0.33749  0.21492  1.0000
  H   H2787     1.0  0.66797  0.37686  0.23570  1.0000
  H   H2788     1.0  0.66776  0.40189  0.24452  1.0000
  H   H2789     1.0  0.64393  0.42556  0.24320  1.0000
  H   H2790     1.0  0.61964  0.42405  0.23396  1.0000
  H   H2791     1.0  0.61902  0.39878  0.22641  1.0000
  H   H2792     1.0  0.99000  0.19030  0.30126  1.0000
  C   C3482     1.0  0.67558  0.47618  0.36662  1.0000
  H   H2793     1.0  0.95701  0.28800  0.37802  1.0000
  C   C3483     1.0  0.54712  0.46082  0.18852  1.0000
  C   C3484     1.0  0.91913  0.17074  0.36241  1.0000
  C   C3485     1.0  0.88825  0.11924  0.37443  1.0000
  C   C3486     1.0  0.87892  0.21010  0.36085  1.0000
  C   C3487     1.0  0.81072  0.30829  0.38030  1.0000
  C   C3488     1.0  0.67637  0.36015  0.37265  1.0000
  C   C3489     1.0  0.49967  0.28974  0.19438  1.0000
  S   S456      1.0  0.91063  0.23369  0.37555  1.0000
  C   C3490     1.0  0.77116  0.29339  0.35864  1.0000
  H   H2794     1.0  0.96017  0.09331  0.33404  1.0000
  C   C3491     1.0  0.52975  0.46793  0.32040  1.0000
  H   H2795     1.0  0.64041  0.37949  0.18853  1.0000
  C   C3492     1.0  0.50815  0.41628  0.27500  1.0000
  C   C3493     1.0  0.97660  0.16909  0.37752  1.0000
  C   C3494     1.0  0.68464  0.37471  0.18637  1.0000
  H   H2796     1.0  0.98861  0.17102  0.23545  1.0000
  S   S457      1.0  0.98979  0.29049  0.28794  1.0000
  H   H2797     1.0  0.57531  0.24174  0.20184  1.0000
  H   H2798     1.0  0.89400  0.17700  0.37569  1.0000
  C   C3495     1.0  0.92619  0.01961  0.18844  1.0000
  H   H2799     1.0  0.68315  0.48414  0.21206  1.0000
  C   C3496     1.0  0.91103  0.03090  0.18860  1.0000
  C   C3497     1.0  0.68643  0.34523  0.19543  1.0000
  H   H2800     1.0  0.50918  0.25205  0.18486  1.0000
  C   C3498     1.0  0.51086  0.26385  0.18551  1.0000
  C   C3499     1.0  0.57672  0.25212  0.19151  1.0000
  C   C3500     1.0  0.63039  0.48217  0.30738  1.0000
  C   C3501     1.0  0.63238  0.46907  0.38108  1.0000
  C   C3502     1.0  0.98649  0.14742  0.33521  1.0000
  H   H2801     1.0  0.63446  0.48042  0.27402  1.0000
  C   C3503     1.0  0.81350  0.23544  0.37985  1.0000
  C   C3504     1.0  0.98630  0.14616  0.23764  1.0000
  H   H2802     1.0  0.60335  0.24633  0.18721  1.0000
  H   H2803     1.0  0.98806  0.24555  0.23785  1.0000
  C   C3505     1.0  0.99083  0.11794  0.34599  1.0000
  H   H2804     1.0  0.98826  0.10609  0.34689  1.0000
  C   C3506     1.0  0.70954  0.41998  0.19268  1.0000
  S   S458      1.0  0.66626  0.43514  0.37939  1.0000
  C   C3507     1.0  0.95781  0.11944  0.37671  1.0000
  H   H2805     1.0  0.96345  0.09294  0.38102  1.0000
  H   H2806     1.0  0.98820  0.16058  0.37910  1.0000
  C   C3508     1.0  0.98024  0.21352  0.38045  1.0000
  C   C3509     1.0  0.62111  0.48589  0.35228  1.0000
  H   H2807     1.0  0.89579  0.98915  0.19164  1.0000
  C   C3510     1.0  0.75397  0.30427  0.38231  1.0000
  P   P118      1.0  0.80749  0.25986  0.39761  1.0000
  S   S459      1.0  0.62066  0.37464  0.56697  1.0000
  Fe  Fe227     1.0  0.52974  0.23990  0.54486  1.0000
  S   S460      1.0  0.52872  0.25578  0.51963  1.0000
  S   S461      1.0  0.54322  0.21335  0.55006  1.0000
  Fe  Fe228     1.0  0.53219  0.27584  0.52962  1.0000
  S   S462      1.0  0.54898  0.29376  0.51634  1.0000
  H   H2808     1.0  0.54052  0.23577  0.48959  1.0000
  H   H2809     1.0  0.59891  0.41180  0.44187  1.0000
  S   S463      1.0  0.53584  0.25911  0.55372  1.0000
  H   H2810     1.0  0.73086  0.46869  0.51159  1.0000
  Fe  Fe229     1.0  0.74039  0.39287  0.54467  1.0000
  S   S464      1.0  0.74579  0.41811  0.53500  1.0000
  C   C3511     1.0  0.50603  0.22178  0.51202  1.0000
  Fe  Fe230     1.0  0.70471  0.40630  0.55894  1.0000
  S   S465      1.0  0.70779  0.43272  0.55067  1.0000
  Fe  Fe231     1.0  0.72176  0.42514  0.52688  1.0000
  S   S466      1.0  0.71955  0.44384  0.50290  1.0000
  Fe  Fe232     1.0  0.73166  0.42361  0.55965  1.0000
  S   S467      1.0  0.71737  0.39936  0.53453  1.0000
  C   C3512     1.0  0.60922  0.28910  0.55209  1.0000
  Fe  Fe233     1.0  0.68128  0.42223  0.39908  1.0000
  S   S468      1.0  0.69703  0.39673  0.40037  1.0000
  Fe  Fe234     1.0  0.68929  0.42518  0.43094  1.0000
  S   S469      1.0  0.70546  0.39988  0.43438  1.0000
  S   S470      1.0  0.68434  0.44285  0.44773  1.0000
  Fe  Fe235     1.0  0.71505  0.40674  0.40710  1.0000
  S   S471      1.0  0.74195  0.40253  0.39506  1.0000
  Fe  Fe236     1.0  0.68557  0.39251  0.42740  1.0000
  S   S472      1.0  0.67712  0.36872  0.43977  1.0000
  S   S473      1.0  0.70022  0.43274  0.40393  1.0000
  S   S474      1.0  0.66859  0.41745  0.42581  1.0000
  Fe  Fe237     1.0  0.74030  0.31377  0.47152  1.0000
  S   S475      1.0  0.74938  0.33213  0.47894  1.0000
  S   S476      1.0  0.71399  0.31895  0.46921  1.0000
  Fe  Fe238     1.0  0.77390  0.29097  0.46552  1.0000
  S   S477      1.0  0.78573  0.30702  0.47278  1.0000
  S   S478      1.0  0.79000  0.26809  0.45717  1.0000
  Fe  Fe239     1.0  0.76346  0.30964  0.49339  1.0000
  S   S479      1.0  0.76738  0.30759  0.51862  1.0000
  Fe  Fe240     1.0  0.77079  0.32802  0.45776  1.0000
  S   S480      1.0  0.78441  0.34703  0.44073  1.0000
  S   S481      1.0  0.75278  0.29137  0.48762  1.0000
  S   S482      1.0  0.76045  0.31183  0.44879  1.0000
  Fe  Fe241     1.0  0.59894  0.33558  0.54773  1.0000
  S   S483      1.0  0.59688  0.36295  0.54071  1.0000
  S   S484      1.0  0.57609  0.32468  0.55983  1.0000
  Fe  Fe242     1.0  0.63647  0.32888  0.53545  1.0000
  S   S485      1.0  0.63737  0.35570  0.52676  1.0000
  S   S486      1.0  0.65938  0.30848  0.53458  1.0000
  Fe  Fe243     1.0  0.61971  0.35837  0.55075  1.0000
  Fe  Fe244     1.0  0.61478  0.35802  0.51735  1.0000
  S   S487      1.0  0.61009  0.37426  0.49304  1.0000
  S   S488      1.0  0.61552  0.33089  0.52373  1.0000
  Fe  Fe245     1.0  0.91038  0.23342  0.40174  1.0000
  S   S489      1.0  0.92953  0.21570  0.41514  1.0000
  Fe  Fe246     1.0  0.87893  0.26010  0.40541  1.0000
  S   S490      1.0  0.86187  0.27876  0.41988  1.0000
  S   S491      1.0  0.88358  0.23240  0.41148  1.0000
  S   S492      1.0  0.90586  0.26099  0.39784  1.0000
  C   C3513     1.0  0.61871  0.23012  0.55388  1.0000
  C   C3514     1.0  0.51207  0.17146  0.53909  1.0000
  C   C3515     1.0  0.96315  0.20386  0.40699  1.0000
  C   C3516     1.0  0.94920  0.21504  0.40211  1.0000
  C   C3517     1.0  0.72363  0.47159  0.52325  1.0000
  H   H2811     1.0  0.81212  0.22686  0.39169  1.0000
  H   H2812     1.0  0.53674  0.18973  0.52392  1.0000
  H   H2813     1.0  0.96196  0.19590  0.41913  1.0000
  C   C3518     1.0  0.81002  0.27110  0.44697  1.0000
  C   C3519     1.0  0.82322  0.25745  0.44551  1.0000
  C   C3520     1.0  0.83912  0.25961  0.43679  1.0000
  C   C3521     1.0  0.84200  0.27553  0.43016  1.0000
  C   C3522     1.0  0.82891  0.28921  0.43207  1.0000
  C   C3523     1.0  0.81290  0.28702  0.44022  1.0000
  H   H2814     1.0  0.82121  0.24521  0.45142  1.0000
  H   H2815     1.0  0.84923  0.24900  0.43562  1.0000
  H   H2816     1.0  0.83113  0.30153  0.42698  1.0000
  H   H2817     1.0  0.80282  0.29764  0.44126  1.0000
  C   C3524     1.0  0.69960  0.31680  0.48807  1.0000
  C   C3525     1.0  0.68392  0.32722  0.48912  1.0000
  C   C3526     1.0  0.67155  0.32492  0.50346  1.0000
  C   C3527     1.0  0.67489  0.31203  0.51680  1.0000
  C   C3528     1.0  0.69068  0.30166  0.51586  1.0000
  C   C3529     1.0  0.70310  0.30412  0.50154  1.0000
  H   H2818     1.0  0.68154  0.33728  0.47888  1.0000
  H   H2819     1.0  0.65946  0.33305  0.50412  1.0000
  H   H2820     1.0  0.69333  0.29174  0.52623  1.0000
  H   H2821     1.0  0.71520  0.29597  0.50079  1.0000
  C   C3530     1.0  0.65776  0.37024  0.45357  1.0000
  C   C3531     1.0  0.64614  0.38522  0.45325  1.0000
  C   C3532     1.0  0.63122  0.38630  0.46509  1.0000
  C   C3533     1.0  0.62813  0.37250  0.47754  1.0000
  C   C3534     1.0  0.63939  0.35736  0.47744  1.0000
  C   C3535     1.0  0.65389  0.35615  0.46510  1.0000
  H   H2822     1.0  0.64856  0.39593  0.44389  1.0000
  H   H2823     1.0  0.62236  0.39795  0.46497  1.0000
  H   H2824     1.0  0.63693  0.34660  0.48686  1.0000
  H   H2825     1.0  0.66228  0.34433  0.46469  1.0000
  C   C3536     1.0  0.75353  0.38685  0.40773  1.0000
  C   C3537     1.0  0.77029  0.38643  0.40579  1.0000
  C   C3538     1.0  0.77967  0.37415  0.41599  1.0000
  C   C3539     1.0  0.77242  0.36210  0.42799  1.0000
  C   C3540     1.0  0.75577  0.36221  0.42965  1.0000
  C   C3541     1.0  0.74625  0.37473  0.41965  1.0000
  C   C3542     1.0  0.62682  0.44837  0.45702  1.0000
  H   H2826     1.0  0.79262  0.37386  0.41441  1.0000
  H   H2827     1.0  0.75020  0.35275  0.43876  1.0000
  H   H2828     1.0  0.73335  0.37487  0.42102  1.0000
  C   C3543     1.0  0.51342  0.20591  0.51964  1.0000
  H   H2829     1.0  0.97007  0.16104  0.42985  1.0000
  C   C3544     1.0  0.53074  0.20131  0.51713  1.0000
  C   C3545     1.0  0.76317  0.35456  0.53581  1.0000
  C   C3546     1.0  0.78071  0.35471  0.48958  1.0000
  C   C3547     1.0  0.77741  0.32673  0.53263  1.0000
  C   C3548     1.0  0.76560  0.32604  0.52464  1.0000
  C   C3549     1.0  0.75239  0.33963  0.52234  1.0000
  C   C3550     1.0  0.75103  0.35382  0.52818  1.0000
  H   H2830     1.0  0.62627  0.39936  0.49895  1.0000
  C   C3551     1.0  0.49337  0.32315  0.54681  1.0000
  H   H2831     1.0  0.74306  0.33905  0.51642  1.0000
  H   H2832     1.0  0.74077  0.36420  0.52667  1.0000
  C   C3552     1.0  0.71149  0.44202  0.48688  1.0000
  C   C3553     1.0  0.70887  0.42712  0.48558  1.0000
  C   C3554     1.0  0.70179  0.42678  0.47273  1.0000
  C   C3555     1.0  0.69653  0.44150  0.46175  1.0000
  C   C3556     1.0  0.69935  0.45625  0.46309  1.0000
  C   C3557     1.0  0.70716  0.45643  0.47526  1.0000
  H   H2833     1.0  0.71189  0.41600  0.49467  1.0000
  H   H2834     1.0  0.69979  0.41528  0.47184  1.0000
  H   H2835     1.0  0.69532  0.46767  0.45476  1.0000
  H   H2836     1.0  0.70917  0.46797  0.47613  1.0000
  C   C3558     1.0  0.52260  0.16354  0.52665  1.0000
  C   C3559     1.0  0.55530  0.30341  0.52851  1.0000
  C   C3560     1.0  0.56697  0.31329  0.52091  1.0000
  C   C3561     1.0  0.57296  0.32044  0.53028  1.0000
  C   C3562     1.0  0.56721  0.31787  0.54738  1.0000
  C   C3563     1.0  0.55486  0.30874  0.55489  1.0000
  C   C3564     1.0  0.54905  0.30136  0.54554  1.0000
  H   H2837     1.0  0.57165  0.31516  0.50776  1.0000
  H   H2838     1.0  0.58229  0.32763  0.52429  1.0000
  P   P119      1.0  0.50057  0.19236  0.53366  1.0000
  H   H2839     1.0  0.53969  0.29417  0.55149  1.0000
  C   C3565     1.0  0.58597  0.22101  0.54031  1.0000
  C   C3566     1.0  0.78395  0.40763  0.47956  1.0000
  H   H2840     1.0  0.98941  0.19435  0.39980  1.0000
  H   H2841     1.0  0.80478  0.34187  0.40385  1.0000
  C   C3567     1.0  0.61372  0.39677  0.42461  1.0000
  S   S493      1.0  0.62002  0.33129  0.56020  1.0000
  C   C3568     1.0  0.64289  0.24233  0.54286  1.0000
  H   H2842     1.0  0.61447  0.43417  0.42991  1.0000
  C   C3569     1.0  0.84419  0.34460  0.45121  1.0000
  H   H2843     1.0  0.74930  0.46920  0.43149  1.0000
  C   C3570     1.0  0.86218  0.11025  0.38461  1.0000
  C   C3571     1.0  0.78873  0.35254  0.38664  1.0000
  H   H2844     1.0  0.67923  0.38110  0.55188  1.0000
  C   C3572     1.0  0.62840  0.41589  0.52978  1.0000
  C   C3573     1.0  0.98073  0.15235  0.42491  1.0000
  C   C3574     1.0  0.67339  0.44910  0.50629  1.0000
  H   H2845     1.0  0.85124  0.31664  0.52820  1.0000
  C   C3575     1.0  0.61809  0.42327  0.42477  1.0000
  H   H2846     1.0  0.82469  0.33269  0.42182  1.0000
  H   H2847     1.0  0.50989  0.24458  0.49514  1.0000
  C   C3576     1.0  0.98020  0.27333  0.38376  1.0000
  C   C3577     1.0  0.66688  0.38443  0.55911  1.0000
  C   C3578     1.0  0.87494  0.11609  0.40351  1.0000
  H   H2848     1.0  0.66299  0.45743  0.39998  1.0000
  H   H2849     1.0  0.67600  0.46109  0.49992  1.0000
  C   C3579     1.0  0.67583  0.36704  0.50568  1.0000
  H   H2850     1.0  0.69524  0.37979  0.46611  1.0000
  C   C3580     1.0  0.77700  0.39590  0.57213  1.0000
  H   H2851     1.0  0.88034  0.31022  0.51280  1.0000
  C   C3581     1.0  0.53944  0.18836  0.57746  1.0000
  H   H2852     1.0  0.67674  0.40646  0.47077  1.0000
  Fe  Fe247     1.0  0.50145  0.26330  0.53040  1.0000
  H   H2853     1.0  0.62072  0.45598  0.44722  1.0000
  C   C3582     1.0  0.72219  0.47384  0.55095  1.0000
  C   C3583     1.0  0.80408  0.46207  0.56854  1.0000
  S   S494      1.0  0.72754  0.39776  0.56985  1.0000
  C   C3584     1.0  0.66505  0.38195  0.50832  1.0000
  H   H2854     1.0  0.62296  0.20451  0.55267  1.0000
  H   H2855     1.0  0.63570  0.42712  0.44599  1.0000
  C   C3585     1.0  0.64299  0.42869  0.48221  1.0000
  H   H2856     1.0  0.50612  0.32193  0.52177  1.0000
  C   C3586     1.0  0.70485  0.47813  0.55381  1.0000
  H   H2857     1.0  0.87480  0.11684  0.41587  1.0000
  H   H2858     1.0  0.85184  0.10818  0.41064  1.0000
  H   H2859     1.0  0.65677  0.38228  0.52024  1.0000
  H   H2860     1.0  0.64915  0.40968  0.46823  1.0000
  C   C3587     1.0  0.66261  0.42549  0.50738  1.0000
  H   H2861     1.0  0.58931  0.20865  0.54750  1.0000
  C   C3588     1.0  0.60373  0.40487  0.53675  1.0000
  C   C3589     1.0  0.85391  0.31723  0.51507  1.0000
  S   S495      1.0  0.50499  0.28488  0.53799  1.0000
  C   C3590     1.0  0.70637  0.47554  0.52608  1.0000
  P   P120      1.0  0.69265  0.48078  0.57390  1.0000
  H   H2862     1.0  0.79273  0.33462  0.47751  1.0000
  C   C3591     1.0  0.96111  0.25336  0.40836  1.0000
  H   H2863     1.0  0.74487  0.46676  0.53385  1.0000
  C   C3592     1.0  0.67844  0.44121  0.52108  1.0000
  P   P121      1.0  0.63203  0.37790  0.40153  1.0000
  H   H2864     1.0  0.68362  0.48105  0.54360  1.0000
  C   C3593     1.0  0.65052  0.47695  0.43187  1.0000
  C   C3594     1.0  0.87367  0.31378  0.48958  1.0000
  H   H2865     1.0  0.99276  0.27660  0.41401  1.0000
  C   C3595     1.0  0.63505  0.39241  0.57832  1.0000
  C   C3596     1.0  0.66531  0.37136  0.40206  1.0000
  H   H2866     1.0  0.81671  0.32244  0.45167  1.0000
  C   C3597     1.0  0.78257  0.36575  0.49776  1.0000
  H   H2867     1.0  0.61621  0.32364  0.42062  1.0000
  C   C3598     1.0  0.63533  0.43220  0.45623  1.0000
  H   H2868     1.0  0.76532  0.44498  0.44763  1.0000
  C   C3599     1.0  0.73152  0.47063  0.53571  1.0000
  H   H2869     1.0  0.62148  0.31897  0.44859  1.0000
  C   C3600     1.0  0.83094  0.29501  0.47406  1.0000
  H   H2870     1.0  0.59844  0.37580  0.40139  1.0000
  C   C3601     1.0  0.79808  0.36493  0.50046  1.0000
  C   C3602     1.0  0.79435  0.34284  0.48407  1.0000
  H   H2871     1.0  0.78141  0.42802  0.50912  1.0000
  C   C3603     1.0  0.65346  0.48379  0.39760  1.0000
  H   H2872     1.0  0.94012  0.26998  0.39947  1.0000
  H   H2873     1.0  0.69503  0.35478  0.48836  1.0000
  H   H2874     1.0  0.63555  0.36557  0.43567  1.0000
  C   C3604     1.0  0.50949  0.37309  0.57486  1.0000
  C   C3605     1.0  0.78484  0.37932  0.57279  1.0000
  H   H2875     1.0  0.54311  0.39048  0.56419  1.0000
  S   S496      1.0  0.67946  0.40223  0.57407  1.0000
  C   C3606     1.0  0.63782  0.38211  0.56740  1.0000
  C   C3607     1.0  0.71887  0.32742  0.40085  1.0000
  C   C3608     1.0  0.79737  0.37208  0.58163  1.0000
  C   C3609     1.0  0.65800  0.46753  0.40634  1.0000
  H   H2876     1.0  0.60650  0.38734  0.42969  1.0000
  C   C3610     1.0  0.73173  0.33394  0.40189  1.0000
  C   C3611     1.0  0.81470  0.27885  0.39242  1.0000
  C   C3612     1.0  0.70502  0.32647  0.41387  1.0000
  C   C3613     1.0  0.70378  0.33238  0.42780  1.0000
  C   C3614     1.0  0.71636  0.33921  0.42871  1.0000
  C   C3615     1.0  0.73031  0.33990  0.41589  1.0000
  C   C3616     1.0  0.51815  0.14613  0.55946  1.0000
  H   H2877     1.0  0.56780  0.21690  0.57393  1.0000
  C   C3617     1.0  0.50587  0.32585  0.53275  1.0000
  H   H2878     1.0  0.65283  0.20200  0.54028  1.0000
  H   H2879     1.0  0.69086  0.36435  0.40386  1.0000
  C   C3618     1.0  0.57134  0.25748  0.57256  1.0000
  H   H2880     1.0  0.88634  0.31048  0.48295  1.0000
  H   H2881     1.0  0.63672  0.46212  0.39211  1.0000
  H   H2882     1.0  0.61068  0.41559  0.55290  1.0000
  C   C3619     1.0  0.65385  0.37194  0.39300  1.0000
  C   C3620     1.0  0.79426  0.34089  0.39988  1.0000
  C   C3621     1.0  0.60925  0.41072  0.43143  1.0000
  P   P122      1.0  0.74853  0.33721  0.38439  1.0000
  H   H2883     1.0  0.54156  0.33968  0.57174  1.0000
  H   H2884     1.0  0.69298  0.33204  0.43784  1.0000
  H   H2885     1.0  0.71514  0.34415  0.43937  1.0000
  H   H2886     1.0  0.73975  0.34544  0.41680  1.0000
  H   H2887     1.0  0.80515  0.47427  0.56116  1.0000
  C   C3622     1.0  0.53301  0.22739  0.49790  1.0000
  C   C3623     1.0  0.65381  0.37814  0.55767  1.0000
  C   C3624     1.0  0.76367  0.43365  0.49392  1.0000
  C   C3625     1.0  0.50085  0.20004  0.56286  1.0000
  C   C3626     1.0  0.87029  0.31356  0.50641  1.0000
  C   C3627     1.0  0.57486  0.23896  0.51709  1.0000
  C   C3628     1.0  0.57936  0.22316  0.52658  1.0000
  H   H2888     1.0  0.56930  0.24066  0.50673  1.0000
  H   H2889     1.0  0.57716  0.21260  0.52366  1.0000
  H   H2890     1.0  0.72641  0.46614  0.42098  1.0000
  H   H2891     1.0  0.52908  0.22936  0.57751  1.0000
  C   C3629     1.0  0.64533  0.21366  0.54302  1.0000
  C   C3630     1.0  0.72977  0.44004  0.43111  1.0000
  H   H2892     1.0  0.58514  0.26129  0.53804  1.0000
  C   C3631     1.0  0.54049  0.21199  0.50620  1.0000
  H   H2893     1.0  0.98383  0.23904  0.41482  1.0000
  C   C3632     1.0  0.67623  0.39551  0.48056  1.0000
  C   C3633     1.0  0.60814  0.40042  0.52150  1.0000
  C   C3634     1.0  0.82240  0.30633  0.48417  1.0000
  C   C3635     1.0  0.66580  0.44115  0.49926  1.0000
  C   C3636     1.0  0.68668  0.36633  0.49044  1.0000
  C   C3637     1.0  0.76606  0.33918  0.39070  1.0000
  Fe  Fe248     1.0  0.88358  0.23463  0.38490  1.0000
  H   H2894     1.0  0.74762  0.43587  0.47797  1.0000
  C   C3638     1.0  0.63312  0.41103  0.51460  1.0000
  C   C3639     1.0  0.75537  0.44345  0.44315  1.0000
  C   C3640     1.0  0.49364  0.20684  0.57679  1.0000
  C   C3641     1.0  0.63622  0.40768  0.40476  1.0000
  C   C3642     1.0  0.83601  0.29363  0.38941  1.0000
  C   C3643     1.0  0.68685  0.38052  0.47789  1.0000
  C   C3644     1.0  0.58364  0.25053  0.53498  1.0000
  C   C3645     1.0  0.75919  0.42932  0.48156  1.0000
  C   C3646     1.0  0.73355  0.45550  0.42793  1.0000
  H   H2895     1.0  0.97018  0.08898  0.40819  1.0000
  H   H2896     1.0  0.68475  0.44718  0.52626  1.0000
  H   H2897     1.0  0.55006  0.30708  0.56805  1.0000
  H   H2898     1.0  0.59273  0.40193  0.54557  1.0000
  P   P123      1.0  0.65138  0.41553  0.49955  1.0000
  H   H2899     1.0  0.83354  0.27093  0.46964  1.0000
  C   C3647     1.0  0.83032  0.33590  0.42995  1.0000
  H   H2900     1.0  0.57375  0.26485  0.51377  1.0000
  H   H2901     1.0  0.53931  0.14114  0.52101  1.0000
  C   C3648     1.0  0.51848  0.33767  0.54732  1.0000
  C   C3649     1.0  0.77637  0.34101  0.53792  1.0000
  C   C3650     1.0  0.84862  0.35049  0.43417  1.0000
  H   H2902     1.0  0.84530  0.35043  0.41032  1.0000
  H   H2903     1.0  0.64846  0.25293  0.54003  1.0000
  C   C3651     1.0  0.77823  0.42493  0.49919  1.0000
  C   C3652     1.0  0.78838  0.41194  0.49199  1.0000
  H   H2904     1.0  0.62078  0.34915  0.40002  1.0000
  C   C3653     1.0  0.62260  0.34750  0.41234  1.0000
  H   H2905     1.0  0.77596  0.39573  0.39655  1.0000
  H   H2906     1.0  0.71971  0.43872  0.42664  1.0000
  H   H2907     1.0  0.79005  0.31945  0.41891  1.0000
  H   H2908     1.0  0.81231  0.26286  0.49448  1.0000
  C   C3654     1.0  0.88805  0.12005  0.39052  1.0000
  C   C3655     1.0  0.76930  0.41633  0.47423  1.0000
  C   C3656     1.0  0.78585  0.32830  0.40846  1.0000
  C   C3657     1.0  0.62020  0.33294  0.42392  1.0000
  C   C3658     1.0  0.95342  0.26726  0.39821  1.0000
  C   C3659     1.0  0.51841  0.33308  0.53302  1.0000
  C   C3660     1.0  0.62868  0.34213  0.44379  1.0000
  H   H2909     1.0  0.64984  0.47421  0.44504  1.0000
  H   H2910     1.0  0.84935  0.34839  0.45933  1.0000
  C   C3661     1.0  0.66825  0.41743  0.52194  1.0000
  C   C3662     1.0  0.62003  0.38465  0.38581  1.0000
  C   C3663     1.0  0.62603  0.45463  0.47057  1.0000
  H   H2911     1.0  0.63585  0.42203  0.53328  1.0000
  C   C3664     1.0  0.86200  0.11121  0.40056  1.0000
  H   H2912     1.0  0.66289  0.44712  0.48734  1.0000
  C   C3665     1.0  0.83327  0.33379  0.45767  1.0000
  H   H2913     1.0  0.66637  0.40515  0.52814  1.0000
  C   C3666     1.0  0.75141  0.42790  0.44672  1.0000
  C   C3667     1.0  0.81178  0.35312  0.49487  1.0000
  C   C3668     1.0  0.62730  0.39511  0.41128  1.0000
  H   H2914     1.0  0.74007  0.37182  0.38652  1.0000
  H   H2915     1.0  0.52415  0.17006  0.51386  1.0000
  H   H2916     1.0  0.77191  0.37473  0.50234  1.0000
  S   S497      1.0  0.50239  0.24622  0.55510  1.0000
  C   C3669     1.0  0.68215  0.36510  0.39653  1.0000
  H   H2917     1.0  0.95371  0.24535  0.41756  1.0000
  C   C3670     1.0  0.84424  0.32215  0.48985  1.0000
  C   C3671     1.0  0.84092  0.32132  0.50687  1.0000
  C   C3672     1.0  0.82730  0.27939  0.47779  1.0000
  H   H2918     1.0  0.63133  0.34006  0.45585  1.0000
  C   C3673     1.0  0.80397  0.43352  0.57054  1.0000
  C   C3674     1.0  0.63388  0.44476  0.48323  1.0000
  C   C3675     1.0  0.60383  0.38226  0.38931  1.0000
  C   C3676     1.0  0.80487  0.40433  0.42269  1.0000
  C   C3677     1.0  0.81195  0.38755  0.42719  1.0000
  C   C3678     1.0  0.80374  0.37757  0.44081  1.0000
  C   C3679     1.0  0.78843  0.38429  0.44989  1.0000
  C   C3680     1.0  0.78130  0.40114  0.44560  1.0000
  C   C3681     1.0  0.78967  0.41115  0.43194  1.0000
  P   P124      1.0  0.76292  0.41022  0.45894  1.0000
  C   C3682     1.0  0.75005  0.39539  0.46919  1.0000
  C   C3683     1.0  0.74241  0.39396  0.48598  1.0000
  C   C3684     1.0  0.73201  0.38285  0.49363  1.0000
  C   C3685     1.0  0.72914  0.37312  0.48464  1.0000
  C   C3686     1.0  0.73661  0.37452  0.46794  1.0000
  C   C3687     1.0  0.74719  0.38545  0.46028  1.0000
  C   C3688     1.0  0.73858  0.42631  0.44049  1.0000
  H   H2919     1.0  0.81117  0.41207  0.41206  1.0000
  H   H2920     1.0  0.82367  0.38222  0.42001  1.0000
  H   H2921     1.0  0.78577  0.34151  0.54377  1.0000
  H   H2922     1.0  0.78221  0.37629  0.46025  1.0000
  H   H2923     1.0  0.78454  0.42421  0.42845  1.0000
  H   H2924     1.0  0.79182  0.39732  0.47440  1.0000
  H   H2925     1.0  0.74415  0.40157  0.49320  1.0000
  H   H2926     1.0  0.72596  0.38192  0.50651  1.0000
  H   H2927     1.0  0.72113  0.36448  0.49064  1.0000
  H   H2928     1.0  0.73419  0.36709  0.46096  1.0000
  H   H2929     1.0  0.75291  0.38641  0.44732  1.0000
  H   H2930     1.0  0.73512  0.41462  0.44291  1.0000
  C   C3689     1.0  0.75849  0.25779  0.41240  1.0000
  C   C3690     1.0  0.75221  0.26882  0.42297  1.0000
  C   C3691     1.0  0.76262  0.27735  0.42551  1.0000
  C   C3692     1.0  0.77927  0.27497  0.41741  1.0000
  C   C3693     1.0  0.78561  0.26416  0.40651  1.0000
  C   C3694     1.0  0.51762  0.35651  0.57529  1.0000
  H   H2931     1.0  0.51238  0.39809  0.57060  1.0000
  C   C3695     1.0  0.77517  0.25538  0.40425  1.0000
  C   C3696     1.0  0.81785  0.24354  0.41195  1.0000
  C   C3697     1.0  0.83454  0.23611  0.40688  1.0000
  C   C3698     1.0  0.84227  0.22244  0.41727  1.0000
  C   C3699     1.0  0.83336  0.21592  0.43271  1.0000
  C   C3700     1.0  0.81667  0.22306  0.43778  1.0000
  C   C3701     1.0  0.80896  0.23690  0.42753  1.0000
  C   C3702     1.0  0.83028  0.27896  0.39447  1.0000
  C   C3703     1.0  0.58772  0.24897  0.57273  1.0000
  H   H2932     1.0  0.75050  0.25087  0.41078  1.0000
  H   H2933     1.0  0.72858  0.47226  0.56064  1.0000
  C   C3704     1.0  0.98018  0.14460  0.41279  1.0000
  H   H2934     1.0  0.51356  0.19323  0.56128  1.0000
  H   H2935     1.0  0.54460  0.18001  0.56911  1.0000
  C   C3705     1.0  0.65256  0.22726  0.53944  1.0000
  H   H2936     1.0  0.80760  0.45146  0.54767  1.0000
  C   C3706     1.0  0.52895  0.13846  0.54707  1.0000
  C   C3707     1.0  0.53072  0.21618  0.58213  1.0000
  H   H2937     1.0  0.69503  0.32157  0.41306  1.0000
  H   H2938     1.0  0.73939  0.27048  0.42957  1.0000
  H   H2939     1.0  0.75795  0.28535  0.43426  1.0000
  H   H2940     1.0  0.78733  0.28110  0.42017  1.0000
  C   C3708     1.0  0.53113  0.14715  0.53065  1.0000
  H   H2941     1.0  0.84158  0.24075  0.39479  1.0000
  H   H2942     1.0  0.85518  0.21684  0.41325  1.0000
  H   H2943     1.0  0.83944  0.20543  0.44079  1.0000
  H   H2944     1.0  0.80982  0.21825  0.44990  1.0000
  H   H2945     1.0  0.79616  0.24245  0.43200  1.0000
  H   H2946     1.0  0.83807  0.26787  0.40003  1.0000
  C   C3709     1.0  0.53500  0.35237  0.57166  1.0000
  H   H2947     1.0  0.79931  0.37327  0.50719  1.0000
  H   H2948     1.0  0.80537  0.42370  0.56438  1.0000
  H   H2949     1.0  0.61871  0.25563  0.55211  1.0000
  H   H2950     1.0  0.60031  0.39449  0.51821  1.0000
  H   H2951     1.0  0.76714  0.40148  0.56543  1.0000
  H   H2952     1.0  0.51620  0.13940  0.57218  1.0000
  C   C3710     1.0  0.95090  0.22556  0.38658  1.0000
  H   H2953     1.0  0.56402  0.25395  0.56630  1.0000
  C   C3711     1.0  0.96636  0.10132  0.40115  1.0000
  H   H2954     1.0  0.82827  0.32355  0.51388  1.0000
  H   H2955     1.0  0.86354  0.31734  0.46847  1.0000
  C   C3712     1.0  0.97831  0.24961  0.40648  1.0000
  C   C3713     1.0  0.96137  0.13108  0.39783  1.0000
  C   C3714     1.0  0.96574  0.11503  0.40714  1.0000
  P   P125      1.0  0.96146  0.14869  0.40529  1.0000
  Fe  Fe249     1.0  0.50849  0.26694  0.56169  1.0000
  S   S498      1.0  0.74550  0.43780  0.56856  1.0000
  H   H2956     1.0  0.74678  0.30203  0.39482  1.0000
  C   C3715     1.0  0.80991  0.34168  0.48700  1.0000
  C   C3716     1.0  0.58772  0.23476  0.54489  1.0000
  C   C3717     1.0  0.62764  0.35965  0.41660  1.0000
  C   C3718     1.0  0.51577  0.23235  0.50095  1.0000
  H   H2957     1.0  0.75552  0.44344  0.49977  1.0000
  H   H2958     1.0  0.55755  0.36120  0.56476  1.0000
  C   C3719     1.0  0.53757  0.20542  0.57130  1.0000
  C   C3720     1.0  0.66502  0.39627  0.49572  1.0000
  H   H2959     1.0  0.78748  0.31621  0.53466  1.0000
  C   C3721     1.0  0.94353  0.15293  0.42159  1.0000
  C   C3722     1.0  0.93463  0.14071  0.43065  1.0000
  C   C3723     1.0  0.92073  0.14425  0.44315  1.0000
  C   C3724     1.0  0.91560  0.16001  0.44664  1.0000
  C   C3725     1.0  0.92439  0.17221  0.43770  1.0000
  C   C3726     1.0  0.93832  0.16867  0.42531  1.0000
  H   H2960     1.0  0.61441  0.45439  0.38533  1.0000
  C   C3727     1.0  0.57721  0.25261  0.52117  1.0000
  H   H2961     1.0  0.85735  0.35851  0.42921  1.0000
  H   H2962     1.0  0.63353  0.29187  0.55120  1.0000
  H   H2963     1.0  0.96907  0.11315  0.41885  1.0000
  H   H2964     1.0  0.79953  0.40503  0.49627  1.0000
  H   H2965     1.0  0.89803  0.12375  0.39300  1.0000
  H   H2966     1.0  0.84031  0.29821  0.46319  1.0000
  P   P126      1.0  0.59677  0.23208  0.56225  1.0000
  H   H2967     1.0  0.66118  0.37546  0.41357  1.0000
  H   H2968     1.0  0.65617  0.36998  0.54939  1.0000
  C   C3728     1.0  0.64326  0.42235  0.46881  1.0000
  H   H2969     1.0  0.82373  0.35293  0.49679  1.0000
  H   H2970     1.0  0.63858  0.43133  0.40644  1.0000
  H   H2971     1.0  0.53550  0.12575  0.55017  1.0000
  H   H2972     1.0  0.93831  0.12848  0.42812  1.0000
  H   H2973     1.0  0.91392  0.13478  0.45012  1.0000
  H   H2974     1.0  0.90480  0.16281  0.45624  1.0000
  H   H2975     1.0  0.92041  0.18454  0.44021  1.0000
  H   H2976     1.0  0.94488  0.17836  0.41849  1.0000
  C   C3729     1.0  0.86070  0.31789  0.48135  1.0000
  H   H2977     1.0  0.68013  0.41909  0.54016  1.0000
  C   C3730     1.0  0.65627  0.46415  0.42340  1.0000
  H   H2978     1.0  0.52840  0.33469  0.52228  1.0000
  C   C3731     1.0  0.54412  0.36458  0.56766  1.0000
  H   H2979     1.0  0.76863  0.35523  0.48762  1.0000
  C   C3732     1.0  0.63095  0.35671  0.43231  1.0000
  C   C3733     1.0  0.74639  0.45720  0.43391  1.0000
  C   C3734     1.0  0.59890  0.28682  0.54334  1.0000
  C   C3735     1.0  0.62560  0.28985  0.54444  1.0000
  C   C3736     1.0  0.50594  0.33502  0.56152  1.0000
  C   C3737     1.0  0.63153  0.28895  0.52785  1.0000
  C   C3738     1.0  0.62107  0.28710  0.51884  1.0000
  C   C3739     1.0  0.60467  0.28614  0.52671  1.0000
  P   P127      1.0  0.62775  0.28739  0.49706  1.0000
  C   C3740     1.0  0.61379  0.30488  0.48754  1.0000
  C   C3741     1.0  0.64919  0.28893  0.48947  1.0000
  C   C3742     1.0  0.65393  0.30191  0.47657  1.0000
  C   C3743     1.0  0.67058  0.30291  0.47117  1.0000
  C   C3744     1.0  0.68263  0.29084  0.47834  1.0000
  C   C3745     1.0  0.67809  0.27774  0.49093  1.0000
  C   C3746     1.0  0.66146  0.27667  0.49636  1.0000
  C   C3747     1.0  0.61436  0.32089  0.48782  1.0000
  C   C3748     1.0  0.60268  0.33451  0.48195  1.0000
  C   C3749     1.0  0.59034  0.33226  0.47565  1.0000
  C   C3750     1.0  0.58961  0.31635  0.47535  1.0000
  C   C3751     1.0  0.60117  0.30267  0.48144  1.0000
  C   C3752     1.0  0.62642  0.26847  0.49285  1.0000
  C   C3753     1.0  0.63048  0.26662  0.47648  1.0000
  C   C3754     1.0  0.62938  0.25213  0.47292  1.0000
  C   C3755     1.0  0.62435  0.23934  0.48570  1.0000
  C   C3756     1.0  0.62053  0.24099  0.50205  1.0000
  C   C3757     1.0  0.62163  0.25546  0.50563  1.0000
  H   H2980     1.0  0.58618  0.28630  0.54928  1.0000
  C   C3758     1.0  0.61386  0.41261  0.54087  1.0000
  H   H2981     1.0  0.67573  0.35599  0.51542  1.0000
  H   H2982     1.0  0.64400  0.29049  0.52204  1.0000
  H   H2983     1.0  0.59619  0.28532  0.51987  1.0000
  H   H2984     1.0  0.64495  0.31136  0.47068  1.0000
  H   H2985     1.0  0.67418  0.31327  0.46169  1.0000
  H   H2986     1.0  0.69548  0.29187  0.47438  1.0000
  H   H2987     1.0  0.68746  0.26865  0.49672  1.0000
  H   H2988     1.0  0.65813  0.26651  0.50624  1.0000
  H   H2989     1.0  0.62377  0.32282  0.49277  1.0000
  H   H2990     1.0  0.60309  0.34682  0.48252  1.0000
  H   H2991     1.0  0.58115  0.34283  0.47135  1.0000
  H   H2992     1.0  0.57968  0.31456  0.47101  1.0000
  H   H2993     1.0  0.59986  0.29044  0.48183  1.0000
  H   H2994     1.0  0.63442  0.27645  0.46648  1.0000
  H   H2995     1.0  0.63244  0.25081  0.46025  1.0000
  H   H2996     1.0  0.62345  0.22813  0.48294  1.0000
  H   H2997     1.0  0.61665  0.23108  0.51197  1.0000
  H   H2998     1.0  0.61872  0.25638  0.51836  1.0000
  C   C3759     1.0  0.81085  0.30146  0.49851  1.0000
  C   C3760     1.0  0.96250  0.10353  0.38589  1.0000
  H   H2999     1.0  0.79279  0.29395  0.38378  1.0000
  P   P128      1.0  0.82739  0.32631  0.47963  1.0000
  C   C3761     1.0  0.82592  0.32996  0.44695  1.0000
  H   H3000     1.0  0.80894  0.36448  0.44418  1.0000
  C   C3762     1.0  0.80739  0.28574  0.50230  1.0000
  C   C3763     1.0  0.67599  0.42533  0.52883  1.0000
  C   C3764     1.0  0.84180  0.34600  0.42353  1.0000
  H   H3001     1.0  0.79804  0.28227  0.51312  1.0000
  S   S499      1.0  0.76317  0.37245  0.54189  1.0000
  C   C3765     1.0  0.62322  0.33027  0.43965  1.0000
  H   H3002     1.0  0.61916  0.46704  0.47142  1.0000
  H   H3003     1.0  0.60442  0.29076  0.56463  1.0000
  C   C3766     1.0  0.50965  0.16251  0.55549  1.0000
  C   C3767     1.0  0.96294  0.27742  0.38616  1.0000
  C   C3768     1.0  0.62844  0.21510  0.55014  1.0000
  H   H3004     1.0  0.52856  0.34292  0.54723  1.0000
  C   C3769     1.0  0.81543  0.27480  0.49183  1.0000
  H   H3005     1.0  0.80422  0.30987  0.50661  1.0000
  C   C3770     1.0  0.62288  0.40325  0.51057  1.0000
  C   C3771     1.0  0.62601  0.24379  0.54992  1.0000
  H   H3006     1.0  0.76548  0.31750  0.41060  1.0000
  H   H3007     1.0  0.66567  0.22614  0.53400  1.0000
  C   C3772     1.0  0.63161  0.42170  0.41151  1.0000
  H   H3008     1.0  0.55382  0.20847  0.50450  1.0000
  H   H3009     1.0  0.63264  0.44953  0.49398  1.0000
  C   C3773     1.0  0.77186  0.32735  0.40383  1.0000
  H   H3010     1.0  0.65972  0.45159  0.43006  1.0000
  C   C3774     1.0  0.96163  0.16642  0.38831  1.0000
  C   C3775     1.0  0.80544  0.44923  0.56097  1.0000
  C   C3776     1.0  0.94676  0.17746  0.38552  1.0000
  C   C3777     1.0  0.66393  0.39458  0.57034  1.0000
  C   C3778     1.0  0.97869  0.20299  0.39608  1.0000
  H   H3011     1.0  0.66037  0.47166  0.57988  1.0000
  H   H3012     1.0  0.77993  0.24649  0.39644  1.0000
  C   C3779     1.0  0.53597  0.38104  0.56731  1.0000
  H   H3013     1.0  0.76540  0.45647  0.57441  1.0000
  C   C3780     1.0  0.69698  0.47866  0.54135  1.0000
  C   C3781     1.0  0.98807  0.25934  0.39386  1.0000
  P   P129      1.0  0.50606  0.34055  0.58023  1.0000
  H   H3014     1.0  0.64661  0.40674  0.39436  1.0000
  H   H3015     1.0  0.93498  0.17554  0.39336  1.0000
  C   C3782     1.0  0.51867  0.38530  0.57091  1.0000
  H   H3016     1.0  0.70033  0.47554  0.51659  1.0000
  H   H3017     1.0  0.68801  0.47615  0.38536  1.0000
  H   H3018     1.0  0.49612  0.37663  0.57751  1.0000
  H   H3019     1.0  0.50106  0.16804  0.56524  1.0000
  H   H3020     1.0  0.71938  0.32340  0.38987  1.0000
  H   H3021     1.0  0.91438  0.09495  0.38346  1.0000
  C   C3783     1.0  0.49347  0.32757  0.56116  1.0000
  H   H3022     1.0  0.84806  0.29362  0.39109  1.0000
  H   H3023     1.0  0.78106  0.37208  0.56654  1.0000
  C   C3784     1.0  0.80487  0.29370  0.38546  1.0000
  C   C3785     1.0  0.59239  0.21414  0.57784  1.0000
  C   C3786     1.0  0.64794  0.39849  0.57984  1.0000
  H   H3024     1.0  0.77529  0.41801  0.57986  1.0000
  C   C3787     1.0  0.57704  0.20983  0.58105  1.0000
  C   C3788     1.0  0.56432  0.27077  0.58033  1.0000
  C   C3789     1.0  0.78167  0.40525  0.58029  1.0000
  H   H3025     1.0  0.55183  0.27758  0.57963  1.0000
  C   C3790     1.0  0.59657  0.25314  0.58189  1.0000
  H   H3026     1.0  0.94031  0.23437  0.38287  1.0000
  H   H3027     1.0  0.93874  0.07201  0.38382  1.0000
  H   H3028     1.0  0.85215  0.10645  0.38235  1.0000
  C   C3791     1.0  0.82626  0.30827  0.38234  1.0000
  C   C3792     1.0  0.95728  0.13319  0.38261  1.0000
  H   H3029     1.0  0.80330  0.35918  0.58222  1.0000
  Fe  Fe250     1.0  0.88918  0.40006  0.73505  1.0000
  S   S500      1.0  0.86652  0.40445  0.72514  1.0000
  S   S501      1.0  0.89100  0.37964  0.75772  1.0000
  Fe  Fe251     1.0  0.90113  0.42894  0.70955  1.0000
  S   S502      1.0  0.87936  0.43566  0.69779  1.0000
  S   S503      1.0  0.92233  0.44195  0.69985  1.0000
  Fe  Fe252     1.0  0.86468  0.43112  0.72373  1.0000
  S   S504      1.0  0.83925  0.44654  0.73034  1.0000
  Fe  Fe253     1.0  0.88316  0.40849  0.70028  1.0000
  S   S505      1.0  0.88166  0.39738  0.68027  1.0000
  S   S506      1.0  0.88617  0.42659  0.73551  1.0000
  S   S507      1.0  0.90619  0.40183  0.71011  1.0000
  Fe  Fe254     1.0  0.79788  0.44826  0.65731  1.0000
  S   S508      1.0  0.77057  0.45180  0.66747  1.0000
  S   S509      1.0  0.81273  0.42207  0.65920  1.0000
  H   H3030     1.0  0.58260  0.06838  0.71652  1.0000
  H   H3031     1.0  0.92970  0.33076  0.68830  1.0000
  H   H3032     1.0  0.52369  0.28061  0.60123  1.0000
  Fe  Fe255     1.0  0.76779  0.46576  0.64190  1.0000
  S   S510      1.0  0.74776  0.45917  0.63335  1.0000
  H   H3033     1.0  0.53850  0.31185  0.62314  1.0000
  S   S511      1.0  0.79514  0.46127  0.63158  1.0000
  Fe  Fe256     1.0  0.53337  0.05422  0.71725  1.0000
  S   S512      1.0  0.55834  0.04470  0.70250  1.0000
  S   S513      1.0  0.52259  0.08171  0.71236  1.0000
  Fe  Fe257     1.0  0.53223  0.02039  0.74007  1.0000
  S   S514      1.0  0.55714  0.00858  0.72705  1.0000
  S   S515      1.0  0.51900  0.00488  0.76258  1.0000
  Fe  Fe258     1.0  0.56454  0.03151  0.72689  1.0000
  S   S516      1.0  0.58930  0.03072  0.73102  1.0000
  Fe  Fe259     1.0  0.54828  0.02294  0.70413  1.0000
  S   S517      1.0  0.55309  0.01102  0.68275  1.0000
  S   S518      1.0  0.54033  0.04238  0.74174  1.0000
  S   S519      1.0  0.52262  0.03329  0.71706  1.0000
  C   C3793     1.0  0.54666  0.22959  0.61482  1.0000
  H   H3034     1.0  0.98314  0.28030  0.73572  1.0000
  C   C3794     1.0  0.81944  0.40067  0.60562  1.0000
  S   S520      1.0  0.52094  0.18537  0.62636  1.0000
  H   H3035     1.0  0.94518  0.46065  0.67772  1.0000
  H   H3036     1.0  0.98961  0.20316  0.72882  1.0000
  H   H3037     1.0  0.71101  0.47298  0.62564  1.0000
  C   C3795     1.0  0.81097  0.38242  0.71024  1.0000
  P   P130      1.0  0.89545  0.48721  0.73900  1.0000
  C   C3796     1.0  0.58803  0.06755  0.67619  1.0000
  H   H3038     1.0  0.85638  0.46504  0.77077  1.0000
  H   H3039     1.0  0.64552  0.40616  0.58862  1.0000
  C   C3797     1.0  0.58034  0.07171  0.70415  1.0000
  C   C3798     1.0  0.84511  0.39775  0.76718  1.0000
  C   C3799     1.0  0.98855  0.11908  0.76950  1.0000
  H   H3040     1.0  0.93210  0.33155  0.65895  1.0000
  C   C3800     1.0  0.53208  0.31037  0.61464  1.0000
  H   H3041     1.0  0.85032  0.42482  0.62059  1.0000
  C   C3801     1.0  0.50110  0.28208  0.65862  1.0000
  C   C3802     1.0  0.87766  0.47968  0.72081  1.0000
  H   H3042     1.0  0.72876  0.43908  0.62806  1.0000
  H   H3043     1.0  0.61798  0.05006  0.62185  1.0000
  C   C3803     1.0  0.97197  0.30557  0.73726  1.0000
  C   C3804     1.0  0.83593  0.37113  0.69208  1.0000
  H   H3044     1.0  0.59225  0.05386  0.64301  1.0000
  C   C3805     1.0  0.90172  0.46560  0.74817  1.0000
  H   H3045     1.0  0.53769  0.09704  0.64043  1.0000
  H   H3046     1.0  0.79227  0.45252  0.74198  1.0000
  C   C3806     1.0  0.49787  0.10746  0.66864  1.0000
  H   H3047     1.0  0.94649  0.40061  0.70374  1.0000
  H   H3048     1.0  0.53521  0.16897  0.59910  1.0000
  C   C3807     1.0  0.67664  0.01139  0.69667  1.0000
  C   C3808     1.0  0.69249  0.00204  0.69180  1.0000
  C   C3809     1.0  0.59077  0.02460  0.75179  1.0000
  C   C3810     1.0  0.60601  0.01603  0.75567  1.0000
  P   P131      1.0  0.81027  0.39778  0.73491  1.0000
  S   S521      1.0  0.75508  0.48440  0.69488  1.0000
  H   H3049     1.0  0.49592  0.04953  0.75861  1.0000
  C   C3811     1.0  0.57732  0.02907  0.76435  1.0000
  H   H3050     1.0  0.76497  0.40563  0.61159  1.0000
  C   C3812     1.0  0.95379  0.21232  0.75682  1.0000
  H   H3051     1.0  0.74473  0.40717  0.63764  1.0000
  H   H3052     1.0  0.56551  0.03571  0.76146  1.0000
  C   C3813     1.0  0.57450  0.00690  0.67476  1.0000
  C   C3814     1.0  0.58288  0.01984  0.66784  1.0000
  C   C3815     1.0  0.60009  0.01637  0.66175  1.0000
  C   C3816     1.0  0.60897  0.99998  0.66298  1.0000
  C   C3817     1.0  0.75752  0.45242  0.58615  1.0000
  H   H3053     1.0  0.57607  0.03249  0.66722  1.0000
  H   H3054     1.0  0.60657  0.02632  0.65640  1.0000
  H   H3055     1.0  0.75165  0.41463  0.66034  1.0000
  H   H3056     1.0  0.95364  0.34403  0.63745  1.0000
  H   H3057     1.0  0.79725  0.44166  0.60852  1.0000
  C   C3818     1.0  0.74824  0.45222  0.61552  1.0000
  C   C3819     1.0  0.53191  0.29458  0.61347  1.0000
  C   C3820     1.0  0.57334  0.19642  0.59372  1.0000
  C   C3821     1.0  0.90458  0.34296  0.73983  1.0000
  H   H3058     1.0  0.97756  0.23501  0.76275  1.0000
  C   C3822     1.0  0.75851  0.45705  0.60027  1.0000
  H   H3059     1.0  0.49851  0.20033  0.69977  1.0000
  S   S522      1.0  0.63052  0.99562  0.65544  1.0000
  C   C3823     1.0  0.86341  0.48023  0.71576  1.0000
  C   C3824     1.0  0.91095  0.36799  0.75952  1.0000
  H   H3060     1.0  0.86407  0.47322  0.70685  1.0000
  C   C3825     1.0  0.98515  0.21977  0.74493  1.0000
  C   C3826     1.0  0.51143  0.99802  0.70589  1.0000
  C   C3827     1.0  0.94082  0.36293  0.75020  1.0000
  C   C3828     1.0  0.92505  0.37249  0.74846  1.0000
  C   C3829     1.0  0.54178  0.10695  0.64251  1.0000
  C   C3830     1.0  0.85350  0.45958  0.67058  1.0000
  H   H3061     1.0  0.92381  0.38339  0.73868  1.0000
  C   C3831     1.0  0.86263  0.40514  0.67417  1.0000
  C   C3832     1.0  0.85954  0.39871  0.66239  1.0000
  C   C3833     1.0  0.84417  0.40410  0.65791  1.0000
  C   C3834     1.0  0.83201  0.41637  0.66473  1.0000
  C   C3835     1.0  0.83514  0.42305  0.67632  1.0000
  C   C3836     1.0  0.85036  0.41715  0.68131  1.0000
  H   H3062     1.0  0.86892  0.38932  0.65696  1.0000
  H   H3063     1.0  0.84171  0.39883  0.64905  1.0000
  H   H3064     1.0  0.82568  0.43238  0.68173  1.0000
  H   H3065     1.0  0.85259  0.42183  0.69071  1.0000
  C   C3837     1.0  0.83608  0.45640  0.74650  1.0000
  H   H3066     1.0  0.96021  0.30992  0.69581  1.0000
  C   C3838     1.0  0.82034  0.46566  0.75174  1.0000
  C   C3839     1.0  0.84892  0.39939  0.60079  1.0000
  H   H3067     1.0  0.81035  0.46639  0.74608  1.0000
  C   C3840     1.0  0.90331  0.46949  0.68303  1.0000
  C   C3841     1.0  0.91914  0.46085  0.68542  1.0000
  C   C3842     1.0  0.93292  0.46724  0.67598  1.0000
  H   H3068     1.0  0.53809  0.25171  0.59773  1.0000
  H   H3069     1.0  0.89263  0.46458  0.69007  1.0000
  C   C3843     1.0  0.66930  0.46085  0.58414  1.0000
  H   H3070     1.0  0.60876  0.18486  0.60812  1.0000
  Fe  Fe260     1.0  0.79514  0.48403  0.63962  1.0000
  H   H3071     1.0  0.53329  0.03600  0.65348  1.0000
  C   C3844     1.0  0.74632  0.44282  0.58704  1.0000
  H   H3072     1.0  0.59656  0.27002  0.59629  1.0000
  H   H3073     1.0  0.85735  0.44787  0.66685  1.0000
  H   H3074     1.0  0.50895  0.29095  0.65331  1.0000
  H   H3075     1.0  0.98358  0.10576  0.75410  1.0000
  S   S523      1.0  0.80021  0.47062  0.66456  1.0000
  C   C3845     1.0  0.89317  0.45889  0.76386  1.0000
  H   H3076     1.0  0.49910  0.07550  0.60517  1.0000
  H   H3077     1.0  0.97546  0.28319  0.70920  1.0000
  H   H3078     1.0  0.86158  0.38215  0.61903  1.0000
  C   C3846     1.0  0.50064  0.09021  0.67390  1.0000
  C   C3847     1.0  0.57349  0.27548  0.58864  1.0000
  P   P132      1.0  0.87167  0.47223  0.63990  1.0000
  H   H3079     1.0  0.91972  0.45957  0.72635  1.0000
  C   C3848     1.0  0.69226  0.43215  0.59392  1.0000
  Fe  Fe261     1.0  0.49845  0.17536  0.63017  1.0000
  H   H3080     1.0  0.58177  0.17705  0.61327  1.0000
  C   C3849     1.0  0.51064  0.10854  0.69001  1.0000
  C   C3850     1.0  0.84311  0.46052  0.68599  1.0000
  H   H3081     1.0  0.56823  0.28617  0.59416  1.0000
  S   S524      1.0  0.95375  0.29208  0.78076  1.0000
  C   C3851     1.0  0.78285  0.44871  0.75252  1.0000
  C   C3852     1.0  0.79431  0.39814  0.58911  1.0000
  C   C3853     1.0  0.50296  0.11661  0.67667  1.0000
  H   H3082     1.0  0.96236  0.15543  0.70146  1.0000
  H   H3083     1.0  0.85512  0.37236  0.76560  1.0000
  H   H3084     1.0  0.59653  0.06097  0.66720  1.0000
  C   C3854     1.0  0.84582  0.38333  0.76237  1.0000
  C   C3855     1.0  0.64897  0.02213  0.74618  1.0000
  C   C3856     1.0  0.58478  0.18737  0.60340  1.0000
  C   C3857     1.0  0.98714  0.13994  0.73628  1.0000
  H   H3085     1.0  0.95171  0.36653  0.74175  1.0000
  H   H3086     1.0  0.74355  0.44304  0.76172  1.0000
  C   C3858     1.0  0.96981  0.38478  0.70801  1.0000
  C   C3859     1.0  0.55097  0.13306  0.64857  1.0000
  H   H3087     1.0  0.61358  0.10264  0.60728  1.0000
  C   C3860     1.0  0.83506  0.38330  0.75282  1.0000
  C   C3861     1.0  0.50308  0.26904  0.65107  1.0000
  C   C3862     1.0  0.97202  0.29370  0.71493  1.0000
  H   H3088     1.0  0.50196  0.12228  0.61139  1.0000
  H   H3089     1.0  0.88040  0.42369  0.61595  1.0000
  H   H3090     1.0  0.73392  0.47981  0.72616  1.0000
  H   H3091     1.0  0.50092  0.12989  0.67268  1.0000
  C   C3863     1.0  0.53201  0.12291  0.63973  1.0000
  C   C3864     1.0  0.95674  0.35895  0.70628  1.0000
  C   C3865     1.0  0.93913  0.33630  0.67904  1.0000
  H   H3092     1.0  0.72773  0.43012  0.60342  1.0000
  H   H3093     1.0  0.65949  0.00556  0.72973  1.0000
  H   H3094     1.0  0.55097  0.09484  0.68285  1.0000
  C   C3866     1.0  0.98623  0.17220  0.77506  1.0000
  H   H3095     1.0  0.81164  0.37552  0.59675  1.0000
  H   H3096     1.0  0.97291  0.35568  0.64543  1.0000
  C   C3867     1.0  0.85450  0.43415  0.62364  1.0000
  C   C3868     1.0  0.61139  0.06243  0.62332  1.0000
  C   C3869     1.0  0.96096  0.14762  0.72764  1.0000
  C   C3870     1.0  0.63880  0.03481  0.68438  1.0000
  C   C3871     1.0  0.81754  0.47442  0.76398  1.0000
  H   H3097     1.0  0.52025  0.00330  0.69555  1.0000
  H   H3098     1.0  0.95981  0.33105  0.73575  1.0000
  C   C3872     1.0  0.95890  0.32258  0.71479  1.0000
  C   C3873     1.0  0.52736  0.19294  0.60519  1.0000
  C   C3874     1.0  0.78013  0.36608  0.76226  1.0000
  H   H3099     1.0  0.70127  0.42092  0.59717  1.0000
  P   P133      1.0  0.94810  0.34250  0.70508  1.0000
  H   H3100     1.0  0.77948  0.41969  0.65704  1.0000
  H   H3101     1.0  0.49688  0.02155  0.71004  1.0000
  C   C3875     1.0  0.49471  0.11412  0.61073  1.0000
  C   C3876     1.0  0.82060  0.38814  0.61989  1.0000
  H   H3102     1.0  0.52065  0.12506  0.63562  1.0000
  H   H3103     1.0  0.61540  0.20863  0.58592  1.0000
  H   H3104     1.0  0.51016  0.06891  0.69146  1.0000
  H   H3105     1.0  0.77979  0.35330  0.76364  1.0000
  C   C3877     1.0  0.83376  0.40612  0.59600  1.0000
  H   H3106     1.0  0.96180  0.19653  0.73935  1.0000
  H   H3107     1.0  0.88903  0.36987  0.70797  1.0000
  C   C3878     1.0  0.54564  0.06345  0.66666  1.0000
  C   C3879     1.0  0.59414  0.09428  0.62700  1.0000
  H   H3108     1.0  0.52887  0.14831  0.64071  1.0000
  H   H3109     1.0  0.80297  0.36461  0.74415  1.0000
  H   H3110     1.0  0.58762  0.10671  0.62808  1.0000
  H   H3111     1.0  0.55105  0.20743  0.63349  1.0000
  C   C3880     1.0  0.55029  0.05134  0.63847  1.0000
  H   H3112     1.0  0.49674  0.08308  0.66771  1.0000
  H   H3113     1.0  0.65645  0.01491  0.75502  1.0000
  H   H3114     1.0  0.61628  0.01212  0.74611  1.0000
  C   C3881     1.0  0.77990  0.43667  0.71091  1.0000
  C   C3882     1.0  0.78894  0.44901  0.70589  1.0000
  C   C3883     1.0  0.80448  0.44583  0.70948  1.0000
  C   C3884     1.0  0.81115  0.43020  0.71801  1.0000
  C   C3885     1.0  0.80172  0.41804  0.72406  1.0000
  C   C3886     1.0  0.78621  0.42123  0.72006  1.0000
  C   C3887     1.0  0.79360  0.38915  0.74915  1.0000
  C   C3888     1.0  0.49825  0.00834  0.71429  1.0000
  C   C3889     1.0  0.70472  0.48403  0.58638  1.0000
  C   C3890     1.0  0.78108  0.39903  0.75878  1.0000
  C   C3891     1.0  0.82375  0.39783  0.74770  1.0000
  C   C3892     1.0  0.84989  0.38716  0.61518  1.0000
  H   H3115     1.0  0.76677  0.46487  0.59927  1.0000
  H   H3116     1.0  0.65183  0.44499  0.59145  1.0000
  H   H3117     1.0  0.76795  0.43921  0.70776  1.0000
  H   H3118     1.0  0.78399  0.46103  0.69906  1.0000
  H   H3119     1.0  0.81136  0.45550  0.70553  1.0000
  H   H3120     1.0  0.77904  0.41179  0.72379  1.0000
  H   H3121     1.0  0.65417  0.98854  0.68870  1.0000
  H   H3122     1.0  0.56301  0.99605  0.63147  1.0000
  H   H3123     1.0  0.78140  0.41178  0.75763  1.0000
  H   H3124     1.0  0.81365  0.42326  0.75007  1.0000
  C   C3893     1.0  0.83332  0.41201  0.76287  1.0000
  C   C3894     1.0  0.96333  0.30891  0.70739  1.0000
  C   C3895     1.0  0.89297  0.35395  0.73120  1.0000
  H   H3125     1.0  0.90076  0.33786  0.75286  1.0000
  H   H3126     1.0  0.88022  0.35735  0.73756  1.0000
  C   C3896     1.0  0.55632  0.10391  0.64829  1.0000
  H   H3127     1.0  0.58954  0.00059  0.63362  1.0000
  C   C3897     1.0  0.80130  0.45919  0.58569  1.0000
  H   H3128     1.0  0.97536  0.15237  0.77603  1.0000
  H   H3129     1.0  0.97067  0.35507  0.67463  1.0000
  H   H3130     1.0  0.85987  0.40380  0.59343  1.0000
  H   H3131     1.0  0.60208  0.05467  0.69489  1.0000
  H   H3132     1.0  0.71006  0.44752  0.58555  1.0000
  H   H3133     1.0  0.80972  0.38375  0.62751  1.0000
  H   H3134     1.0  0.82983  0.44704  0.63263  1.0000
  C   C3898     1.0  0.97390  0.22689  0.75748  1.0000
  C   C3899     1.0  0.75538  0.44331  0.76366  1.0000
  C   C3900     1.0  0.49648  0.21831  0.67706  1.0000
  C   C3901     1.0  0.54234  0.21875  0.62983  1.0000
  P   P134      1.0  0.79953  0.41022  0.60032  1.0000
  C   C3902     1.0  0.53659  0.13597  0.64272  1.0000
  C   C3903     1.0  0.53509  0.24371  0.60970  1.0000
  C   C3904     1.0  0.95264  0.34367  0.65032  1.0000
  C   C3905     1.0  0.50833  0.08216  0.68725  1.0000
  C   C3906     1.0  0.58951  0.26646  0.58969  1.0000
  C   C3907     1.0  0.75797  0.44004  0.77963  1.0000
  C   C3908     1.0  0.60888  0.09203  0.61513  1.0000
  C   C3909     1.0  0.50249  0.09836  0.60790  1.0000
  H   H3135     1.0  0.63678  0.01813  0.67071  1.0000
  C   C3910     1.0  0.70295  0.47629  0.60315  1.0000
  C   C3911     1.0  0.52382  0.29276  0.60231  1.0000
  C   C3912     1.0  0.93723  0.25373  0.77503  1.0000
  H   H3136     1.0  0.55878  0.22683  0.60696  1.0000
  S   S525      1.0  0.50014  0.27426  0.58604  1.0000
  C   C3913     1.0  0.57361  0.07895  0.67255  1.0000
  C   C3914     1.0  0.84896  0.45565  0.75384  1.0000
  C   C3915     1.0  0.59135  0.06398  0.69191  1.0000
  H   H3137     1.0  0.52442  0.33646  0.60571  1.0000
  C   C3916     1.0  0.98076  0.20890  0.73833  1.0000
  C   C3917     1.0  0.83576  0.38149  0.62468  1.0000
  H   H3138     1.0  0.76555  0.45089  0.73781  1.0000
  C   C3918     1.0  0.92384  0.28763  0.76532  1.0000
  H   H3139     1.0  0.83945  0.44953  0.69413  1.0000
  C   C3919     1.0  0.76781  0.44768  0.75013  1.0000
  C   C3920     1.0  0.98644  0.14943  0.70722  1.0000
  C   C3921     1.0  0.51612  0.32254  0.59328  1.0000
  C   C3922     1.0  0.84812  0.45851  0.63493  1.0000
  H   H3140     1.0  0.50999  0.30483  0.58359  1.0000
  C   C3923     1.0  0.76851  0.40847  0.62139  1.0000
  C   C3924     1.0  0.80207  0.38142  0.58983  1.0000
  C   C3925     1.0  0.52655  0.22217  0.63987  1.0000
  C   C3926     1.0  0.77303  0.44119  0.78215  1.0000
  H   H3141     1.0  0.91821  0.36344  0.69382  1.0000
  C   C3927     1.0  0.51335  0.09132  0.69532  1.0000
  C   C3928     1.0  0.89797  0.36108  0.71458  1.0000
  H   H3142     1.0  0.92649  0.42988  0.73811  1.0000
  C   C3929     1.0  0.63708  0.03617  0.74961  1.0000
  C   C3930     1.0  0.86508  0.45774  0.63276  1.0000
  H   H3143     1.0  0.82937  0.47617  0.70288  1.0000
  H   H3144     1.0  0.83325  0.41571  0.58492  1.0000
  C   C3931     1.0  0.94405  0.26290  0.75970  1.0000
  C   C3932     1.0  0.53407  0.18212  0.59439  1.0000
  C   C3933     1.0  0.89699  0.44191  0.77045  1.0000
  H   H3145     1.0  0.97471  0.39473  0.70891  1.0000
  C   C3934     1.0  0.95391  0.38809  0.70514  1.0000
  C   C3935     1.0  0.52579  0.20992  0.59905  1.0000
  C   C3936     1.0  0.91753  0.43801  0.74554  1.0000
  H   H3146     1.0  0.60988  0.02268  0.69362  1.0000
  H   H3147     1.0  0.79759  0.38568  0.71347  1.0000
  H   H3148     1.0  0.64235  0.05433  0.69354  1.0000
  C   C3937     1.0  0.63432  0.04297  0.65642  1.0000
  C   C3938     1.0  0.90128  0.48457  0.67143  1.0000
  C   C3939     1.0  0.82048  0.38636  0.71891  1.0000
  H   H3149     1.0  0.75818  0.40037  0.77694  1.0000
  C   C3940     1.0  0.78807  0.41559  0.63235  1.0000
  C   C3941     1.0  0.77643  0.41646  0.64714  1.0000
  C   C3942     1.0  0.93096  0.48192  0.66397  1.0000
  P   P135      1.0  0.64222  0.01859  0.70221  1.0000
  C   C3943     1.0  0.64072  0.02591  0.72037  1.0000
  C   C3944     1.0  0.78549  0.44548  0.76848  1.0000
  C   C3945     1.0  0.62848  0.03972  0.72417  1.0000
  C   C3946     1.0  0.62721  0.00582  0.70801  1.0000
  C   C3947     1.0  0.61284  0.01073  0.70161  1.0000
  C   C3948     1.0  0.60178  0.00028  0.70586  1.0000
  C   C3949     1.0  0.74468  0.48291  0.72770  1.0000
  H   H3150     1.0  0.51041  0.25802  0.61556  1.0000
  C   C3950     1.0  0.97447  0.09621  0.77974  1.0000
  C   C3951     1.0  0.69719  0.44720  0.58741  1.0000
  H   H3151     1.0  0.61970  0.04599  0.71638  1.0000
  H   H3152     1.0  0.67529  0.02236  0.70113  1.0000
  H   H3153     1.0  0.59071  0.00413  0.70095  1.0000
  C   C3952     1.0  0.80077  0.43063  0.58783  1.0000
  C   C3953     1.0  0.96985  0.14210  0.74018  1.0000
  H   H3154     1.0  0.88935  0.47232  0.71566  1.0000
  H   H3155     1.0  0.57174  0.11495  0.65621  1.0000
  H   H3156     1.0  0.98061  0.34348  0.70985  1.0000
  H   H3157     1.0  0.95450  0.25719  0.75138  1.0000
  H   H3158     1.0  0.86116  0.44868  0.74981  1.0000
  H   H3159     1.0  0.73455  0.48345  0.75326  1.0000
  C   C3954     1.0  0.79320  0.37256  0.75114  1.0000
  C   C3955     1.0  0.55891  0.06305  0.63815  1.0000
  H   H3160     1.0  0.63265  0.03956  0.64591  1.0000
  C   C3956     1.0  0.73622  0.43774  0.60236  1.0000
  C   C3957     1.0  0.94746  0.37525  0.70417  1.0000
  C   C3958     1.0  0.95812  0.22329  0.76350  1.0000
  C   C3959     1.0  0.92843  0.34412  0.77375  1.0000
  H   H3161     1.0  0.80007  0.41808  0.63117  1.0000
  C   C3960     1.0  0.96509  0.20517  0.74428  1.0000
  H   H3162     1.0  0.93182  0.47079  0.62779  1.0000
  C   C3961     1.0  0.94978  0.34316  0.68361  1.0000
  C   C3962     1.0  0.63715  0.06333  0.66936  1.0000
  S   S526      1.0  0.96239  0.33697  0.76472  1.0000
  C   C3963     1.0  0.81868  0.37485  0.69688  1.0000
  C   C3964     1.0  0.87140  0.43350  0.62110  1.0000
  H   H3163     1.0  0.93002  0.33133  0.73914  1.0000
  H   H3164     1.0  0.51447  0.11568  0.69626  1.0000
  C   C3965     1.0  0.97639  0.29205  0.72984  1.0000
  C   C3966     1.0  0.59676  0.06463  0.63528  1.0000
  H   H3165     1.0  0.82361  0.42762  0.71987  1.0000
  C   C3967     1.0  0.91460  0.35737  0.70660  1.0000
  H   H3166     1.0  0.94274  0.28682  0.74317  1.0000
  C   C3968     1.0  0.63437  0.05930  0.65587  1.0000
  C   C3969     1.0  0.56079  0.11709  0.65140  1.0000
  H   H3167     1.0  0.63754  0.07590  0.66885  1.0000
  H   H3168     1.0  0.53200  0.98952  0.73446  1.0000
  C   C3970     1.0  0.90921  0.43147  0.76131  1.0000
  H   H3169     1.0  0.81128  0.37234  0.68991  1.0000
  H   H3170     1.0  0.69557  0.99323  0.77050  1.0000
  C   C3971     1.0  0.76082  0.41344  0.64906  1.0000
  H   H3171     1.0  0.55213  0.04657  0.62759  1.0000
  H   H3172     1.0  0.63533  0.03980  0.76114  1.0000
  H   H3173     1.0  0.50440  0.22524  0.67879  1.0000
  C   C3972     1.0  0.84546  0.37509  0.70058  1.0000
  H   H3174     1.0  0.90299  0.48269  0.77174  1.0000
  H   H3175     1.0  0.55433  0.14318  0.65111  1.0000
  C   C3973     1.0  0.62994  0.99068  0.71923  1.0000
  H   H3176     1.0  0.99168  0.36610  0.71193  1.0000
  C   C3974     1.0  0.98568  0.15831  0.77005  1.0000
  C   C3975     1.0  0.79962  0.44356  0.59528  1.0000
  H   H3177     1.0  0.51244  0.26813  0.63991  1.0000
  C   C3976     1.0  0.87670  0.44531  0.62555  1.0000
  C   C3977     1.0  0.57936  0.02543  0.78066  1.0000
  C   C3978     1.0  0.89277  0.46375  0.64244  1.0000
  C   C3979     1.0  0.96926  0.15122  0.71117  1.0000
  C   C3980     1.0  0.66264  0.00645  0.69599  1.0000
  C   C3981     1.0  0.89625  0.44933  0.65446  1.0000
  C   C3982     1.0  0.91234  0.44286  0.65702  1.0000
  C   C3983     1.0  0.92515  0.45060  0.64744  1.0000
  C   C3984     1.0  0.92194  0.46461  0.63505  1.0000
  C   C3985     1.0  0.90587  0.47105  0.63239  1.0000
  H   H3178     1.0  0.83891  0.46807  0.64035  1.0000
  C   C3986     1.0  0.51936  0.24718  0.61976  1.0000
  C   C3987     1.0  0.59997  0.19176  0.60046  1.0000
  C   C3988     1.0  0.84290  0.44670  0.63044  1.0000
  H   H3179     1.0  0.54339  0.06829  0.67757  1.0000
  H   H3180     1.0  0.80019  0.46914  0.59163  1.0000
  H   H3181     1.0  0.88983  0.44450  0.62365  1.0000
  H   H3182     1.0  0.63251  0.06875  0.64493  1.0000
  H   H3183     1.0  0.88657  0.44306  0.66193  1.0000
  H   H3184     1.0  0.91477  0.43209  0.66677  1.0000
  H   H3185     1.0  0.93749  0.44593  0.64985  1.0000
  C   C3989     1.0  0.65071  0.01692  0.73171  1.0000
  P   P136      1.0  0.49442  0.24129  0.64757  1.0000
  Fe  Fe262     1.0  0.77236  0.47543  0.67243  1.0000
  S   S527      1.0  0.99129  0.26072  0.76765  1.0000
  C   C3990     1.0  0.60811  0.01259  0.77186  1.0000
  C   C3991     1.0  0.61749  0.07611  0.61327  1.0000
  H   H3186     1.0  0.94763  0.14907  0.73071  1.0000
  H   H3187     1.0  0.96323  0.13950  0.75291  1.0000
  C   C3992     1.0  0.96348  0.35026  0.65482  1.0000
  C   C3993     1.0  0.52415  0.32431  0.60465  1.0000
  C   C3994     1.0  0.78421  0.41165  0.61929  1.0000
  H   H3188     1.0  0.53815  0.28376  0.62108  1.0000
  C   C3995     1.0  0.73697  0.44268  0.61640  1.0000
  H   H3189     1.0  0.62012  0.00647  0.77455  1.0000
  C   C3996     1.0  0.97934  0.36866  0.70970  1.0000
  C   C3997     1.0  0.56596  0.08301  0.70068  1.0000
  C   C3998     1.0  0.62681  0.04495  0.73862  1.0000
  H   H3190     1.0  0.62885  0.07437  0.60401  1.0000
  C   C3999     1.0  0.60374  0.20517  0.58779  1.0000
  C   C4000     1.0  0.53955  0.04550  0.65296  1.0000
  H   H3191     1.0  0.79711  0.44666  0.77009  1.0000
  C   C4001     1.0  0.51499  0.23657  0.63499  1.0000
  C   C4002     1.0  0.92125  0.33932  0.73194  1.0000
  P   P137      1.0  0.56877  0.08322  0.65245  1.0000
  C   C4003     1.0  0.58795  0.08059  0.63719  1.0000
  H   H3192     1.0  0.61696  0.05524  0.74175  1.0000
  C   C4004     1.0  0.96317  0.32070  0.72984  1.0000
  H   H3193     1.0  0.93523  0.37808  0.70178  1.0000
  C   C4005     1.0  0.63965  0.05108  0.68347  1.0000
  H   H3194     1.0  0.93103  0.48334  0.73438  1.0000
  H   H3195     1.0  0.83646  0.37213  0.63591  1.0000
  C   C4006     1.0  0.97292  0.35581  0.70869  1.0000
  H   H3196     1.0  0.84539  0.38681  0.71940  1.0000
  C   C4007     1.0  0.84628  0.46493  0.76571  1.0000
  C   C4008     1.0  0.91300  0.22973  0.77920  1.0000
  H   H3197     1.0  0.91185  0.41824  0.76619  1.0000
  H   H3198     1.0  0.51580  0.09436  0.60626  1.0000
  H   H3199     1.0  0.84191  0.36570  0.68144  1.0000
  H   H3200     1.0  0.55704  0.08846  0.71037  1.0000
  H   H3201     1.0  0.94186  0.20900  0.76144  1.0000
  H   H3202     1.0  0.91892  0.30077  0.76180  1.0000
  C   C4009     1.0  0.96213  0.34994  0.67141  1.0000
  H   H3203     1.0  0.52882  0.04710  0.67821  1.0000
  C   C4010     1.0  0.75693  0.40927  0.63626  1.0000
  H   H3204     1.0  0.56707  0.06752  0.62677  1.0000
  C   C4011     1.0  0.93733  0.27976  0.75488  1.0000
  C   C4012     1.0  0.53706  0.05173  0.66696  1.0000
  H   H3205     1.0  0.83586  0.37205  0.74909  1.0000
  C   C4013     1.0  0.85883  0.47359  0.66011  1.0000
  H   H3206     1.0  0.52336  0.21333  0.65116  1.0000
  H   H3207     1.0  0.67212  0.41970  0.60036  1.0000
  C   C4014     1.0  0.63665  0.03078  0.67054  1.0000
  C   C4015     1.0  0.83069  0.47483  0.77030  1.0000
  C   C4016     1.0  0.55716  0.06865  0.65249  1.0000
  C   C4017     1.0  0.92643  0.34648  0.71523  1.0000
  C   C4018     1.0  0.82255  0.41201  0.75334  1.0000
  H   H3208     1.0  0.52039  0.21826  0.60734  1.0000
  C   C4019     1.0  0.56255  0.08657  0.68499  1.0000
  C   C4020     1.0  0.83778  0.38294  0.71374  1.0000
  C   C4021     1.0  0.94253  0.34874  0.76283  1.0000
  C   C4022     1.0  0.91372  0.45497  0.73893  1.0000
  H   H3209     1.0  0.85881  0.37280  0.69646  1.0000
  H   H3210     1.0  0.97541  0.30437  0.74878  1.0000
  C   C4023     1.0  0.94050  0.33665  0.66244  1.0000
  C   C4024     1.0  0.76798  0.39257  0.76981  1.0000
  S   S528      1.0  0.49922  0.15484  0.61862  1.0000
  H   H3211     1.0  0.90384  0.48179  0.62261  1.0000
  H   H3212     1.0  0.88330  0.46675  0.77084  1.0000
  H   H3213     1.0  0.56151  0.19314  0.59616  1.0000
  H   H3214     1.0  0.70324  0.00565  0.69272  1.0000
  C   C4025     1.0  0.51601  0.30664  0.59223  1.0000
  C   C4026     1.0  0.98226  0.10702  0.76655  1.0000
  H   H3215     1.0  0.69479  0.46777  0.60881  1.0000
  C   C4027     1.0  0.66474  0.99243  0.68973  1.0000
  H   H3216     1.0  0.83287  0.42327  0.76643  1.0000
  H   H3217     1.0  0.62284  0.39551  0.58591  1.0000
  C   C4028     1.0  0.71194  0.47937  0.61283  1.0000
  C   C4029     1.0  0.83763  0.47552  0.69099  1.0000
  C   C4030     1.0  0.91268  0.35383  0.77218  1.0000
  C   C4031     1.0  0.58335  0.99056  0.67584  1.0000
  H   H3218     1.0  0.91355  0.24040  0.76907  1.0000
  C   C4032     1.0  0.76748  0.37610  0.77152  1.0000
  C   C4033     1.0  0.67584  0.43145  0.59565  1.0000
  C   C4034     1.0  0.66440  0.44576  0.59063  1.0000
  C   C4035     1.0  0.91705  0.27864  0.78060  1.0000
  H   H3219     1.0  0.96995  0.08671  0.77739  1.0000
  H   H3220     1.0  0.50064  0.20498  0.58605  1.0000
  H   H3221     1.0  0.85395  0.39794  0.77395  1.0000
  H   H3222     1.0  0.60897  0.24626  0.58287  1.0000
  H   H3223     1.0  0.80520  0.48100  0.76838  1.0000
  H   H3224     1.0  0.88871  0.22848  0.77797  1.0000
  H   H3225     1.0  0.97451  0.35857  0.77752  1.0000
  H   H3226     1.0  0.75728  0.37111  0.78000  1.0000
  H   H3227     1.0  0.90181  0.35029  0.78075  1.0000
  H   H3228     1.0  0.52988  0.04121  0.78160  1.0000
  C   C4036     1.0  0.69447  0.98790  0.68591  1.0000
  C   C4037     1.0  0.68569  0.46171  0.58282  1.0000
  C   C4038     1.0  0.74500  0.48506  0.74307  1.0000
  C   C4039     1.0  0.75787  0.48518  0.71422  1.0000
  C   C4040     1.0  0.58835  0.98831  0.63394  1.0000
  H   H3229     1.0  0.94171  0.48659  0.65650  1.0000
  P   P138      1.0  0.94438  0.23155  0.78072  1.0000
  H   H3230     1.0  0.99286  0.15232  0.69446  1.0000
  C   C4041     1.0  0.63173  0.03114  0.96469  1.0000
  C   C4042     1.0  0.68268  0.00362  0.87073  1.0000
  C   C4043     1.0  0.97284  0.09743  0.79595  1.0000
  H   H3231     1.0  0.79599  0.12111  0.82203  1.0000
  C   C4044     1.0  0.59672  0.19380  0.98211  1.0000
  Fe  Fe263     1.0  0.97764  0.27603  0.78665  1.0000
  C   C4045     1.0  0.62216  0.00335  0.92076  1.0000
  Fe  Fe264     1.0  0.91602  0.17601  0.90260  1.0000
  S   S529      1.0  0.90454  0.19579  0.88372  1.0000
  S   S530      1.0  0.90130  0.15730  0.91938  1.0000
  Fe  Fe265     1.0  0.94894  0.18732  0.89095  1.0000
  S   S531      1.0  0.94010  0.20747  0.87048  1.0000
  S   S532      1.0  0.97573  0.18106  0.89351  1.0000
  Fe  Fe266     1.0  0.91677  0.21260  0.88945  1.0000
  S   S533      1.0  0.90192  0.23854  0.88953  1.0000
  Fe  Fe267     1.0  0.92855  0.18914  0.86640  1.0000
  S   S534      1.0  0.92703  0.18695  0.84170  1.0000
  S   S535      1.0  0.92615  0.19353  0.91047  1.0000
  S   S536      1.0  0.93955  0.16819  0.88484  1.0000
  P   P139      1.0  0.79297  0.03732  0.94134  1.0000
  C   C4046     1.0  0.97561  0.20508  0.81156  1.0000
  C   C4047     1.0  0.77648  0.05280  0.94971  1.0000
  H   H3232     1.0  0.96624  0.08762  0.85918  1.0000
  H   H3233     1.0  0.61042  0.02714  0.90790  1.0000
  C   C4048     1.0  0.63681  0.01409  0.96585  1.0000
  C   C4049     1.0  0.98439  0.23491  0.84788  1.0000
  C   C4050     1.0  0.64627  0.02366  0.89952  1.0000
  H   H3234     1.0  0.65848  0.06524  0.97270  1.0000
  C   C4051     1.0  0.97049  0.29976  0.89563  1.0000
  C   C4052     1.0  0.97841  0.08872  0.85168  1.0000
  C   C4053     1.0  0.65599  0.03488  0.89805  1.0000
  C   C4054     1.0  0.69749  0.05309  0.97375  1.0000
  C   C4055     1.0  0.97400  0.15266  0.82181  1.0000
  H   H3235     1.0  0.67138  0.02316  0.94457  1.0000
  S   S537      1.0  0.67251  0.14795  0.96200  1.0000
  Fe  Fe268     1.0  0.82738  0.13135  0.90280  1.0000
  S   S538      1.0  0.83008  0.10441  0.90422  1.0000
  S   S539      1.0  0.84809  0.14450  0.88823  1.0000
  Fe  Fe269     1.0  0.79116  0.13555  0.92076  1.0000
  S   S540      1.0  0.79090  0.10889  0.92393  1.0000
  S   S541      1.0  0.76839  0.15471  0.92846  1.0000
  Fe  Fe270     1.0  0.81571  0.10401  0.93014  1.0000
  S   S542      1.0  0.82225  0.08228  0.95028  1.0000
  Fe  Fe271     1.0  0.80509  0.11123  0.89789  1.0000
  S   S543      1.0  0.80084  0.10036  0.87869  1.0000
  S   S544      1.0  0.81483  0.13049  0.92942  1.0000
  S   S545      1.0  0.80356  0.13845  0.89395  1.0000
  Fe  Fe272     1.0  0.70727  0.03156  0.88591  1.0000
  S   S546      1.0  0.69953  0.05832  0.88735  1.0000
  S   S547      1.0  0.70382  0.02558  0.86280  1.0000
  Fe  Fe273     1.0  0.72005  0.02311  0.91805  1.0000
  S   S548      1.0  0.71300  0.04915  0.92165  1.0000
  S   S549      1.0  0.73140  0.00145  0.93602  1.0000
  Fe  Fe274     1.0  0.68976  0.04971  0.91431  1.0000
  S   S550      1.0  0.66347  0.05932  0.92669  1.0000
  Fe  Fe275     1.0  0.72366  0.05535  0.89439  1.0000
  S   S551      1.0  0.73733  0.07578  0.88037  1.0000
  S   S552      1.0  0.69597  0.02310  0.91258  1.0000
  S   S553      1.0  0.73230  0.02915  0.89109  1.0000
  Fe  Fe276     1.0  0.97496  0.29269  0.81416  1.0000
  H   H3236     1.0  0.76748  0.13588  0.81904  1.0000
  C   C4056     1.0  0.73154  0.01796  0.95979  1.0000
  C   C4057     1.0  0.73724  0.00360  0.95335  1.0000
  H   H3237     1.0  0.69850  0.04521  0.96556  1.0000
  H   H3238     1.0  0.68412  0.00112  0.88329  1.0000
  C   C4058     1.0  0.63244  0.03518  0.93563  1.0000
  H   H3239     1.0  0.72366  0.02855  0.95369  1.0000
  H   H3240     1.0  0.62964  0.03625  0.97543  1.0000
  C   C4059     1.0  0.80413  0.08151  0.96549  1.0000
  H   H3241     1.0  0.98645  0.25335  0.89462  1.0000
  S   S554      1.0  0.96730  0.26978  0.81397  1.0000
  H   H3242     1.0  0.99295  0.99111  0.82223  1.0000
  C   C4060     1.0  0.70625  0.07519  0.97892  1.0000
  C   C4061     1.0  0.60915  0.01469  0.91424  1.0000
  S   S555      1.0  0.99086  0.13687  0.81713  1.0000
  H   H3243     1.0  0.79836  0.45905  0.79975  1.0000
  C   C4062     1.0  0.66093  0.04506  0.88279  1.0000
  H   H3244     1.0  0.79611  0.10796  0.96153  1.0000
  C   C4063     1.0  0.78414  0.09120  0.88054  1.0000
  C   C4064     1.0  0.77442  0.08481  0.89570  1.0000
  C   C4065     1.0  0.76050  0.07882  0.89609  1.0000
  C   C4066     1.0  0.75646  0.07909  0.88130  1.0000
  C   C4067     1.0  0.76674  0.08471  0.86632  1.0000
  C   C4068     1.0  0.78050  0.09058  0.86595  1.0000
  H   H3245     1.0  0.77752  0.08465  0.90707  1.0000
  H   H3246     1.0  0.75259  0.07464  0.90773  1.0000
  H   H3247     1.0  0.76371  0.08506  0.85485  1.0000
  H   H3248     1.0  0.78807  0.09516  0.85420  1.0000
  C   C4069     1.0  0.64896  0.10692  0.94585  1.0000
  C   C4070     1.0  0.66515  0.09748  0.94515  1.0000
  C   C4071     1.0  0.67002  0.08290  0.93901  1.0000
  C   C4072     1.0  0.65842  0.07742  0.93434  1.0000
  C   C4073     1.0  0.64204  0.08637  0.93605  1.0000
  C   C4074     1.0  0.63742  0.10121  0.94144  1.0000
  H   H3249     1.0  0.67402  0.10163  0.94891  1.0000
  H   H3250     1.0  0.68265  0.07590  0.93801  1.0000
  H   H3251     1.0  0.63303  0.08221  0.93249  1.0000
  H   H3252     1.0  0.62489  0.10840  0.94200  1.0000
  C   C4075     1.0  0.72820  0.12928  0.96409  1.0000
  C   C4076     1.0  0.72378  0.14558  0.95551  1.0000
  C   C4077     1.0  0.73621  0.15379  0.94512  1.0000
  C   C4078     1.0  0.75293  0.14553  0.94306  1.0000
  C   C4079     1.0  0.75721  0.12960  0.95230  1.0000
  C   C4080     1.0  0.74490  0.12163  0.96291  1.0000
  H   H3253     1.0  0.71087  0.15167  0.95656  1.0000
  H   H3254     1.0  0.73283  0.16623  0.93814  1.0000
  H   H3255     1.0  0.77006  0.12340  0.95128  1.0000
  C   C4081     1.0  0.97946  0.09523  0.89112  1.0000
  C   C4082     1.0  0.88642  0.15367  0.91086  1.0000
  C   C4083     1.0  0.87384  0.14570  0.92109  1.0000
  C   C4084     1.0  0.86190  0.14283  0.91442  1.0000
  C   C4085     1.0  0.86264  0.14772  0.89742  1.0000
  C   C4086     1.0  0.87533  0.15548  0.88724  1.0000
  C   C4087     1.0  0.88705  0.15859  0.89392  1.0000
  H   H3256     1.0  0.87329  0.14180  0.93421  1.0000
  H   H3257     1.0  0.85221  0.13676  0.92237  1.0000
  H   H3258     1.0  0.87613  0.15906  0.87407  1.0000
  H   H3259     1.0  0.89678  0.16451  0.88587  1.0000
  C   C4088     1.0  0.90660  0.25148  0.86999  1.0000
  C   C4089     1.0  0.92299  0.25072  0.86121  1.0000
  C   C4090     1.0  0.92659  0.26103  0.84559  1.0000
  C   C4091     1.0  0.91378  0.27186  0.83852  1.0000
  C   C4092     1.0  0.89737  0.27264  0.84731  1.0000
  C   C4093     1.0  0.89381  0.26269  0.86313  1.0000
  H   H3260     1.0  0.93293  0.24247  0.86660  1.0000
  H   H3261     1.0  0.93927  0.26064  0.83908  1.0000
  H   H3262     1.0  0.88742  0.28110  0.84194  1.0000
  H   H3263     1.0  0.88114  0.26343  0.86991  1.0000
  C   C4094     1.0  0.94539  0.17475  0.83312  1.0000
  C   C4095     1.0  0.96014  0.17371  0.83756  1.0000
  C   C4096     1.0  0.94513  0.16539  0.82233  1.0000
  H   H3264     1.0  0.96034  0.18105  0.84582  1.0000
  H   H3265     1.0  0.93370  0.16619  0.81893  1.0000
  H   H3266     1.0  0.97855  0.10997  0.81149  1.0000
  H   H3267     1.0  0.72392  0.99362  0.84497  1.0000
  C   C4097     1.0  0.97563  0.20815  0.90487  1.0000
  C   C4098     1.0  0.98508  0.19447  0.89843  1.0000
  C   C4099     1.0  0.75119  0.07613  0.96426  1.0000
  H   H3268     1.0  0.99131  0.22885  0.83786  1.0000
  H   H3269     1.0  0.96229  0.21051  0.90726  1.0000
  H   H3270     1.0  0.78187  0.02644  0.97761  1.0000
  S   S556      1.0  0.98320  0.29649  0.83505  1.0000
  H   H3271     1.0  0.88708  0.20395  0.80108  1.0000
  H   H3272     1.0  0.96619  0.31278  0.89571  1.0000
  C   C4100     1.0  0.79473  0.02069  0.97389  1.0000
  C   C4101     1.0  0.69059  0.01517  0.85862  1.0000
  C   C4102     1.0  0.68863  0.01809  0.84232  1.0000
  C   C4103     1.0  0.67881  0.00975  0.83817  1.0000
  H   H3273     1.0  0.63855  0.00594  0.97755  1.0000
  H   H3274     1.0  0.69473  0.02691  0.83281  1.0000
  C   C4104     1.0  0.96789  0.34662  0.80299  1.0000
  H   H3275     1.0  0.82665  0.01753  0.94047  1.0000
  H   H3276     1.0  0.84314  0.45301  0.91739  1.0000
  C   C4105     1.0  0.63806  0.01812  0.93657  1.0000
  H   H3277     1.0  0.76679  0.04710  0.92292  1.0000
  H   H3278     1.0  0.97990  0.26988  0.86073  1.0000
  H   H3279     1.0  0.82010  0.05135  0.94177  1.0000
  C   C4106     1.0  0.75301  0.12176  0.90843  1.0000
  C   C4107     1.0  0.73891  0.12814  0.91921  1.0000
  C   C4108     1.0  0.72949  0.14383  0.91422  1.0000
  C   C4109     1.0  0.73438  0.15330  0.89852  1.0000
  C   C4110     1.0  0.74859  0.14697  0.88754  1.0000
  C   C4111     1.0  0.75790  0.13109  0.89264  1.0000
  P   P140      1.0  0.75570  0.16012  0.86804  1.0000
  C   C4112     1.0  0.73782  0.17328  0.86045  1.0000
  C   C4113     1.0  0.76798  0.17251  0.87114  1.0000
  C   C4114     1.0  0.76617  0.17548  0.88679  1.0000
  C   C4115     1.0  0.77540  0.18543  0.88900  1.0000
  C   C4116     1.0  0.78640  0.19262  0.87560  1.0000
  C   C4117     1.0  0.78844  0.18959  0.86000  1.0000
  C   C4118     1.0  0.77927  0.17956  0.85775  1.0000
  C   C4119     1.0  0.72430  0.16663  0.86151  1.0000
  C   C4120     1.0  0.71042  0.17661  0.85564  1.0000
  C   C4121     1.0  0.70986  0.19337  0.84879  1.0000
  C   C4122     1.0  0.72323  0.20013  0.84773  1.0000
  C   C4123     1.0  0.73719  0.19013  0.85351  1.0000
  C   C4124     1.0  0.76835  0.14793  0.85324  1.0000
  C   C4125     1.0  0.78463  0.13982  0.85455  1.0000
  C   C4126     1.0  0.79453  0.13024  0.84331  1.0000
  C   C4127     1.0  0.78834  0.12879  0.83055  1.0000
  C   C4128     1.0  0.77226  0.13704  0.82895  1.0000
  C   C4129     1.0  0.76227  0.14659  0.84023  1.0000
  H   H3280     1.0  0.76041  0.10975  0.91255  1.0000
  H   H3281     1.0  0.73562  0.12112  0.93164  1.0000
  H   H3282     1.0  0.71872  0.14883  0.92279  1.0000
  H   H3283     1.0  0.72735  0.16575  0.89519  1.0000
  H   H3284     1.0  0.76912  0.12592  0.88474  1.0000
  H   H3285     1.0  0.75779  0.17004  0.89742  1.0000
  H   H3286     1.0  0.77409  0.18735  0.90124  1.0000
  H   H3287     1.0  0.79347  0.20038  0.87737  1.0000
  H   H3288     1.0  0.79720  0.19492  0.84967  1.0000
  H   H3289     1.0  0.78096  0.17734  0.84559  1.0000
  H   H3290     1.0  0.72452  0.15372  0.86686  1.0000
  H   H3291     1.0  0.70007  0.17132  0.85652  1.0000
  H   H3292     1.0  0.69906  0.20112  0.84430  1.0000
  H   H3293     1.0  0.72279  0.21314  0.84243  1.0000
  H   H3294     1.0  0.74737  0.19564  0.85259  1.0000
  H   H3295     1.0  0.78961  0.14056  0.86450  1.0000
  H   H3296     1.0  0.80688  0.12357  0.84483  1.0000
  H   H3297     1.0  0.83181  0.40169  0.80467  1.0000
  H   H3298     1.0  0.74984  0.15272  0.83879  1.0000
  C   C4130     1.0  0.99184  0.27475  0.89826  1.0000
  C   C4131     1.0  0.80271  0.45604  0.91810  1.0000
  C   C4132     1.0  0.53483  0.01323  0.82436  1.0000
  H   H3299     1.0  0.66086  0.05140  0.85690  1.0000
  P   P141      1.0  0.64115  0.00946  0.91886  1.0000
  Fe  Fe277     1.0  0.65471  0.13115  0.96892  1.0000
  C   C4133     1.0  0.98687  0.25017  0.84797  1.0000
  C   C4134     1.0  0.99032  0.33568  0.81754  1.0000
  H   H3300     1.0  0.97873  0.09519  0.93084  1.0000
  H   H3301     1.0  0.98527  0.19394  0.81207  1.0000
  H   H3302     1.0  0.96516  0.33323  0.82827  1.0000
  C   C4135     1.0  0.67888  0.02426  0.98092  1.0000
  H   H3303     1.0  0.83253  0.48226  0.91878  1.0000
  C   C4136     1.0  0.68965  0.00523  0.95679  1.0000
  C   C4137     1.0  0.74943  0.48332  0.82510  1.0000
  C   C4138     1.0  0.79658  0.47266  0.91891  1.0000
  H   H3304     1.0  0.99231  0.19629  0.94567  1.0000
  H   H3305     1.0  0.97165  0.20395  0.78866  1.0000
  H   H3306     1.0  0.98456  0.16638  0.86525  1.0000
  C   C4139     1.0  0.95697  0.11924  0.87097  1.0000
  C   C4140     1.0  0.94522  0.12167  0.88551  1.0000
  C   C4141     1.0  0.92888  0.12986  0.88485  1.0000
  C   C4142     1.0  0.92415  0.13566  0.86970  1.0000
  C   C4143     1.0  0.93576  0.13337  0.85519  1.0000
  C   C4144     1.0  0.95215  0.12533  0.85578  1.0000
  H   H3307     1.0  0.58780  0.98904  0.84328  1.0000
  C   C4145     1.0  0.59481  0.01726  0.78438  1.0000
  H   H3308     1.0  0.73111  0.02926  0.97955  1.0000
  H   H3309     1.0  0.66211  0.03985  0.96527  1.0000
  C   C4146     1.0  0.79321  0.09622  0.96844  1.0000
  P   P142      1.0  0.97833  0.10948  0.87151  1.0000
  C   C4147     1.0  0.83013  0.45849  0.91784  1.0000
  H   H3310     1.0  0.67730  0.01234  0.82563  1.0000
  C   C4148     1.0  0.89800  0.20916  0.79713  1.0000
  C   C4149     1.0  0.70739  0.06471  0.96867  1.0000
  H   H3311     1.0  0.96939  0.14587  0.86582  1.0000
  H   H3312     1.0  0.79444  0.44868  0.91786  1.0000
  H   H3313     1.0  0.58446  0.01874  0.91052  1.0000
  H   H3314     1.0  0.95413  0.23397  0.83398  1.0000
  C   C4150     1.0  0.76132  0.47110  0.83241  1.0000
  H   H3315     1.0  0.94862  0.11758  0.89736  1.0000
  H   H3316     1.0  0.91990  0.13198  0.89606  1.0000
  H   H3317     1.0  0.91152  0.14214  0.86917  1.0000
  H   H3318     1.0  0.93212  0.13814  0.84345  1.0000
  H   H3319     1.0  0.96110  0.12414  0.84435  1.0000
  H   H3320     1.0  0.62583  0.05489  0.94862  1.0000
  C   C4151     1.0  0.98065  0.06761  0.90842  1.0000
  C   C4152     1.0  0.97342  0.22731  0.86098  1.0000
  C   C4153     1.0  0.96407  0.23548  0.87357  1.0000
  C   C4154     1.0  0.96614  0.25106  0.87353  1.0000
  H   H3321     1.0  0.97672  0.17640  0.78510  1.0000
  P   P143      1.0  0.95315  0.26301  0.88848  1.0000
  C   C4155     1.0  0.94477  0.25024  0.90778  1.0000
  C   C4156     1.0  0.96598  0.27440  0.89225  1.0000
  H   H3322     1.0  0.82719  0.10912  0.96435  1.0000
  C   C4157     1.0  0.82210  0.44322  0.80152  1.0000
  H   H3323     1.0  0.96613  0.15615  0.93617  1.0000
  C   C4158     1.0  0.75321  0.46756  0.80453  1.0000
  C   C4159     1.0  0.94855  0.25019  0.92264  1.0000
  C   C4160     1.0  0.94169  0.24050  0.93748  1.0000
  C   C4161     1.0  0.93070  0.23112  0.93768  1.0000
  C   C4162     1.0  0.92652  0.23148  0.92305  1.0000
  C   C4163     1.0  0.93356  0.24095  0.90820  1.0000
  C   C4164     1.0  0.93652  0.27702  0.87935  1.0000
  C   C4165     1.0  0.93991  0.28583  0.86295  1.0000
  C   C4166     1.0  0.92704  0.29616  0.85563  1.0000
  C   C4167     1.0  0.91071  0.29783  0.86456  1.0000
  C   C4168     1.0  0.90724  0.28942  0.88098  1.0000
  C   C4169     1.0  0.92008  0.27918  0.88841  1.0000
  C   C4170     1.0  0.98181  0.26627  0.89503  1.0000
  S   S557      1.0  0.71355  0.11740  0.97555  1.0000
  C   C4171     1.0  0.78933  0.00845  0.93520  1.0000
  H   H3324     1.0  0.95534  0.22950  0.88318  1.0000
  Fe  Fe278     1.0  0.96282  0.31290  0.78342  1.0000
  H   H3325     1.0  0.80225  0.40692  0.80474  1.0000
  S   S558      1.0  0.95102  0.31005  0.81019  1.0000
  C   C4172     1.0  0.95809  0.22767  0.82386  1.0000
  H   H3326     1.0  0.95698  0.25736  0.92285  1.0000
  H   H3327     1.0  0.94491  0.24030  0.94882  1.0000
  H   H3328     1.0  0.91772  0.22455  0.92313  1.0000
  H   H3329     1.0  0.93002  0.24131  0.89702  1.0000
  H   H3330     1.0  0.95241  0.28460  0.85565  1.0000
  H   H3331     1.0  0.92966  0.30246  0.84282  1.0000
  H   H3332     1.0  0.90075  0.30538  0.85861  1.0000
  C   C4173     1.0  0.78240  0.99966  0.92841  1.0000
  H   H3333     1.0  0.77857  0.44790  0.83143  1.0000
  H   H3334     1.0  0.51375  0.99206  0.82578  1.0000
  C   C4174     1.0  0.53824  0.01660  0.79492  1.0000
  C   C4175     1.0  0.80535  0.44638  0.80123  1.0000
  C   C4176     1.0  0.59437  0.01001  0.91580  1.0000
  C   C4177     1.0  0.98015  0.07365  0.92203  1.0000
  H   H3335     1.0  0.63551  0.01316  0.88587  1.0000
  C   C4178     1.0  0.52779  0.03009  0.82298  1.0000
  H   H3336     1.0  0.78897  0.07317  0.93850  1.0000
  H   H3337     1.0  0.67201  0.00178  0.93020  1.0000
  S   S559      1.0  0.98749  0.29737  0.78744  1.0000
  H   H3338     1.0  0.76470  0.47272  0.84296  1.0000
  H   H3339     1.0  0.93528  0.20314  0.80663  1.0000
  C   C4179     1.0  0.77871  0.09580  0.98066  1.0000
  H   H3340     1.0  0.84471  0.42484  0.80256  1.0000
  C   C4180     1.0  0.96787  0.21089  0.79821  1.0000
  H   H3341     1.0  0.66013  0.03552  0.90857  1.0000
  C   C4181     1.0  0.98722  0.09871  0.85472  1.0000
  H   H3342     1.0  0.66876  0.05338  0.88166  1.0000
  C   C4182     1.0  0.82436  0.41414  0.80389  1.0000
  H   H3343     1.0  0.64416  0.03127  0.85914  1.0000
  C   C4183     1.0  0.76526  0.45526  0.81171  1.0000
  C   C4184     1.0  0.97062  0.21337  0.82446  1.0000
  C   C4185     1.0  0.52603  0.04021  0.80758  1.0000
  C   C4186     1.0  0.97888  0.10120  0.90491  1.0000
  C   C4187     1.0  0.80748  0.04746  0.92508  1.0000
  H   H3344     1.0  0.98602  0.16204  0.83492  1.0000
  H   H3345     1.0  0.75472  0.03147  0.91105  1.0000
  H   H3346     1.0  0.80879  0.05494  0.97217  1.0000
  S   S560      1.0  0.59748  0.01269  0.80469  1.0000
  C   C4188     1.0  0.60479  0.12971  0.98143  1.0000
  H   H3347     1.0  0.92966  0.33317  0.78350  1.0000
  H   H3348     1.0  0.78354  0.47797  0.91935  1.0000
  H   H3349     1.0  0.78710  0.48005  0.95031  1.0000
  S   S561      1.0  0.91782  0.28459  0.81877  1.0000
  H   H3350     1.0  0.76053  0.03570  0.96253  1.0000
  C   C4189     1.0  0.81944  0.05308  0.92905  1.0000
  H   H3351     1.0  0.98124  0.05460  0.90980  1.0000
  C   C4190     1.0  0.82785  0.00474  0.96536  1.0000
  H   H3352     1.0  0.98035  0.06534  0.93396  1.0000
  C   C4191     1.0  0.81989  0.01563  0.95318  1.0000
  C   C4192     1.0  0.98621  0.29151  0.89853  1.0000
  C   C4193     1.0  0.98194  0.14167  0.86763  1.0000
  C   C4194     1.0  0.96277  0.18059  0.93994  1.0000
  C   C4195     1.0  0.80645  0.05060  0.90851  1.0000
  C   C4196     1.0  0.83026  0.06161  0.91664  1.0000
  H   H3353     1.0  0.52383  0.03535  0.83382  1.0000
  H   H3354     1.0  0.71393  0.08411  0.97532  1.0000
  H   H3355     1.0  0.94823  0.29778  0.89034  1.0000
  H   H3356     1.0  0.83713  0.07181  0.89063  1.0000
  H   H3357     1.0  0.71603  0.06547  0.95687  1.0000
  H   H3358     1.0  0.79883  0.00178  0.94204  1.0000
  C   C4197     1.0  0.92366  0.26178  0.78543  1.0000
  C   C4198     1.0  0.76523  0.08090  0.95342  1.0000
  C   C4199     1.0  0.65642  0.04398  0.86883  1.0000
  C   C4200     1.0  0.67109  0.99805  0.85023  1.0000
  C   C4201     1.0  0.76404  0.39210  0.81642  1.0000
  C   C4202     1.0  0.75511  0.39155  0.83266  1.0000
  C   C4203     1.0  0.75248  0.40494  0.83992  1.0000
  C   C4204     1.0  0.75875  0.41891  0.83096  1.0000
  C   C4205     1.0  0.76764  0.41961  0.81460  1.0000
  C   C4206     1.0  0.77029  0.40606  0.80742  1.0000
  P   P144      1.0  0.77603  0.43743  0.80284  1.0000
  S   S562      1.0  0.64274  0.12644  0.95100  1.0000
  C   C4207     1.0  0.76920  0.45712  0.82577  1.0000
  C   C4208     1.0  0.95937  0.15403  0.81698  1.0000
  C   C4209     1.0  0.79784  0.43334  0.80271  1.0000
  C   C4210     1.0  0.97891  0.35246  0.78877  1.0000
  H   H3359     1.0  0.82773  0.45332  0.80066  1.0000
  H   H3360     1.0  0.76663  0.09346  0.95109  1.0000
  H   H3361     1.0  0.81604  0.06209  0.88344  1.0000
  H   H3362     1.0  0.96687  0.08903  0.80615  1.0000
  C   C4211     1.0  0.83165  0.42715  0.80270  1.0000
  C   C4212     1.0  0.91119  0.20206  0.80508  1.0000
  C   C4213     1.0  0.98678  0.18716  0.94404  1.0000
  C   C4214     1.0  0.98959  0.12484  0.87018  1.0000
  C   C4215     1.0  0.97926  0.09044  0.92028  1.0000
  H   H3363     1.0  0.83914  0.06629  0.91989  1.0000
  H   H3364     1.0  0.74831  0.10936  0.97011  1.0000
  H   H3365     1.0  0.76618  0.38169  0.81081  1.0000
  H   H3366     1.0  0.75026  0.38074  0.83964  1.0000
  H   H3367     1.0  0.74556  0.40452  0.85251  1.0000
  H   H3368     1.0  0.75652  0.42912  0.83685  1.0000
  H   H3369     1.0  0.92531  0.22368  0.94918  1.0000
  Fe  Fe279     1.0  0.94410  0.28762  0.80810  1.0000
  H   H3370     1.0  0.79714  0.04685  0.90502  1.0000
  H   H3371     1.0  0.56905  0.02902  0.79035  1.0000
  H   H3372     1.0  0.94070  0.24470  0.81030  1.0000
  C   C4216     1.0  0.67157  0.02879  0.96720  1.0000
  H   H3373     1.0  0.91700  0.27281  0.90112  1.0000
  C   C4217     1.0  0.80332  0.02390  0.95736  1.0000
  H   H3374     1.0  0.54216  0.01174  0.78384  1.0000
  C   C4218     1.0  0.96035  0.29123  0.89255  1.0000
  H   H3375     1.0  0.77727  0.40627  0.79488  1.0000
  H   H3376     1.0  0.97613  0.22868  0.91425  1.0000
  C   C4219     1.0  0.97358  0.33826  0.81737  1.0000
  H   H3377     1.0  0.97217  0.21504  0.86145  1.0000
  H   H3378     1.0  0.91046  0.19140  0.81521  1.0000
  C   C4220     1.0  0.73579  0.01836  0.97439  1.0000
  C   C4221     1.0  0.76196  0.04830  0.95993  1.0000
  C   C4222     1.0  0.98345  0.21842  0.90886  1.0000
  C   C4223     1.0  0.95044  0.23368  0.81037  1.0000
  C   C4224     1.0  0.81725  0.05919  0.89615  1.0000
  C   C4225     1.0  0.62952  0.04166  0.94960  1.0000
  C   C4226     1.0  0.92526  0.20881  0.80020  1.0000
  H   H3379     1.0  0.95017  0.18441  0.93818  1.0000
  S   S563      1.0  0.64598  0.00135  0.79999  1.0000
  H   H3380     1.0  0.96332  0.20422  0.94333  1.0000
  C   C4227     1.0  0.78387  0.02564  0.93318  1.0000
  C   C4228     1.0  0.54033  0.00638  0.81030  1.0000
  C   C4229     1.0  0.95521  0.22524  0.79745  1.0000
  C   C4230     1.0  0.64631  0.11300  0.90099  1.0000
  C   C4231     1.0  0.65030  0.09980  0.89317  1.0000
  C   C4232     1.0  0.66668  0.09415  0.88551  1.0000
  C   C4233     1.0  0.67907  0.10176  0.88554  1.0000
  C   C4234     1.0  0.67504  0.11537  0.89293  1.0000
  C   C4235     1.0  0.65869  0.12051  0.90123  1.0000
  P   P145      1.0  0.69088  0.12530  0.89306  1.0000
  C   C4236     1.0  0.68327  0.14733  0.89098  1.0000
  C   C4237     1.0  0.69821  0.11519  0.91173  1.0000
  C   C4238     1.0  0.69378  0.12278  0.92521  1.0000
  C   C4239     1.0  0.70159  0.11580  0.93848  1.0000
  C   C4240     1.0  0.71342  0.10101  0.93860  1.0000
  C   C4241     1.0  0.71690  0.09273  0.92585  1.0000
  C   C4242     1.0  0.70917  0.09971  0.91254  1.0000
  C   C4243     1.0  0.69112  0.15648  0.89639  1.0000
  C   C4244     1.0  0.68537  0.17353  0.89478  1.0000
  C   C4245     1.0  0.67194  0.18167  0.88737  1.0000
  C   C4246     1.0  0.66443  0.17276  0.88136  1.0000
  C   C4247     1.0  0.67016  0.15567  0.88301  1.0000
  C   C4248     1.0  0.70803  0.12322  0.87566  1.0000
  C   C4249     1.0  0.70526  0.12409  0.86014  1.0000
  C   C4250     1.0  0.71862  0.12214  0.84676  1.0000
  C   C4251     1.0  0.73477  0.11970  0.84872  1.0000
  C   C4252     1.0  0.73755  0.11958  0.86394  1.0000
  C   C4253     1.0  0.72427  0.12129  0.87737  1.0000
  H   H3381     1.0  0.63372  0.11702  0.90743  1.0000
  H   H3382     1.0  0.64081  0.09359  0.89349  1.0000
  H   H3383     1.0  0.66981  0.08364  0.87984  1.0000
  H   H3384     1.0  0.69179  0.09688  0.87999  1.0000
  H   H3385     1.0  0.65551  0.13017  0.90808  1.0000
  H   H3386     1.0  0.68443  0.13409  0.92551  1.0000
  H   H3387     1.0  0.69861  0.12190  0.94863  1.0000
  H   H3388     1.0  0.72004  0.09613  0.94847  1.0000
  H   H3389     1.0  0.72581  0.08108  0.92608  1.0000
  H   H3390     1.0  0.71221  0.09331  0.90257  1.0000
  H   H3391     1.0  0.70161  0.15036  0.90196  1.0000
  H   H3392     1.0  0.69127  0.18042  0.89939  1.0000
  H   H3393     1.0  0.66736  0.19486  0.88630  1.0000
  H   H3394     1.0  0.65406  0.17906  0.87553  1.0000
  H   H3395     1.0  0.66430  0.14902  0.87811  1.0000
  H   H3396     1.0  0.69282  0.12588  0.85847  1.0000
  H   H3397     1.0  0.71649  0.12213  0.83498  1.0000
  H   H3398     1.0  0.74517  0.11761  0.83855  1.0000
  H   H3399     1.0  0.75006  0.11763  0.86552  1.0000
  H   H3400     1.0  0.72682  0.12093  0.88908  1.0000
  C   C4254     1.0  0.88366  0.20107  0.85321  1.0000
  C   C4255     1.0  0.88911  0.21572  0.84550  1.0000
  C   C4256     1.0  0.88201  0.22980  0.85204  1.0000
  C   C4257     1.0  0.86933  0.22931  0.86621  1.0000
  C   C4258     1.0  0.86346  0.21474  0.87382  1.0000
  C   C4259     1.0  0.87110  0.20051  0.86748  1.0000
  P   P146      1.0  0.84842  0.21369  0.89313  1.0000
  C   C4260     1.0  0.83509  0.19949  0.89685  1.0000
  C   C4261     1.0  0.86019  0.20835  0.90891  1.0000
  C   C4262     1.0  0.86248  0.19244  0.91898  1.0000
  C   C4263     1.0  0.87161  0.18854  0.93117  1.0000
  C   C4264     1.0  0.87912  0.20021  0.93293  1.0000
  C   C4265     1.0  0.87727  0.21593  0.92265  1.0000
  C   C4266     1.0  0.86786  0.21999  0.91067  1.0000
  C   C4267     1.0  0.82573  0.19485  0.91283  1.0000
  C   C4268     1.0  0.81559  0.18363  0.91607  1.0000
  C   C4269     1.0  0.81456  0.17711  0.90337  1.0000
  C   C4270     1.0  0.82336  0.18208  0.88736  1.0000
  C   C4271     1.0  0.83336  0.19345  0.88402  1.0000
  C   C4272     1.0  0.83451  0.23354  0.89355  1.0000
  C   C4273     1.0  0.82885  0.24296  0.87932  1.0000
  C   C4274     1.0  0.81791  0.25829  0.87962  1.0000
  C   C4275     1.0  0.81238  0.26419  0.89416  1.0000
  C   C4276     1.0  0.81772  0.25472  0.90846  1.0000
  C   C4277     1.0  0.82868  0.23939  0.90819  1.0000
  H   H3401     1.0  0.88982  0.18991  0.84865  1.0000
  H   H3402     1.0  0.89937  0.21594  0.83491  1.0000
  H   H3403     1.0  0.88680  0.24091  0.84648  1.0000
  H   H3404     1.0  0.86455  0.24014  0.87150  1.0000
  H   H3405     1.0  0.86781  0.18882  0.87389  1.0000
  H   H3406     1.0  0.85763  0.18285  0.91723  1.0000
  H   H3407     1.0  0.87347  0.17617  0.93878  1.0000
  H   H3408     1.0  0.88674  0.19689  0.94194  1.0000
  H   H3409     1.0  0.88351  0.22486  0.92360  1.0000
  H   H3410     1.0  0.86691  0.23211  0.90254  1.0000
  H   H3411     1.0  0.82649  0.19968  0.92285  1.0000
  H   H3412     1.0  0.80874  0.17973  0.92848  1.0000
  H   H3413     1.0  0.80706  0.16806  0.90598  1.0000
  H   H3414     1.0  0.82282  0.17667  0.87762  1.0000
  H   H3415     1.0  0.83984  0.19723  0.87147  1.0000
  H   H3416     1.0  0.83293  0.23845  0.86801  1.0000
  H   H3417     1.0  0.81370  0.26557  0.86856  1.0000
  H   H3418     1.0  0.80391  0.27607  0.89438  1.0000
  H   H3419     1.0  0.81334  0.25922  0.91977  1.0000
  H   H3420     1.0  0.83254  0.23213  0.91942  1.0000
  C   C4278     1.0  0.97461  0.16299  0.83145  1.0000
  C   C4279     1.0  0.97790  0.25808  0.86081  1.0000
  C   C4280     1.0  0.80721  0.48233  0.91917  1.0000
  H   H3421     1.0  0.95895  0.14602  0.80948  1.0000
  C   C4281     1.0  0.77126  0.03386  0.92452  1.0000
  C   C4282     1.0  0.76447  0.02506  0.91767  1.0000
  C   C4283     1.0  0.80753  0.41720  0.80390  1.0000
  H   H3422     1.0  0.89455  0.29051  0.88783  1.0000
  C   C4284     1.0  0.77794  0.06927  0.94629  1.0000
  H   H3423     1.0  0.56925  0.99999  0.82387  1.0000
  C   C4285     1.0  0.82913  0.06471  0.90020  1.0000
  C   C4286     1.0  0.92622  0.22278  0.78730  1.0000
  C   C4287     1.0  0.69711  0.00072  0.97029  1.0000
  C   C4288     1.0  0.74955  0.05983  0.96746  1.0000
  H   H3424     1.0  0.84065  0.99847  0.96202  1.0000
  C   C4289     1.0  0.77009  0.00799  0.91953  1.0000
  C   C4290     1.0  0.64206  0.02243  0.88536  1.0000
  C   C4291     1.0  0.97936  0.10920  0.79896  1.0000
  C   C4292     1.0  0.67689  0.01926  0.95526  1.0000
  H   H3425     1.0  0.84687  0.12445  0.96632  1.0000
  C   C4293     1.0  0.63984  0.00758  0.95188  1.0000
  C   C4294     1.0  0.97019  0.19174  0.94283  1.0000
  H   H3426     1.0  0.52073  0.05330  0.80646  1.0000
  H   H3427     1.0  0.63049  0.04357  0.92411  1.0000
  C   C4295     1.0  0.98027  0.07834  0.89302  1.0000
  C   C4296     1.0  0.67218  0.99193  0.92463  1.0000
  C   C4297     1.0  0.74740  0.98993  0.96136  1.0000
  C   C4298     1.0  0.81948  0.44896  0.91756  1.0000
  H   H3428     1.0  0.90687  0.28481  0.78892  1.0000
  Fe  Fe280     1.0  0.62137  0.99425  0.80675  1.0000
  H   H3429     1.0  0.95502  0.34818  0.80270  1.0000
  H   H3430     1.0  0.74804  0.43711  0.79002  1.0000
  H   H3431     1.0  0.98059  0.07335  0.88274  1.0000
  H   H3432     1.0  0.76459  0.00116  0.91442  1.0000
  H   H3433     1.0  0.82423  0.43609  0.91690  1.0000
  C   C4299     1.0  0.64698  0.03267  0.87011  1.0000
  C   C4300     1.0  0.61991  0.98753  0.92953  1.0000
  C   C4301     1.0  0.84079  0.11694  0.97736  1.0000
  C   C4302     1.0  0.98754  0.11968  0.78580  1.0000
  C   C4303     1.0  0.65867  0.99222  0.91836  1.0000
  H   H3434     1.0  0.64366  0.99434  0.95301  1.0000
  C   C4304     1.0  0.97180  0.16466  0.93876  1.0000
  H   H3435     1.0  0.97634  0.20850  0.83499  1.0000
  C   C4305     1.0  0.75199  0.99048  0.97551  1.0000
  C   C4306     1.0  0.99052  0.15340  0.86732  1.0000
  H   H3436     1.0  0.91807  0.25506  0.79729  1.0000
  C   C4307     1.0  0.80043  0.06635  0.97457  1.0000
  H   H3437     1.0  0.63005  0.08125  0.97314  1.0000
  H   H3438     1.0  0.53610  0.00555  0.83637  1.0000
  H   H3439     1.0  0.74182  0.08495  0.97053  1.0000
  C   C4308     1.0  0.59238  0.99409  0.92415  1.0000
  H   H3440     1.0  0.77391  0.48314  0.97880  1.0000
  H   H3441     1.0  0.97838  0.07244  0.83668  1.0000
  H   H3442     1.0  0.50383  0.34517  0.97489  1.0000
  H   H3443     1.0  0.63884  0.21830  0.97947  1.0000
  H   H3444     1.0  0.60757  0.19595  0.97257  1.0000
  C   C4309     1.0  0.67317  0.99503  0.86648  1.0000
  H   H3445     1.0  0.73889  0.05599  0.97609  1.0000
  C   C4310     1.0  0.89892  0.22297  0.78415  1.0000
  Fe  Fe281     1.0  0.68629  0.12831  0.97944  1.0000
  H   H3446     1.0  0.68431  0.00180  0.79727  1.0000
  C   C4311     1.0  0.53118  0.03343  0.79358  1.0000
  C   C4312     1.0  0.69220  0.98968  0.79677  1.0000
  C   C4313     1.0  0.98825  0.15987  0.94045  1.0000
  C   C4314     1.0  0.98522  0.08012  0.83894  1.0000
  H   H3447     1.0  0.60627  0.13220  0.96816  1.0000
  C   C4315     1.0  0.82404  0.47512  0.91864  1.0000
  H   H3448     1.0  0.75012  0.46681  0.79349  1.0000
  H   H3449     1.0  0.58095  0.99046  0.92530  1.0000
  C   C4316     1.0  0.82971  0.10833  0.97623  1.0000
  H   H3450     1.0  0.69428  0.99819  0.94723  1.0000
  H   H3451     1.0  0.97797  0.11423  0.90383  1.0000
  H   H3452     1.0  0.70748  0.99023  0.97109  1.0000
  H   H3453     1.0  0.58412  0.21939  0.97815  1.0000
  C   C4317     1.0  0.74536  0.48151  0.81120  1.0000
  C   C4318     1.0  0.57001  0.98739  0.83086  1.0000
  C   C4319     1.0  0.81923  0.00176  0.98176  1.0000
  C   C4320     1.0  0.74623  0.00460  0.98218  1.0000
  C   C4321     1.0  0.69191  0.01029  0.98220  1.0000
  H   H3454     1.0  0.89018  0.43677  0.78245  1.0000
  Fe  Fe282     1.0  0.68775  0.56962  0.04146  1.0000
  S   S564      1.0  0.70326  0.54378  0.04506  1.0000
  S   S565      1.0  0.66121  0.57424  0.03969  1.0000
  Fe  Fe283     1.0  0.71338  0.58415  0.04750  1.0000
  S   S566      1.0  0.73093  0.55970  0.05165  1.0000
  S   S567      1.0  0.71791  0.60777  0.04974  1.0000
  Fe  Fe284     1.0  0.72409  0.55614  0.02979  1.0000
  S   S568      1.0  0.74516  0.54516  0.01117  1.0000
  Fe  Fe285     1.0  0.70859  0.54981  0.06647  1.0000
  S   S569      1.0  0.70838  0.53452  0.09224  1.0000
  S   S570      1.0  0.70812  0.58157  0.02440  1.0000
  S   S571      1.0  0.69150  0.57470  0.06402  1.0000
  Fe  Fe286     1.0  0.79210  0.63882  0.00251  1.0000
  S   S572      1.0  0.78078  0.66232  0.01119  1.0000
  S   S573      1.0  0.79218  0.61405  0.01986  1.0000
  C   C4322     1.0  0.75707  0.60725  0.99395  1.0000
  C   C4323     1.0  0.78281  0.97478  0.11834  1.0000
  H   H3455     1.0  0.68263  0.49201  0.08799  1.0000
  C   C4324     1.0  0.97697  0.71309  0.10537  1.0000
  H   H3456     1.0  0.74639  0.60829  0.00404  1.0000
  C   C4325     1.0  0.98904  0.78252  0.10930  1.0000
  C   C4326     1.0  0.55166  0.54905  0.17614  1.0000
  C   C4327     1.0  0.68384  0.49925  0.09585  1.0000
  H   H3457     1.0  0.89590  0.74771  0.18082  1.0000
  Fe  Fe287     1.0  0.92414  0.77601  0.14821  1.0000
  S   S574      1.0  0.92448  0.77522  0.12231  1.0000
  H   H3458     1.0  0.91711  0.84467  0.13708  1.0000
  H   H3459     1.0  0.51484  0.51734  0.12412  1.0000
  S   S575      1.0  0.90197  0.81389  0.11951  1.0000
  C   C4328     1.0  0.79965  0.56370  0.01951  1.0000
  Fe  Fe288     1.0  0.89765  0.78800  0.12779  1.0000
  S   S576      1.0  0.87558  0.78150  0.12353  1.0000
  Fe  Fe289     1.0  0.92875  0.80104  0.11611  1.0000
  S   S577      1.0  0.94756  0.81014  0.09433  1.0000
  C   C4329     1.0  0.83079  0.65423  0.03170  1.0000
  S   S578      1.0  0.93105  0.80067  0.14139  1.0000
  Fe  Fe290     1.0  0.88000  0.93421  0.17420  1.0000
  H   H3460     1.0  0.60612  0.67595  0.98338  1.0000
  S   S579      1.0  0.97157  0.67111  0.13890  1.0000
  H   H3461     1.0  0.85825  0.56868  0.99577  1.0000
  Fe  Fe291     1.0  0.96420  0.65128  0.13201  1.0000
  S   S580      1.0  0.95974  0.65459  0.10684  1.0000
  H   H3462     1.0  0.89335  0.63960  0.00387  1.0000
  H   H3463     1.0  0.63077  0.61481  0.98768  1.0000
  Fe  Fe292     1.0  0.88767  0.69604  0.07246  1.0000
  S   S581      1.0  0.90396  0.69022  0.04881  1.0000
  S   S582      1.0  0.88634  0.67677  0.09616  1.0000
  Fe  Fe293     1.0  0.88004  0.73266  0.05774  1.0000
  S   S583      1.0  0.89619  0.72963  0.03278  1.0000
  S   S584      1.0  0.86514  0.75652  0.06508  1.0000
  Fe  Fe294     1.0  0.88415  0.70810  0.03648  1.0000
  S   S585      1.0  0.87837  0.69934  0.01615  1.0000
  Fe  Fe295     1.0  0.91435  0.71196  0.04754  1.0000
  S   S586      1.0  0.94193  0.70642  0.04675  1.0000
  S   S587      1.0  0.86699  0.71232  0.06053  1.0000
  S   S588      1.0  0.89886  0.71672  0.07183  1.0000
  C   C4330     1.0  0.94102  0.70737  0.09551  1.0000
  H   H3464     1.0  0.87606  0.68439  0.13820  1.0000
  C   C4331     1.0  0.68713  0.51788  0.11613  1.0000
  H   H3465     1.0  0.96780  0.86198  0.14419  1.0000
  H   H3466     1.0  0.80971  0.64942  0.07857  1.0000
  C   C4332     1.0  0.76898  0.97808  0.13097  1.0000
  C   C4333     1.0  0.82078  0.95492  0.07968  1.0000
  C   C4334     1.0  0.85846  0.96529  0.14924  1.0000
  C   C4335     1.0  0.85548  0.87722  0.15911  1.0000
  H   H3467     1.0  0.67115  0.50416  0.13540  1.0000
  H   H3468     1.0  0.88442  0.95997  0.13791  1.0000
  H   H3469     1.0  0.78641  0.54793  0.99447  1.0000
  C   C4336     1.0  0.95382  0.72091  0.04481  1.0000
  C   C4337     1.0  0.96759  0.71568  0.05212  1.0000
  C   C4338     1.0  0.97868  0.72593  0.04932  1.0000
  C   C4339     1.0  0.97631  0.74151  0.03882  1.0000
  C   C4340     1.0  0.96231  0.74699  0.03176  1.0000
  C   C4341     1.0  0.95100  0.73678  0.03486  1.0000
  H   H3470     1.0  0.96985  0.70350  0.05982  1.0000
  Fe  Fe296     1.0  0.80249  0.67207  0.99385  1.0000
  H   H3471     1.0  0.96038  0.75903  0.02362  1.0000
  H   H3472     1.0  0.94050  0.74092  0.02905  1.0000
  C   C4342     1.0  0.93904  0.66117  0.10486  1.0000
  C   C4343     1.0  0.92593  0.65683  0.11775  1.0000
  C   C4344     1.0  0.90970  0.66136  0.11511  1.0000
  C   C4345     1.0  0.90648  0.67094  0.09991  1.0000
  C   C4346     1.0  0.91957  0.67564  0.08737  1.0000
  C   C4347     1.0  0.93576  0.67054  0.08970  1.0000
  H   H3473     1.0  0.92831  0.64973  0.12960  1.0000
  H   H3474     1.0  0.89969  0.65746  0.12477  1.0000
  H   H3475     1.0  0.91742  0.68310  0.07567  1.0000
  H   H3476     1.0  0.94566  0.67429  0.07973  1.0000
  C   C4348     1.0  0.71736  0.63502  0.00391  1.0000
  H   H3477     1.0  0.86257  0.71641  0.09578  1.0000
  S   S589      1.0  0.81150  0.68871  0.00492  1.0000
  C   C4349     1.0  0.84285  0.81597  0.13562  1.0000
  H   H3478     1.0  0.84049  0.66112  0.02786  1.0000
  H   H3479     1.0  0.53566  0.51239  0.17515  1.0000
  H   H3480     1.0  0.65575  0.51603  0.07803  1.0000
  C   C4350     1.0  0.50489  0.55619  0.17481  1.0000
  C   C4351     1.0  0.76472  0.62264  0.09695  1.0000
  H   H3481     1.0  0.92636  0.72785  0.08148  1.0000
  C   C4352     1.0  0.86931  0.76336  0.08078  1.0000
  C   C4353     1.0  0.88495  0.75907  0.08477  1.0000
  C   C4354     1.0  0.88744  0.76505  0.09743  1.0000
  C   C4355     1.0  0.87419  0.77500  0.10632  1.0000
  C   C4356     1.0  0.85866  0.77914  0.10230  1.0000
  C   C4357     1.0  0.85633  0.77364  0.08945  1.0000
  H   H3482     1.0  0.89512  0.75133  0.07797  1.0000
  H   H3483     1.0  0.89946  0.76169  0.10052  1.0000
  H   H3484     1.0  0.84832  0.78664  0.10918  1.0000
  H   H3485     1.0  0.84427  0.77708  0.08643  1.0000
  C   C4358     1.0  0.96625  0.79588  0.09554  1.0000
  C   C4359     1.0  0.97342  0.78637  0.08363  1.0000
  C   C4360     1.0  0.94697  0.60096  0.14020  1.0000
  H   H3486     1.0  0.88291  0.90967  0.14308  1.0000
  C   C4361     1.0  0.86139  0.84011  0.12791  1.0000
  C   C4362     1.0  0.97394  0.79383  0.10851  1.0000
  H   H3487     1.0  0.96732  0.78772  0.07376  1.0000
  C   C4363     1.0  0.84369  0.97717  0.14992  1.0000
  H   H3488     1.0  0.58158  0.50914  0.12451  1.0000
  H   H3489     1.0  0.96830  0.80099  0.11786  1.0000
  H   H3490     1.0  0.60987  0.51119  0.11019  1.0000
  C   C4364     1.0  0.96879  0.72850  0.09779  1.0000
  H   H3491     1.0  0.69992  0.51310  0.07652  1.0000
  C   C4365     1.0  0.81723  0.88402  0.18025  1.0000
  C   C4366     1.0  0.77340  0.64170  0.07135  1.0000
  H   H3492     1.0  0.87601  0.65610  0.15440  1.0000
  C   C4367     1.0  0.84789  0.57746  0.99135  1.0000
  H   H3493     1.0  0.88532  0.61457  0.02341  1.0000
  C   C4368     1.0  0.87685  0.71837  0.12815  1.0000
  C   C4369     1.0  0.96826  0.74262  0.10299  1.0000
  Fe  Fe297     1.0  0.61390  0.50139  0.16271  1.0000
  C   C4370     1.0  0.56460  0.54235  0.16439  1.0000
  H   H3494     1.0  0.56408  0.54618  0.15150  1.0000
  C   C4371     1.0  0.83032  0.69142  0.00773  1.0000
  C   C4372     1.0  0.82956  0.70003  0.01974  1.0000
  C   C4373     1.0  0.84407  0.70242  0.02259  1.0000
  C   C4374     1.0  0.85960  0.69645  0.01330  1.0000
  C   C4375     1.0  0.86034  0.68801  0.00116  1.0000
  C   C4376     1.0  0.84586  0.68532  0.99852  1.0000
  H   H3495     1.0  0.81763  0.70497  0.02683  1.0000
  H   H3496     1.0  0.84325  0.70927  0.03166  1.0000
  C   C4377     1.0  0.85364  0.83463  0.14428  1.0000
  H   H3497     1.0  0.76732  0.63828  0.04991  1.0000
  C   C4378     1.0  0.69524  0.52050  0.09952  1.0000
  C   C4379     1.0  0.67714  0.50623  0.12253  1.0000
  H   H3498     1.0  0.99132  0.71920  0.01867  1.0000
  S   S590      1.0  0.62861  0.64578  0.00454  1.0000
  S   S591      1.0  0.93859  0.67967  0.18003  1.0000
  C   C4380     1.0  0.87568  0.71268  0.11487  1.0000
  H   H3499     1.0  0.68859  0.52486  0.12410  1.0000
  C   C4381     1.0  0.75894  0.62096  0.07167  1.0000
  H   H3500     1.0  0.76393  0.61819  0.11009  1.0000
  H   H3501     1.0  0.65819  0.62200  0.99326  1.0000
  C   C4382     1.0  0.73857  0.60936  0.04156  1.0000
  C   C4383     1.0  0.74220  0.62476  0.03334  1.0000
  C   C4384     1.0  0.75863  0.62616  0.02638  1.0000
  C   C4385     1.0  0.77157  0.61231  0.02834  1.0000
  C   C4386     1.0  0.76798  0.59705  0.03721  1.0000
  C   C4387     1.0  0.75150  0.59549  0.04352  1.0000
  H   H3502     1.0  0.73231  0.63559  0.03202  1.0000
  H   H3503     1.0  0.76121  0.63802  0.01960  1.0000
  H   H3504     1.0  0.77792  0.58639  0.03902  1.0000
  H   H3505     1.0  0.74883  0.58365  0.05025  1.0000
  C   C4388     1.0  0.65299  0.59442  0.02996  1.0000
  C   C4389     1.0  0.66032  0.60132  0.01386  1.0000
  C   C4390     1.0  0.65277  0.61700  0.00587  1.0000
  C   C4391     1.0  0.63820  0.62602  0.01415  1.0000
  C   C4392     1.0  0.63099  0.61910  0.03029  1.0000
  C   C4393     1.0  0.63824  0.60326  0.03807  1.0000
  H   H3506     1.0  0.67151  0.59436  0.00739  1.0000
  H   H3507     1.0  0.61971  0.62595  0.03672  1.0000
  H   H3508     1.0  0.63251  0.59786  0.05044  1.0000
  H   H3509     1.0  0.73017  0.63585  0.00109  1.0000
  C   C4394     1.0  0.70506  0.65796  0.05937  1.0000
  C   C4395     1.0  0.68418  0.63316  0.01180  1.0000
  C   C4396     1.0  0.68921  0.64366  0.01839  1.0000
  P   P147      1.0  0.67418  0.65580  0.03190  1.0000
  C   C4397     1.0  0.66298  0.67221  0.01844  1.0000
  C   C4398     1.0  0.66128  0.64292  0.04704  1.0000
  C   C4399     1.0  0.66694  0.62569  0.05100  1.0000
  C   C4400     1.0  0.65653  0.61575  0.06203  1.0000
  C   C4401     1.0  0.64060  0.62293  0.06953  1.0000
  C   C4402     1.0  0.63514  0.64009  0.06623  1.0000
  C   C4403     1.0  0.64550  0.65008  0.05512  1.0000
  C   C4404     1.0  0.64759  0.67130  0.01656  1.0000
  C   C4405     1.0  0.63932  0.68371  0.00554  1.0000
  C   C4406     1.0  0.64650  0.69695  0.99610  1.0000
  C   C4407     1.0  0.52673  0.52910  0.13522  1.0000
  C   C4408     1.0  0.67038  0.68524  0.00848  1.0000
  C   C4409     1.0  0.68424  0.66331  0.04330  1.0000
  C   C4410     1.0  0.69655  0.65233  0.05112  1.0000
  C   C4411     1.0  0.68838  0.68553  0.05295  1.0000
  C   C4412     1.0  0.67991  0.67990  0.04462  1.0000
  H   H3510     1.0  0.67131  0.63251  0.01468  1.0000
  H   H3511     1.0  0.67931  0.61983  0.04544  1.0000
  H   H3512     1.0  0.66076  0.60243  0.06450  1.0000
  H   H3513     1.0  0.63249  0.61517  0.07781  1.0000
  H   H3514     1.0  0.62280  0.64565  0.07207  1.0000
  H   H3515     1.0  0.64109  0.66336  0.05255  1.0000
  H   H3516     1.0  0.64220  0.66074  0.02310  1.0000
  C   C4413     1.0  0.70389  0.48912  0.14699  1.0000
  H   H3517     1.0  0.61788  0.54173  0.17980  1.0000
  C   C4414     1.0  0.93571  0.73531  0.17017  1.0000
  H   H3518     1.0  0.92404  0.70685  0.00737  1.0000
  H   H3519     1.0  0.69978  0.63946  0.05050  1.0000
  H   H3520     1.0  0.68523  0.69841  0.05363  1.0000
  H   H3521     1.0  0.67010  0.68854  0.03916  1.0000
  C   C4415     1.0  0.86058  0.95414  0.10714  1.0000
  C   C4416     1.0  0.85719  0.94403  0.12278  1.0000
  C   C4417     1.0  0.84082  0.94402  0.13120  1.0000
  C   C4418     1.0  0.82780  0.95420  0.12403  1.0000
  C   C4419     1.0  0.83110  0.96460  0.10842  1.0000
  C   C4420     1.0  0.84759  0.96431  0.09990  1.0000
  H   H3522     1.0  0.88990  0.96885  0.16671  1.0000
  H   H3523     1.0  0.85661  0.91494  0.16317  1.0000
  C   C4421     1.0  0.96080  0.84486  0.17716  1.0000
  H   H3524     1.0  0.56198  0.51125  0.14952  1.0000
  H   H3525     1.0  0.84221  0.74098  0.10374  1.0000
  H   H3526     1.0  0.78282  0.96654  0.11089  1.0000
  P   P148      1.0  0.96665  0.82893  0.16541  1.0000
  C   C4422     1.0  0.82179  0.91726  0.17735  1.0000
  H   H3527     1.0  0.94565  0.73434  0.14454  1.0000
  H   H3528     1.0  0.87328  0.95437  0.10082  1.0000
  H   H3529     1.0  0.86723  0.93662  0.12867  1.0000
  H   H3530     1.0  0.83829  0.93658  0.14356  1.0000
  H   H3531     1.0  0.81524  0.95419  0.13089  1.0000
  H   H3532     1.0  0.85041  0.97220  0.08782  1.0000
  S   S592      1.0  0.94692  0.64488  0.15616  1.0000
  H   H3533     1.0  0.80059  0.95048  0.05281  1.0000
  Fe  Fe298     1.0  0.95622  0.66293  0.16384  1.0000
  P   P149      1.0  0.80256  0.57618  0.98576  1.0000
  H   H3534     1.0  0.54710  0.75601  0.98865  1.0000
  C   C4423     1.0  0.81735  0.94825  0.06823  1.0000
  C   C4424     1.0  0.69352  0.51124  0.08932  1.0000
  C   C4425     1.0  0.76665  0.63407  0.06307  1.0000
  C   C4426     1.0  0.83980  0.79203  0.17311  1.0000
  H   H3535     1.0  0.97604  0.75265  0.11880  1.0000
  H   H3536     1.0  0.75374  0.61521  0.06517  1.0000
  S   S593      1.0  0.98563  0.63133  0.13871  1.0000
  C   C4427     1.0  0.66201  0.69770  0.99758  1.0000
  H   H3537     1.0  0.82580  0.93751  0.06422  1.0000
  C   C4428     1.0  0.78488  0.59293  0.98342  1.0000
  H   H3538     1.0  0.97258  0.72644  0.17101  1.0000
  C   C4429     1.0  0.96064  0.68181  0.01472  1.0000
  C   C4430     1.0  0.95451  0.81332  0.17526  1.0000
  P   P150      1.0  0.83178  0.89553  0.18056  1.0000
  C   C4431     1.0  0.79363  0.86751  0.17944  1.0000
  H   H3539     1.0  0.83192  0.94918  0.08436  1.0000
  H   H3540     1.0  0.66489  0.55179  0.99148  1.0000
  C   C4432     1.0  0.74264  0.54980  0.99081  1.0000
  C   C4433     1.0  0.90260  0.73473  0.14530  1.0000
  S   S594      1.0  0.99141  0.75359  0.03318  1.0000
  C   C4434     1.0  0.59071  0.49787  0.12339  1.0000
  H   H3541     1.0  0.90880  0.73770  0.13248  1.0000
  H   H3542     1.0  0.97603  0.61817  0.11055  1.0000
  C   C4435     1.0  0.98340  0.67039  0.06316  1.0000
  C   C4436     1.0  0.98170  0.67478  0.04677  1.0000
  H   H3543     1.0  0.98945  0.72146  0.05472  1.0000
  C   C4437     1.0  0.81533  0.88243  0.16514  1.0000
  C   C4438     1.0  0.93759  0.70113  0.17547  1.0000
  H   H3544     1.0  0.86910  0.84900  0.12494  1.0000
  C   C4439     1.0  0.79228  0.96941  0.06692  1.0000
  C   C4440     1.0  0.86301  0.72059  0.10635  1.0000
  C   C4441     1.0  0.88357  0.98167  0.16588  1.0000
  C   C4442     1.0  0.88732  0.64000  0.01658  1.0000
  H   H3545     1.0  0.70498  0.55763  0.00816  1.0000
  H   H3546     1.0  0.98057  0.56935  0.14212  1.0000
  H   H3547     1.0  0.96585  0.66889  0.01902  1.0000
  C   C4443     1.0  0.98818  0.77463  0.08479  1.0000
  P   P151      1.0  0.78354  0.65860  0.06009  1.0000
  C   C4444     1.0  0.79643  0.98196  0.11558  1.0000
  H   H3548     1.0  0.84400  0.75124  0.12724  1.0000
  C   C4445     1.0  0.88691  0.72755  0.17861  1.0000
  C   C4446     1.0  0.84689  0.75745  0.17790  1.0000
  H   H3549     1.0  0.97751  0.70212  0.10128  1.0000
  C   C4447     1.0  0.92881  0.80423  0.18049  1.0000
  H   H3550     1.0  0.97449  0.66439  0.07268  1.0000
  H   H3551     1.0  0.97128  0.67221  0.04398  1.0000
  H   H3552     1.0  0.87220  0.68360  0.99362  1.0000
  C   C4448     1.0  0.97087  0.60871  0.12002  1.0000
  C   C4449     1.0  0.88373  0.67926  0.14719  1.0000
  H   H3553     1.0  0.70774  0.67900  0.06648  1.0000
  H   H3554     1.0  0.85954  0.97613  0.17671  1.0000
  C   C4450     1.0  0.96207  0.86179  0.12163  1.0000
  C   C4451     1.0  0.95723  0.85290  0.11313  1.0000
  P   P152      1.0  0.89449  0.70911  0.13762  1.0000
  C   C4452     1.0  0.94281  0.71019  0.15952  1.0000
  C   C4453     1.0  0.96466  0.85466  0.13760  1.0000
  H   H3555     1.0  0.96309  0.87447  0.11614  1.0000
  H   H3556     1.0  0.95465  0.85858  0.10099  1.0000
  C   C4454     1.0  0.73674  0.53893  0.98565  1.0000
  C   C4455     1.0  0.97024  0.69372  0.01094  1.0000
  H   H3557     1.0  0.84868  0.86748  0.16430  1.0000
  H   H3558     1.0  0.54119  0.55808  0.17228  1.0000
  H   H3559     1.0  0.83630  0.80613  0.13841  1.0000
  C   C4456     1.0  0.82847  0.61738  0.10408  1.0000
  C   C4457     1.0  0.82100  0.61273  0.09409  1.0000
  C   C4458     1.0  0.82621  0.61677  0.07696  1.0000
  C   C4459     1.0  0.83893  0.62540  0.06982  1.0000
  C   C4460     1.0  0.84684  0.62969  0.07977  1.0000
  C   C4461     1.0  0.84125  0.62593  0.09696  1.0000
  P   P153      1.0  0.86252  0.64177  0.07081  1.0000
  C   C4462     1.0  0.87146  0.64136  0.04939  1.0000
  C   C4463     1.0  0.85232  0.66235  0.07377  1.0000
  C   C4464     1.0  0.84236  0.67293  0.06305  1.0000
  C   C4465     1.0  0.83360  0.68849  0.06592  1.0000
  C   C4466     1.0  0.83482  0.69364  0.07945  1.0000
  C   C4467     1.0  0.84468  0.68315  0.09021  1.0000
  C   C4468     1.0  0.85324  0.66748  0.08750  1.0000
  C   C4469     1.0  0.87511  0.62654  0.04400  1.0000
  C   C4470     1.0  0.88273  0.62596  0.02757  1.0000
  C   C4471     1.0  0.82030  0.58346  0.98595  1.0000
  C   C4472     1.0  0.88443  0.65454  0.02205  1.0000
  C   C4473     1.0  0.87648  0.65529  0.03836  1.0000
  C   C4474     1.0  0.88005  0.63381  0.08049  1.0000
  C   C4475     1.0  0.89151  0.64364  0.07779  1.0000
  C   C4476     1.0  0.90546  0.63751  0.08474  1.0000
  C   C4477     1.0  0.90810  0.62154  0.09442  1.0000
  C   C4478     1.0  0.89694  0.61153  0.09689  1.0000
  C   C4479     1.0  0.88303  0.61757  0.08982  1.0000
  H   H3560     1.0  0.82431  0.61441  0.11737  1.0000
  H   H3561     1.0  0.81108  0.60613  0.09958  1.0000
  H   H3562     1.0  0.82024  0.61345  0.06916  1.0000
  H   H3563     1.0  0.84235  0.62886  0.05656  1.0000
  H   H3564     1.0  0.84676  0.62969  0.10484  1.0000
  H   H3565     1.0  0.84148  0.66925  0.05238  1.0000
  H   H3566     1.0  0.82605  0.69667  0.05751  1.0000
  H   H3567     1.0  0.82848  0.70592  0.08134  1.0000
  H   H3568     1.0  0.84611  0.68729  0.10042  1.0000
  H   H3569     1.0  0.86079  0.65956  0.09603  1.0000
  H   H3570     1.0  0.87222  0.61538  0.05252  1.0000
  H   H3571     1.0  0.76878  0.51019  0.98634  1.0000
  C   C4480     1.0  0.52524  0.51601  0.12951  1.0000
  C   C4481     1.0  0.89598  0.85421  0.17394  1.0000
  H   H3572     1.0  0.87462  0.66669  0.04232  1.0000
  H   H3573     1.0  0.88963  0.65614  0.07043  1.0000
  H   H3574     1.0  0.91414  0.64527  0.08273  1.0000
  H   H3575     1.0  0.91883  0.61697  0.09995  1.0000
  H   H3576     1.0  0.89912  0.59907  0.10423  1.0000
  H   H3577     1.0  0.87476  0.60951  0.09155  1.0000
  C   C4482     1.0  0.77075  0.67446  0.04746  1.0000
  C   C4483     1.0  0.77731  0.68769  0.03671  1.0000
  C   C4484     1.0  0.76832  0.69929  0.02575  1.0000
  C   C4485     1.0  0.75256  0.69794  0.02559  1.0000
  C   C4486     1.0  0.74557  0.68530  0.03680  1.0000
  C   C4487     1.0  0.75448  0.67374  0.04790  1.0000
  H   H3578     1.0  0.79620  0.62973  0.04406  1.0000
  H   H3579     1.0  0.78965  0.68874  0.03629  1.0000
  H   H3580     1.0  0.77395  0.70887  0.01683  1.0000
  H   H3581     1.0  0.74595  0.70640  0.01650  1.0000
  H   H3582     1.0  0.73348  0.68412  0.03637  1.0000
  H   H3583     1.0  0.74871  0.66415  0.05639  1.0000
  C   C4488     1.0  0.65826  0.54053  0.07671  1.0000
  C   C4489     1.0  0.65251  0.52606  0.08439  1.0000
  C   C4490     1.0  0.64306  0.52431  0.10050  1.0000
  C   C4491     1.0  0.63913  0.53710  0.10886  1.0000
  C   C4492     1.0  0.64488  0.55170  0.10120  1.0000
  C   C4493     1.0  0.65450  0.55330  0.08507  1.0000
  P   P154      1.0  0.63922  0.56870  0.11147  1.0000
  C   C4494     1.0  0.62267  0.58430  0.10360  1.0000
  C   C4495     1.0  0.63247  0.56095  0.13336  1.0000
  C   C4496     1.0  0.61572  0.56055  0.14012  1.0000
  C   C4497     1.0  0.89515  0.74056  0.17260  1.0000
  C   C4498     1.0  0.92055  0.86368  0.14698  1.0000
  C   C4499     1.0  0.63868  0.54740  0.16032  1.0000
  C   C4500     1.0  0.64395  0.55418  0.14358  1.0000
  C   C4501     1.0  0.61302  0.59617  0.11271  1.0000
  C   C4502     1.0  0.60035  0.60844  0.10665  1.0000
  C   C4503     1.0  0.59722  0.60895  0.09145  1.0000
  C   C4504     1.0  0.60676  0.59720  0.08230  1.0000
  C   C4505     1.0  0.61946  0.58493  0.08831  1.0000
  C   C4506     1.0  0.65722  0.57729  0.10767  1.0000
  C   C4507     1.0  0.65585  0.59446  0.10420  1.0000
  C   C4508     1.0  0.66998  0.60098  0.10034  1.0000
  C   C4509     1.0  0.68554  0.59043  0.10025  1.0000
  C   C4510     1.0  0.68697  0.57335  0.10410  1.0000
  C   C4511     1.0  0.67292  0.56680  0.10757  1.0000
  H   H3584     1.0  0.66574  0.54187  0.06427  1.0000
  H   H3585     1.0  0.95710  0.81683  0.14151  1.0000
  C   C4512     1.0  0.99308  0.68275  0.03437  1.0000
  H   H3586     1.0  0.63177  0.53539  0.12132  1.0000
  H   H3587     1.0  0.65894  0.56449  0.07882  1.0000
  H   H3588     1.0  0.60671  0.56489  0.13241  1.0000
  C   C4513     1.0  0.53705  0.50113  0.13092  1.0000
  C   C4514     1.0  0.61049  0.55396  0.15687  1.0000
  C   C4515     1.0  0.72591  0.68586  0.98275  1.0000
  H   H3589     1.0  0.65701  0.55370  0.13863  1.0000
  H   H3590     1.0  0.61535  0.59598  0.12448  1.0000
  C   C4516     1.0  0.87020  0.87443  0.14737  1.0000
  H   H3591     1.0  0.75355  0.57109  0.98315  1.0000
  H   H3592     1.0  0.60443  0.59763  0.07046  1.0000
  H   H3593     1.0  0.62672  0.57611  0.08087  1.0000
  H   H3594     1.0  0.64399  0.60290  0.10409  1.0000
  H   H3595     1.0  0.66894  0.61423  0.09708  1.0000
  H   H3596     1.0  0.69656  0.59546  0.09679  1.0000
  H   H3597     1.0  0.69908  0.56515  0.10368  1.0000
  H   H3598     1.0  0.67440  0.55354  0.10980  1.0000
  C   C4517     1.0  0.79560  0.97599  0.07845  1.0000
  H   H3599     1.0  0.96680  0.74921  0.14834  1.0000
  S   S595      1.0  0.96534  0.60070  0.17634  1.0000
  H   H3600     1.0  0.84670  0.67882  0.98915  1.0000
  C   C4518     1.0  0.89462  0.72147  0.15129  1.0000
  H   H3601     1.0  0.98745  0.67659  0.98533  1.0000
  C   C4519     1.0  0.94410  0.68653  0.01329  1.0000
  C   C4520     1.0  0.95658  0.58538  0.14534  1.0000
  C   C4521     1.0  0.91332  0.85077  0.14734  1.0000
  H   H3602     1.0  0.60009  0.64847  0.98824  1.0000
  C   C4522     1.0  0.85992  0.83352  0.11544  1.0000
  H   H3603     1.0  0.59293  0.61754  0.11375  1.0000
  H   H3604     1.0  0.54107  0.53736  0.14700  1.0000
  H   H3605     1.0  0.78711  0.98682  0.08219  1.0000
  C   C4523     1.0  0.78654  0.54094  0.03503  1.0000
  H   H3606     1.0  0.95118  0.57658  0.15556  1.0000
  H   H3607     1.0  0.88501  0.70252  0.11070  1.0000
  C   C4524     1.0  0.54003  0.52733  0.14232  1.0000
  H   H3608     1.0  0.82270  0.88786  0.15361  1.0000
  C   C4525     1.0  0.80993  0.96890  0.08485  1.0000
  H   H3609     1.0  0.95275  0.68731  0.11237  1.0000
  H   H3610     1.0  0.71716  0.71176  0.98259  1.0000
  C   C4526     1.0  0.95834  0.82946  0.13621  1.0000
  C   C4527     1.0  0.88648  0.71812  0.16796  1.0000
  H   H3611     1.0  0.80500  0.57374  0.01944  1.0000
  C   C4528     1.0  0.86004  0.90384  0.15849  1.0000
  H   H3612     1.0  0.81062  0.82676  0.14842  1.0000
  C   C4529     1.0  0.96296  0.71043  0.00567  1.0000
  C   C4530     1.0  0.90099  0.84601  0.16084  1.0000
  H   H3613     1.0  0.59759  0.55352  0.16195  1.0000
  C   C4531     1.0  0.93800  0.81651  0.17389  1.0000
  C   C4532     1.0  0.87299  0.96921  0.13853  1.0000
  P   P155      1.0  0.99163  0.68740  0.01297  1.0000
  S   S596      1.0  0.85829  0.94590  0.16242  1.0000
  S   S597      1.0  0.97703  0.64367  0.17344  1.0000
  H   H3614     1.0  0.81590  0.66239  0.09768  1.0000
  S   S598      1.0  0.59255  0.52060  0.15438  1.0000
  H   H3615     1.0  0.93230  0.82842  0.16742  1.0000
  H   H3616     1.0  0.89402  0.64338  0.17469  1.0000
  C   C4533     1.0  0.95408  0.61250  0.12742  1.0000
  H   H3617     1.0  0.96304  0.72958  0.08773  1.0000
  H   H3618     1.0  0.98425  0.56714  0.11032  1.0000
  C   C4534     1.0  0.57801  0.53039  0.16929  1.0000
  H   H3619     1.0  0.75843  0.97268  0.13291  1.0000
  C   C4535     1.0  0.70575  0.64509  0.01377  1.0000
  C   C4536     1.0  0.90285  0.74417  0.15596  1.0000
  C   C4537     1.0  0.85150  0.73438  0.11091  1.0000
  H   H3620     1.0  0.55380  0.70491  0.98828  1.0000
  C   C4538     1.0  0.90392  0.66495  0.17012  1.0000
  C   C4539     1.0  0.85737  0.76659  0.16583  1.0000
  C   C4540     1.0  0.96264  0.83848  0.14508  1.0000
  C   C4541     1.0  0.80365  0.87411  0.16476  1.0000
  C   C4542     1.0  0.77084  0.59449  0.99627  1.0000
  H   H3621     1.0  0.87451  0.86278  0.14349  1.0000
  C   C4543     1.0  0.78694  0.83092  0.16474  1.0000
  C   C4544     1.0  0.91301  0.70883  0.12143  1.0000
  H   H3622     1.0  0.88004  0.70807  0.17278  1.0000
  C   C4545     1.0  0.98459  0.72603  0.12315  1.0000
  H   H3623     1.0  0.70539  0.50178  0.14291  1.0000
  C   C4546     1.0  0.55065  0.49935  0.13779  1.0000
  C   C4547     1.0  0.86648  0.98579  0.17158  1.0000
  H   H3624     1.0  0.86241  0.79055  0.15438  1.0000
  H   H3625     1.0  0.76662  0.68861  0.07311  1.0000
  C   C4548     1.0  0.98903  0.77345  0.15392  1.0000
  Fe  Fe299     1.0  0.90390  0.81170  0.14543  1.0000
  C   C4549     1.0  0.92768  0.69719  0.12367  1.0000
  H   H3626     1.0  0.79157  0.94529  0.15949  1.0000
  H   H3627     1.0  0.77731  0.52977  0.02093  1.0000
  H   H3628     1.0  0.69186  0.61505  0.99675  1.0000
  C   C4550     1.0  0.84866  0.59406  0.98513  1.0000
  S   S599      1.0  0.63872  0.50795  0.15446  1.0000
  H   H3629     1.0  0.68061  0.54559  0.01318  1.0000
  H   H3630     1.0  0.68280  0.68556  0.00878  1.0000
  H   H3631     1.0  0.77034  0.58591  0.00807  1.0000
  H   H3632     1.0  0.99324  0.76682  0.07596  1.0000
  H   H3633     1.0  0.93662  0.67738  0.01667  1.0000
  H   H3634     1.0  0.78026  0.83450  0.15489  1.0000
  H   H3635     1.0  0.90961  0.75389  0.15139  1.0000
  C   C4551     1.0  0.80911  0.92363  0.16847  1.0000
  H   H3636     1.0  0.58743  0.61846  0.08672  1.0000
  C   C4552     1.0  0.82052  0.63139  0.03033  1.0000
  C   C4553     1.0  0.91565  0.87185  0.16008  1.0000
  H   H3637     1.0  0.97648  0.83957  0.06021  1.0000
  C   C4554     1.0  0.85002  0.89223  0.16439  1.0000
  S   S600      1.0  0.92545  0.88767  0.15933  1.0000
  C   C4555     1.0  0.91282  0.72026  0.10629  1.0000
  C   C4556     1.0  0.68424  0.55377  0.00148  1.0000
  C   C4557     1.0  0.86517  0.73222  0.13273  1.0000
  H   H3638     1.0  0.88849  0.66528  0.01368  1.0000
  C   C4558     1.0  0.97532  0.76802  0.15351  1.0000
  H   H3639     1.0  0.77306  0.70151  0.09209  1.0000
  C   C4559     1.0  0.90334  0.86703  0.17361  1.0000
  H   H3640     1.0  0.91192  0.68781  0.16294  1.0000
  C   C4560     1.0  0.80617  0.95095  0.17295  1.0000
  S   S601      1.0  0.89702  0.78706  0.15427  1.0000
  S   S602      1.0  0.93510  0.75642  0.16806  1.0000
  C   C4561     1.0  0.89387  0.68836  0.14946  1.0000
  C   C4562     1.0  0.92675  0.71942  0.09335  1.0000
  H   H3641     1.0  0.73202  0.52885  0.99459  1.0000
  H   H3642     1.0  0.91616  0.80676  0.17907  1.0000
  C   C4563     1.0  0.98842  0.81951  0.16348  1.0000
  C   C4564     1.0  0.55189  0.51250  0.14370  1.0000
  C   C4565     1.0  0.69578  0.62331  0.00164  1.0000
  H   H3643     1.0  0.85961  0.59819  0.98467  1.0000
  C   C4566     1.0  0.50576  0.49424  0.17100  1.0000
  C   C4567     1.0  0.71243  0.62405  0.99790  1.0000
  C   C4568     1.0  0.70104  0.67459  0.06022  1.0000
  H   H3644     1.0  0.95157  0.70631  0.08534  1.0000
  C   C4569     1.0  0.75797  0.61524  0.08859  1.0000
  H   H3645     1.0  0.75198  0.60505  0.09517  1.0000
  H   H3646     1.0  0.93413  0.60422  0.14635  1.0000
  H   H3647     1.0  0.86806  0.76049  0.15793  1.0000
  H   H3648     1.0  0.70982  0.65385  0.01781  1.0000
  C   C4570     1.0  0.62195  0.54733  0.16696  1.0000
  H   H3649     1.0  0.85556  0.83947  0.15375  1.0000
  H   H3650     1.0  0.98491  0.85110  0.16966  1.0000
  H   H3651     1.0  0.71487  0.64939  0.06493  1.0000
  C   C4571     1.0  0.78396  0.53895  0.02049  1.0000
  C   C4572     1.0  0.80306  0.65109  0.04687  1.0000
  C   C4573     1.0  0.80566  0.63673  0.04096  1.0000
  H   H3652     1.0  0.80516  0.91577  0.16319  1.0000
  C   C4574     1.0  0.67547  0.49688  0.11243  1.0000
  C   C4575     1.0  0.80134  0.94041  0.16631  1.0000
  C   C4576     1.0  0.97622  0.74143  0.11550  1.0000
  H   H3653     1.0  0.78202  0.53320  0.04672  1.0000
  C   C4577     1.0  0.85401  0.78374  0.16367  1.0000
  C   C4578     1.0  0.78779  0.66805  0.07433  1.0000
  H   H3654     1.0  0.90184  0.72960  0.10428  1.0000
  H   H3655     1.0  0.56451  0.50374  0.17874  1.0000
  H   H3656     1.0  0.66790  0.70756  0.98968  1.0000
  C   C4579     1.0  0.81581  0.65981  0.04208  1.0000
  H   H3657     1.0  0.81408  0.67120  0.04594  1.0000
  C   C4580     1.0  0.80159  0.66071  0.08151  1.0000
  H   H3658     1.0  0.96974  0.72000  0.00307  1.0000
  H   H3659     1.0  0.99111  0.69991  0.12365  1.0000
  C   C4581     1.0  0.94167  0.72736  0.15683  1.0000
  C   C4582     1.0  0.90393  0.68106  0.16102  1.0000
  Fe  Fe300     1.0  0.96909  0.62632  0.16363  1.0000
  H   H3660     1.0  0.82208  0.62066  0.02536  1.0000
  H   H3661     1.0  0.51752  0.54057  0.13429  1.0000
  H   H3662     1.0  0.96194  0.75457  0.09707  1.0000
  C   C4583     1.0  0.79482  0.68272  0.09618  1.0000
  H   H3663     1.0  0.97398  0.82833  0.09001  1.0000
  C   C4584     1.0  0.77243  0.63580  0.08838  1.0000
  C   C4585     1.0  0.83306  0.64019  0.02563  1.0000
  C   C4586     1.0  0.80507  0.66800  0.09240  1.0000
  C   C4587     1.0  0.93699  0.70316  0.00804  1.0000
  H   H3664     1.0  0.84440  0.63632  0.01705  1.0000
  H   H3665     1.0  0.94763  0.70402  0.14930  1.0000
  H   H3666     1.0  0.89169  0.88377  0.13276  1.0000
  C   C4588     1.0  0.89383  0.65595  0.16778  1.0000
  S   S603      1.0  0.74104  0.68403  0.99404  1.0000
  C   C4589     1.0  0.80314  0.95552  0.06181  1.0000
  Fe  Fe301     1.0  0.64307  0.49219  0.17893  1.0000
  H   H3667     1.0  0.94670  0.62462  0.12348  1.0000
  C   C4590     1.0  0.95525  0.83680  0.12049  1.0000
  S   S604      1.0  0.90630  0.93395  0.16132  1.0000
  H   H3668     1.0  0.96289  0.77520  0.15690  1.0000
  C   C4591     1.0  0.78098  0.69006  0.08921  1.0000
  H   H3669     1.0  0.80221  0.87299  0.15306  1.0000
  C   C4592     1.0  0.84426  0.82251  0.14829  1.0000
  C   C4593     1.0  0.85064  0.82147  0.11930  1.0000
  H   H3670     1.0  0.92968  0.86765  0.13633  1.0000
  C   C4594     1.0  0.87996  0.88623  0.14136  1.0000
  H   H3671     1.0  0.99266  0.81765  0.13803  1.0000
  C   C4595     1.0  0.77740  0.68272  0.07838  1.0000
  H   H3672     1.0  0.77751  0.64133  0.09515  1.0000
  C   C4596     1.0  0.88367  0.66313  0.15639  1.0000
  H   H3673     1.0  0.86609  0.73736  0.14245  1.0000
  C   C4597     1.0  0.79444  0.55328  0.03454  1.0000
  C   C4598     1.0  0.80424  0.82652  0.16111  1.0000
  C   C4599     1.0  0.98072  0.59319  0.12528  1.0000
  P   P156      1.0  0.81440  0.97807  0.09919  1.0000
  H   H3674     1.0  0.83245  0.97420  0.15821  1.0000
  H   H3675     1.0  0.79768  0.68851  0.10443  1.0000
  H   H3676     1.0  0.64764  0.54173  0.16805  1.0000
  C   C4600     1.0  0.79720  0.56168  0.00482  1.0000
  H   H3677     1.0  0.95108  0.83004  0.11409  1.0000
  C   C4601     1.0  0.55009  0.73000  0.99031  1.0000
  C   C4602     1.0  0.60685  0.49914  0.11499  1.0000
  H   H3678     1.0  0.85013  0.81584  0.10971  1.0000
  C   C4603     1.0  0.94162  0.69656  0.11076  1.0000
  C   C4604     1.0  0.85254  0.74016  0.12413  1.0000
  C   C4605     1.0  0.87497  0.90086  0.14708  1.0000
  C   C4606     1.0  0.78920  0.54930  0.00543  1.0000
  H   H3679     1.0  0.63918  0.51283  0.10669  1.0000
  H   H3680     1.0  0.51115  0.56539  0.17514  1.0000
  H   H3681     1.0  0.64039  0.70628  0.98712  1.0000
  H   H3682     1.0  0.79604  0.55513  0.04586  1.0000
  S   S605      1.0  0.89106  0.83043  0.16139  1.0000
  H   H3683     1.0  0.78136  0.97526  0.06181  1.0000
  H   H3684     1.0  0.62765  0.68267  0.00388  1.0000
  Fe  Fe302     1.0  0.91077  0.90709  0.17406  1.0000
  C   C4607     1.0  0.97332  0.58143  0.13781  1.0000
  H   H3685     1.0  0.86644  0.83730  0.10285  1.0000
  H   H3686     1.0  0.92844  0.68836  0.13517  1.0000
  C   C4608     1.0  0.97753  0.75325  0.14865  1.0000
  H   H3687     1.0  0.54769  0.72692  0.00366  1.0000
  P   P157      1.0  0.83525  0.81434  0.16956  1.0000
  H   H3688     1.0  0.50858  0.50562  0.16301  1.0000
  S   S606      1.0  0.81478  0.64760  0.98648  1.0000
  C   C4609     1.0  0.94642  0.71509  0.00420  1.0000
  C   C4610     1.0  0.83378  0.57216  0.99173  1.0000
  C   C4611     1.0  0.99035  0.68019  0.17034  1.0000
  C   C4612     1.0  0.98672  0.83835  0.06582  1.0000
  Fe  Fe303     1.0  0.76800  0.67008  0.98997  1.0000
  H   H3689     1.0  0.80026  0.96398  0.17125  1.0000
  H   H3690     1.0  0.84955  0.74414  0.17951  1.0000
  C   C4613     1.0  0.69780  0.56080  0.99880  1.0000
  H   H3691     1.0  0.53536  0.49106  0.12684  1.0000
  H   H3692     1.0  0.69215  0.49137  0.17197  1.0000
  C   C4614     1.0  0.98471  0.71187  0.11807  1.0000
  C   C4615     1.0  0.81300  0.82157  0.17381  1.0000
  H   H3693     1.0  0.83342  0.55923  0.99638  1.0000
  S   S607      1.0  0.77771  0.64562  0.98278  1.0000
  C   C4616     1.0  0.98531  0.83199  0.08270  1.0000
  C   C4617     1.0  0.87272  0.98526  0.12880  1.0000
  H   H3694     1.0  0.94074  0.72802  0.00065  1.0000
  H   H3695     1.0  0.78432  0.86143  0.17909  1.0000
  H   H3696     1.0  0.98958  0.55194  0.08841  1.0000
  C   C4618     1.0  0.97787  0.71365  0.17058  1.0000
  H   H3697     1.0  0.72144  0.61617  0.99032  1.0000
  H   H3698     1.0  0.91195  0.65944  0.17882  1.0000
  C   C4619     1.0  0.98916  0.70902  0.15657  1.0000
  C   C4620     1.0  0.70215  0.57188  0.98403  1.0000
  Fe  Fe304     1.0  0.99172  0.65052  0.14760  1.0000
  H   H3699     1.0  0.99285  0.87468  0.11919  1.0000
  C   C4621     1.0  0.67534  0.55737  0.98913  1.0000
  H   H3700     1.0  0.98728  0.78490  0.15762  1.0000
  C   C4622     1.0  0.97238  0.85383  0.17672  1.0000
  C   C4623     1.0  0.81875  0.94473  0.18175  1.0000
  C   C4624     1.0  0.77825  0.83040  0.18105  1.0000
  C   C4625     1.0  0.91591  0.97025  0.19988  1.0000
  H   H3701     1.0  0.86020  0.90137  0.29899  1.0000
  H   H3702     1.0  0.92915  0.77884  0.19289  1.0000
  H   H3703     1.0  0.96597  0.50437  0.32691  1.0000
  Fe  Fe305     1.0  0.52291  0.54584  0.26784  1.0000
  S   S608      1.0  0.54615  0.54767  0.24871  1.0000
  S   S609      1.0  0.51055  0.56747  0.28027  1.0000
  Fe  Fe306     1.0  0.52264  0.51193  0.26223  1.0000
  S   S610      1.0  0.54593  0.51162  0.24268  1.0000
  H   H3704     1.0  0.53684  0.57987  0.33268  1.0000
  Fe  Fe307     1.0  0.55479  0.52102  0.25973  1.0000
  S   S611      1.0  0.58105  0.51187  0.26262  1.0000
  Fe  Fe308     1.0  0.53493  0.53830  0.23363  1.0000
  S   S612      1.0  0.53466  0.55113  0.20726  1.0000
  S   S613      1.0  0.53228  0.51963  0.28018  1.0000
  S   S614      1.0  0.51078  0.53818  0.25195  1.0000
  Fe  Fe309     1.0  0.88902  0.91401  0.20644  1.0000
  H   H3705     1.0  0.97425  0.79470  0.18500  1.0000
  S   S615      1.0  0.87796  0.90381  0.23281  1.0000
  C   C4626     1.0  0.49690  0.83171  0.27630  1.0000
  H   H3706     1.0  0.57589  0.62870  0.37252  1.0000
  C   C4627     1.0  0.66341  0.50315  0.26709  1.0000
  C   C4628     1.0  0.50549  0.88555  0.29832  1.0000
  C   C4629     1.0  0.79546  0.86897  0.19452  1.0000
  S   S616      1.0  0.79288  0.95282  0.29005  1.0000
  S   S617      1.0  0.74669  0.95076  0.30871  1.0000
  C   C4630     1.0  0.65441  0.54379  0.35576  1.0000
  Fe  Fe310     1.0  0.79404  0.95994  0.26287  1.0000
  S   S618      1.0  0.80390  0.94364  0.24447  1.0000
  H   H3707     1.0  0.65463  0.51133  0.22914  1.0000
  H   H3708     1.0  0.88303  0.96685  0.22787  1.0000
  Fe  Fe311     1.0  0.54436  0.63050  0.30476  1.0000
  S   S619      1.0  0.55050  0.63033  0.32851  1.0000
  S   S620      1.0  0.55566  0.60794  0.29338  1.0000
  Fe  Fe312     1.0  0.52242  0.66527  0.30312  1.0000
  S   S621      1.0  0.52636  0.66781  0.32682  1.0000
  S   S622      1.0  0.50505  0.68482  0.28862  1.0000
  Fe  Fe313     1.0  0.55287  0.65665  0.31757  1.0000
  S   S623      1.0  0.57311  0.66703  0.32064  1.0000
  Fe  Fe314     1.0  0.52363  0.64149  0.33599  1.0000
  C   C4631     1.0  0.57384  0.57550  0.23142  1.0000
  S   S624      1.0  0.54938  0.65587  0.29284  1.0000
  S   S625      1.0  0.51715  0.63980  0.31313  1.0000
  C   C4632     1.0  0.55270  0.77077  0.26148  1.0000
  H   H3709     1.0  0.94763  0.88134  0.19971  1.0000
  C   C4633     1.0  0.98765  0.48797  0.31634  1.0000
  H   H3710     1.0  0.72987  0.86717  0.34603  1.0000
  H   H3711     1.0  0.51767  0.53726  0.19171  1.0000
  C   C4634     1.0  0.50454  0.70574  0.28721  1.0000
  H   H3712     1.0  0.61673  0.49238  0.34111  1.0000
  H   H3713     1.0  0.67154  0.50589  0.27308  1.0000
  C   C4635     1.0  0.66959  0.53259  0.35622  1.0000
  C   C4636     1.0  0.83723  0.83592  0.18746  1.0000
  S   S626      1.0  0.81258  0.98376  0.30078  1.0000
  H   H3714     1.0  0.78132  0.94463  0.36136  1.0000
  H   H3715     1.0  0.97379  0.55343  0.22155  1.0000
  H   H3716     1.0  0.62331  0.50838  0.20805  1.0000
  H   H3717     1.0  0.64227  0.53268  0.32109  1.0000
  H   H3718     1.0  0.75384  0.90578  0.34273  1.0000
  C   C4637     1.0  0.52212  0.77494  0.35094  1.0000
  C   C4638     1.0  0.51000  0.77117  0.36503  1.0000
  C   C4639     1.0  0.50860  0.54018  0.18420  1.0000
  C   C4640     1.0  0.49635  0.70234  0.34786  1.0000
  C   C4641     1.0  0.62014  0.59982  0.20018  1.0000
  C   C4642     1.0  0.51766  0.78218  0.33576  1.0000
  C   C4643     1.0  0.51404  0.88901  0.28193  1.0000
  C   C4644     1.0  0.51519  0.81028  0.29170  1.0000
  P   P158      1.0  0.50436  0.50794  0.19729  1.0000
  Fe  Fe315     1.0  0.90879  0.93913  0.18467  1.0000
  C   C4645     1.0  0.78300  0.93438  0.35567  1.0000
  C   C4646     1.0  0.55950  0.69320  0.35703  1.0000
  C   C4647     1.0  0.55931  0.68727  0.34334  1.0000
  C   C4648     1.0  0.57114  0.67337  0.33907  1.0000
  H   H3719     1.0  0.80910  0.84396  0.37366  1.0000
  H   H3720     1.0  0.98849  0.81885  0.18870  1.0000
  H   H3721     1.0  0.55062  0.70410  0.36007  1.0000
  H   H3722     1.0  0.55048  0.69379  0.33569  1.0000
  C   C4649     1.0  0.90377  0.98497  0.20033  1.0000
  C   C4650     1.0  0.85743  0.91502  0.23649  1.0000
  C   C4651     1.0  0.84867  0.91630  0.25252  1.0000
  C   C4652     1.0  0.83233  0.92562  0.25519  1.0000
  C   C4653     1.0  0.82464  0.93309  0.24183  1.0000
  C   C4654     1.0  0.83330  0.93144  0.22592  1.0000
  C   C4655     1.0  0.84972  0.92267  0.22322  1.0000
  H   H3723     1.0  0.85456  0.91020  0.26278  1.0000
  H   H3724     1.0  0.82561  0.92678  0.26753  1.0000
  H   H3725     1.0  0.82733  0.93715  0.21564  1.0000
  H   H3726     1.0  0.85624  0.92148  0.21086  1.0000
  S   S627      1.0  0.57053  0.73857  0.38011  1.0000
  H   H3727     1.0  0.51810  0.85251  0.27183  1.0000
  H   H3728     1.0  0.82494  0.75839  0.19727  1.0000
  H   H3729     1.0  0.95853  0.57283  0.20108  1.0000
  C   C4656     1.0  0.50132  0.87016  0.30523  1.0000
  H   H3730     1.0  0.51717  0.90097  0.27654  1.0000
  H   H3731     1.0  0.92986  0.94338  0.25596  1.0000
  C   C4657     1.0  0.52344  0.57886  0.28308  1.0000
  C   C4658     1.0  0.51668  0.59495  0.28566  1.0000
  C   C4659     1.0  0.52635  0.60401  0.28890  1.0000
  C   C4660     1.0  0.54297  0.59704  0.28945  1.0000
  C   C4661     1.0  0.54981  0.58104  0.28657  1.0000
  C   C4662     1.0  0.54011  0.57197  0.28341  1.0000
  H   H3732     1.0  0.58935  0.51664  0.18977  1.0000
  H   H3733     1.0  0.52093  0.61634  0.29100  1.0000
  H   H3734     1.0  0.56266  0.57561  0.28693  1.0000
  H   H3735     1.0  0.54543  0.55956  0.28148  1.0000
  H   H3736     1.0  0.56707  0.58604  0.25303  1.0000
  H   H3737     1.0  0.78762  0.86391  0.20591  1.0000
  C   C4663     1.0  0.60375  0.54883  0.22417  1.0000
  H   H3738     1.0  0.96383  0.70526  0.19485  1.0000
  H   H3739     1.0  0.56617  0.52843  0.21071  1.0000
  H   H3740     1.0  0.92617  0.73213  0.19635  1.0000
  C   C4664     1.0  0.74112  0.87172  0.34314  1.0000
  C   C4665     1.0  0.93610  0.78855  0.18835  1.0000
  C   C4666     1.0  0.73040  0.93151  0.35690  1.0000
  C   C4667     1.0  0.73330  0.93538  0.33962  1.0000
  C   C4668     1.0  0.74254  0.94722  0.33037  1.0000
  C   C4669     1.0  0.74815  0.95587  0.33852  1.0000
  C   C4670     1.0  0.74463  0.95250  0.35587  1.0000
  H   H3741     1.0  0.72363  0.92205  0.36390  1.0000
  H   H3742     1.0  0.72872  0.92885  0.33335  1.0000
  H   H3743     1.0  0.75511  0.96517  0.33146  1.0000
  C   C4671     1.0  0.64302  0.49600  0.25093  1.0000
  S   S628      1.0  0.50887  0.49094  0.27095  1.0000
  H   H3744     1.0  0.52715  0.78472  0.32486  1.0000
  H   H3745     1.0  0.80148  0.91002  0.26141  1.0000
  C   C4672     1.0  0.97035  0.57452  0.20163  1.0000
  H   H3746     1.0  0.52908  0.65663  0.36200  1.0000
  H   H3747     1.0  0.93506  0.92331  0.23830  1.0000
  C   C4673     1.0  0.65107  0.52183  0.31769  1.0000
  C   C4674     1.0  0.52933  0.81336  0.34587  1.0000
  H   H3748     1.0  0.59233  0.65492  0.34529  1.0000
  H   H3749     1.0  0.50388  0.60035  0.28528  1.0000
  H   H3750     1.0  0.79792  0.92363  0.31856  1.0000
  C   C4675     1.0  0.58070  0.71533  0.31966  1.0000
  C   C4676     1.0  0.88995  0.94441  0.25605  1.0000
  C   C4677     1.0  0.65391  0.50637  0.24222  1.0000
  C   C4678     1.0  0.87544  0.98620  0.25827  1.0000
  H   H3751     1.0  0.77470  0.89620  0.36488  1.0000
  H   H3752     1.0  0.52805  0.68741  0.36772  1.0000
  C   C4679     1.0  0.60086  0.49393  0.31038  1.0000
  C   C4680     1.0  0.55792  0.49313  0.20456  1.0000
  P   P159      1.0  0.86898  0.95525  0.26270  1.0000
  H   H3753     1.0  0.83665  0.92364  0.19035  1.0000
  H   H3754     1.0  0.54492  0.74803  0.27331  1.0000
  C   C4681     1.0  0.60485  0.59452  0.23366  1.0000
  C   C4682     1.0  0.84324  0.96323  0.24575  1.0000
  C   C4683     1.0  0.55722  0.72004  0.29513  1.0000
  H   H3755     1.0  0.83921  0.85295  0.20066  1.0000
  H   H3756     1.0  0.62002  0.56342  0.25199  1.0000
  C   C4684     1.0  0.64017  0.52118  0.36700  1.0000
  C   C4685     1.0  0.84407  0.82059  0.18297  1.0000
  C   C4686     1.0  0.86004  0.96235  0.24466  1.0000
  C   C4687     1.0  0.66727  0.51851  0.31978  1.0000
  H   H3757     1.0  0.59848  0.59298  0.24651  1.0000
  H   H3758     1.0  0.87614  0.91919  0.27668  1.0000
  C   C4688     1.0  0.58297  0.66543  0.34864  1.0000
  C   C4689     1.0  0.86407  0.92468  0.28310  1.0000
  H   H3759     1.0  0.55777  0.64226  0.35268  1.0000
  C   C4690     1.0  0.56057  0.78251  0.26247  1.0000
  H   H3760     1.0  0.92716  0.70238  0.20086  1.0000
  C   C4691     1.0  0.93126  0.70927  0.18856  1.0000
  C   C4692     1.0  0.65757  0.49718  0.30658  1.0000
  H   H3761     1.0  0.62186  0.55099  0.28097  1.0000
  H   H3762     1.0  0.63366  0.51416  0.30945  1.0000
  C   C4693     1.0  0.75646  0.86174  0.33785  1.0000
  C   C4694     1.0  0.60993  0.55822  0.26039  1.0000
  H   H3763     1.0  0.52096  0.70645  0.34249  1.0000
  H   H3764     1.0  0.58108  0.53984  0.23162  1.0000
  C   C4695     1.0  0.59401  0.53768  0.22551  1.0000
  C   C4696     1.0  0.51187  0.70008  0.35121  1.0000
  H   H3765     1.0  0.53826  0.59833  0.25031  1.0000
  H   H3766     1.0  0.49398  0.69093  0.25681  1.0000
  C   C4697     1.0  0.78337  0.91121  0.30144  1.0000
  H   H3767     1.0  0.52839  0.59518  0.22713  1.0000
  H   H3768     1.0  0.91137  0.91674  0.23202  1.0000
  C   C4698     1.0  0.51477  0.71410  0.27389  1.0000
  C   C4699     1.0  0.89302  0.93304  0.24610  1.0000
  H   H3769     1.0  0.85997  0.96358  0.29569  1.0000
  C   C4700     1.0  0.80887  0.89190  0.28238  1.0000
  C   C4701     1.0  0.77015  0.88343  0.33643  1.0000
  C   C4702     1.0  0.63399  0.49022  0.35596  1.0000
  H   H3770     1.0  0.92705  0.86588  0.20037  1.0000
  C   C4703     1.0  0.56326  0.63491  0.37680  1.0000
  C   C4704     1.0  0.67868  0.50464  0.31523  1.0000
  C   C4705     1.0  0.65238  0.49282  0.27594  1.0000
  H   H3771     1.0  0.81872  0.88448  0.27492  1.0000
  P   P160      1.0  0.78881  0.89108  0.33148  1.0000
  C   C4706     1.0  0.58351  0.55077  0.26582  1.0000
  H   H3772     1.0  0.81863  0.78867  0.19324  1.0000
  C   C4707     1.0  0.51623  0.59899  0.34019  1.0000
  S   S629      1.0  0.50875  0.63321  0.36127  1.0000
  H   H3773     1.0  0.83631  0.96130  0.28412  1.0000
  H   H3774     1.0  0.58033  0.70625  0.31334  1.0000
  C   C4708     1.0  0.75471  0.89346  0.34142  1.0000
  C   C4709     1.0  0.50101  0.78579  0.33469  1.0000
  C   C4710     1.0  0.90334  0.94795  0.25975  1.0000
  H   H3775     1.0  0.56174  0.68529  0.27257  1.0000
  C   C4711     1.0  0.61227  0.60807  0.22637  1.0000
  C   C4712     1.0  0.54670  0.69826  0.29145  1.0000
  H   H3776     1.0  0.58079  0.72351  0.27914  1.0000
  C   C4713     1.0  0.78598  0.90841  0.34061  1.0000
  C   C4714     1.0  0.96769  0.86680  0.18500  1.0000
  C   C4715     1.0  0.66416  0.50988  0.25027  1.0000
  C   C4716     1.0  0.57017  0.73109  0.31773  1.0000
  C   C4717     1.0  0.55205  0.58150  0.21638  1.0000
  C   C4718     1.0  0.87007  0.96720  0.22915  1.0000
  H   H3777     1.0  0.93505  0.84306  0.18605  1.0000
  C   C4719     1.0  0.51551  0.73996  0.34413  1.0000
  H   H3778     1.0  0.59944  0.71805  0.34850  1.0000
  H   H3779     1.0  0.63126  0.89222  0.37075  1.0000
  C   C4720     1.0  0.57118  0.71654  0.28261  1.0000
  C   C4721     1.0  0.56300  0.58459  0.24280  1.0000
  H   H3780     1.0  0.83879  0.84387  0.36120  1.0000
  C   C4722     1.0  0.54669  0.59174  0.24119  1.0000
  H   H3781     1.0  0.89961  0.87303  0.18390  1.0000
  C   C4723     1.0  0.51284  0.73126  0.27126  1.0000
  C   C4724     1.0  0.79034  0.93555  0.33894  1.0000
  C   C4725     1.0  0.59848  0.54367  0.28766  1.0000
  H   H3782     1.0  0.87161  0.97552  0.20314  1.0000
  C   C4726     1.0  0.56051  0.69496  0.27886  1.0000
  H   H3783     1.0  0.77884  0.92701  0.27830  1.0000
  C   C4727     1.0  0.59130  0.71072  0.33063  1.0000
  C   C4728     1.0  0.85866  0.83112  0.20252  1.0000
  C   C4729     1.0  0.57129  0.68500  0.36667  1.0000
  C   C4730     1.0  0.86437  0.97363  0.28648  1.0000
  H   H3784     1.0  0.97656  0.87386  0.18443  1.0000
  C   C4731     1.0  0.79333  0.89703  0.30926  1.0000
  C   C4732     1.0  0.61787  0.51971  0.21241  1.0000
  C   C4733     1.0  0.54117  0.59006  0.22808  1.0000
  H   H3785     1.0  0.59075  0.50357  0.30639  1.0000
  H   H3786     1.0  0.78751  0.86418  0.36080  1.0000
  H   H3787     1.0  0.64080  0.52779  0.20563  1.0000
  C   C4734     1.0  0.53754  0.81657  0.32936  1.0000
  H   H3788     1.0  0.52532  0.78800  0.28245  1.0000
  H   H3789     1.0  0.52519  0.87970  0.25976  1.0000
  H   H3790     1.0  0.84205  0.97589  0.20513  1.0000
  H   H3791     1.0  0.98482  0.49202  0.30420  1.0000
  C   C4735     1.0  0.52854  0.82448  0.31707  1.0000
  C   C4736     1.0  0.53684  0.65093  0.37087  1.0000
  C   C4737     1.0  0.58375  0.49284  0.27652  1.0000
  C   C4738     1.0  0.51213  0.81831  0.35015  1.0000
  H   H3792     1.0  0.82392  0.96871  0.23235  1.0000
  C   C4739     1.0  0.61722  0.49501  0.30285  1.0000
  H   H3793     1.0  0.75709  0.84947  0.33645  1.0000
  C   C4740     1.0  0.64250  0.48896  0.26763  1.0000
  H   H3794     1.0  0.52399  0.70734  0.26539  1.0000
  C   C4741     1.0  0.51855  0.87702  0.27247  1.0000
  H   H3795     1.0  0.51170  0.79827  0.25864  1.0000
  S   S630      1.0  0.88407  0.90715  0.18536  1.0000
  C   C4742     1.0  0.77734  0.92018  0.36495  1.0000
  C   C4743     1.0  0.73614  0.94000  0.36508  1.0000
  H   H3796     1.0  0.62582  0.60203  0.18715  1.0000
  H   H3797     1.0  0.50200  0.89483  0.30565  1.0000
  H   H3798     1.0  0.76483  0.83360  0.18385  1.0000
  S   S631      1.0  0.91629  0.91206  0.19614  1.0000
  H   H3799     1.0  0.54769  0.58003  0.20633  1.0000
  H   H3800     1.0  0.49770  0.79121  0.32294  1.0000
  H   H3801     1.0  0.55087  0.81250  0.32611  1.0000
  H   H3802     1.0  0.49417  0.61754  0.34497  1.0000
  H   H3803     1.0  0.55898  0.49707  0.29118  1.0000
  H   H3804     1.0  0.72616  0.82877  0.37686  1.0000
  H   H3805     1.0  0.53507  0.82678  0.30431  1.0000
  S   S632      1.0  0.88200  0.94121  0.19651  1.0000
  H   H3806     1.0  0.49491  0.75754  0.31313  1.0000
  C   C4744     1.0  0.56705  0.78034  0.27627  1.0000
  C   C4745     1.0  0.55199  0.54375  0.19287  1.0000
  H   H3807     1.0  0.86435  0.79914  0.18430  1.0000
  C   C4746     1.0  0.51790  0.80044  0.28037  1.0000
  C   C4747     1.0  0.53820  0.50592  0.18705  1.0000
  C   C4748     1.0  0.49970  0.82187  0.26493  1.0000
  C   C4749     1.0  0.49343  0.77471  0.36392  1.0000
  C   C4750     1.0  0.50032  0.52823  0.18427  1.0000
  C   C4751     1.0  0.62000  0.61067  0.20966  1.0000
  C   C4752     1.0  0.51487  0.57924  0.32569  1.0000
  H   H3808     1.0  0.56717  0.86900  0.37288  1.0000
  H   H3809     1.0  0.62793  0.54680  0.36104  1.0000
  H   H3810     1.0  0.98604  0.60838  0.22896  1.0000
  P   P161      1.0  0.59489  0.56647  0.23353  1.0000
  C   C4753     1.0  0.51441  0.86161  0.27935  1.0000
  C   C4754     1.0  0.80582  0.88715  0.29960  1.0000
  C   C4755     1.0  0.59157  0.72180  0.33966  1.0000
  H   H3811     1.0  0.59202  0.66462  0.36980  1.0000
  H   H3812     1.0  0.77327  0.91876  0.30862  1.0000
  C   C4756     1.0  0.58123  0.73751  0.33770  1.0000
  C   C4757     1.0  0.97686  0.49494  0.32923  1.0000
  C   C4758     1.0  0.50040  0.74031  0.28166  1.0000
  C   C4759     1.0  0.55449  0.50123  0.18912  1.0000
  C   C4760     1.0  0.83301  0.76550  0.18783  1.0000
  C   C4761     1.0  0.83941  0.92121  0.30440  1.0000
  H   H3813     1.0  0.86269  0.87574  0.19081  1.0000
  C   C4762     1.0  0.92552  0.97540  0.22165  1.0000
  C   C4763     1.0  0.77898  0.90718  0.35749  1.0000
  C   C4764     1.0  0.81264  0.85266  0.36231  1.0000
  H   H3814     1.0  0.62870  0.55302  0.21678  1.0000
  H   H3815     1.0  0.69178  0.85476  0.36565  1.0000
  C   C4765     1.0  0.55302  0.64251  0.36559  1.0000
  H   H3816     1.0  0.59351  0.51445  0.22114  1.0000
  C   C4766     1.0  0.62771  0.53066  0.21112  1.0000
  C   C4767     1.0  0.65539  0.50981  0.36723  1.0000
  C   C4768     1.0  0.56838  0.57433  0.21795  1.0000
  C   C4769     1.0  0.67392  0.49411  0.30850  1.0000
  C   C4770     1.0  0.92250  0.92899  0.24347  1.0000
  H   H3817     1.0  0.50580  0.81556  0.36295  1.0000
  S   S633      1.0  0.76688  0.97037  0.26546  1.0000
  C   C4771     1.0  0.96160  0.79763  0.18363  1.0000
  H   H3818     1.0  0.82081  0.94351  0.30692  1.0000
  H   H3819     1.0  0.68097  0.53705  0.35226  1.0000
  H   H3820     1.0  0.57091  0.76509  0.29951  1.0000
  H   H3821     1.0  0.58363  0.70127  0.26494  1.0000
  C   C4772     1.0  0.52522  0.50232  0.20034  1.0000
  C   C4773     1.0  0.80039  0.86409  0.35485  1.0000
  C   C4774     1.0  0.77095  0.86760  0.33443  1.0000
  C   C4775     1.0  0.57281  0.70402  0.27452  1.0000
  C   C4776     1.0  0.83279  0.93811  0.30019  1.0000
  C   C4777     1.0  0.80416  0.82137  0.19015  1.0000
  C   C4778     1.0  0.83681  0.96830  0.23151  1.0000
  H   H3822     1.0  0.57302  0.55007  0.26166  1.0000
  H   H3823     1.0  0.52328  0.60403  0.34552  1.0000
  C   C4779     1.0  0.54504  0.71071  0.29963  1.0000
  C   C4780     1.0  0.51118  0.82889  0.32119  1.0000
  S   S634      1.0  0.54286  0.77039  0.35230  1.0000
  P   P162      1.0  0.49986  0.83850  0.30491  1.0000
  C   C4781     1.0  0.51016  0.80621  0.26698  1.0000
  C   C4782     1.0  0.55760  0.75463  0.28833  1.0000
  H   H3824     1.0  0.67105  0.52681  0.32472  1.0000
  H   H3825     1.0  0.93429  0.97181  0.22955  1.0000
  C   C4783     1.0  0.82150  0.87592  0.33361  1.0000
  H   H3826     1.0  0.53718  0.69122  0.29484  1.0000
  S   S635      1.0  0.65736  0.49758  0.19426  1.0000
  C   C4784     1.0  0.85401  0.87985  0.20135  1.0000
  C   C4785     1.0  0.85919  0.87609  0.21619  1.0000
  C   C4786     1.0  0.84852  0.88167  0.22990  1.0000
  C   C4787     1.0  0.83262  0.89098  0.22881  1.0000
  C   C4788     1.0  0.82743  0.89488  0.21396  1.0000
  H   H3827     1.0  0.63962  0.49991  0.34741  1.0000
  H   H3828     1.0  0.81309  0.87571  0.30525  1.0000
  H   H3829     1.0  0.82506  0.88521  0.32284  1.0000
  H   H3830     1.0  0.53421  0.71300  0.30932  1.0000
  C   C4789     1.0  0.57038  0.74201  0.32704  1.0000
  C   C4790     1.0  0.84705  0.97240  0.21612  1.0000
  C   C4791     1.0  0.78638  0.91585  0.28426  1.0000
  H   H3831     1.0  0.84668  0.86463  0.33582  1.0000
  C   C4792     1.0  0.74025  0.88759  0.34486  1.0000
  C   C4793     1.0  0.83375  0.86439  0.34104  1.0000
  H   H3832     1.0  0.88284  0.93043  0.24287  1.0000
  H   H3833     1.0  0.61240  0.57831  0.19981  1.0000
  S   S636      1.0  0.49759  0.76204  0.27703  1.0000
  C   C4794     1.0  0.79915  0.90625  0.27474  1.0000
  C   C4795     1.0  0.50225  0.74735  0.33635  1.0000
  C   C4796     1.0  0.92656  0.96544  0.21082  1.0000
  H   H3834     1.0  0.87172  0.86942  0.21691  1.0000
  H   H3835     1.0  0.85284  0.87939  0.24116  1.0000
  H   H3836     1.0  0.82463  0.89591  0.23924  1.0000
  H   H3837     1.0  0.81531  0.90270  0.21317  1.0000
  H   H3838     1.0  0.78275  0.85981  0.33021  1.0000
  C   C4797     1.0  0.67010  0.51566  0.36190  1.0000
  C   C4798     1.0  0.50300  0.49200  0.18819  1.0000
  H   H3839     1.0  0.59935  0.53805  0.30032  1.0000
  Fe  Fe316     1.0  0.76596  0.96496  0.29258  1.0000
  C   C4799     1.0  0.55122  0.75690  0.27431  1.0000
  H   H3840     1.0  0.63517  0.49318  0.24463  1.0000
  C   C4800     1.0  0.50508  0.75154  0.31920  1.0000
  C   C4801     1.0  0.50465  0.82602  0.28978  1.0000
  C   C4802     1.0  0.91956  0.94026  0.25344  1.0000
  C   C4803     1.0  0.84164  0.94823  0.28730  1.0000
  H   H3841     1.0  0.88113  0.72460  0.19156  1.0000
  C   C4804     1.0  0.63972  0.53808  0.36116  1.0000
  C   C4805     1.0  0.85739  0.94167  0.27872  1.0000
  H   H3842     1.0  0.93622  0.95439  0.21034  1.0000
  C   C4806     1.0  0.82933  0.85272  0.35535  1.0000
  H   H3843     1.0  0.69129  0.50214  0.31673  1.0000
  H   H3844     1.0  0.86449  0.83529  0.20981  1.0000
  C   C4807     1.0  0.90921  0.92533  0.23987  1.0000
  H   H3845     1.0  0.57511  0.53742  0.29034  1.0000
  H   H3846     1.0  0.79445  0.94670  0.33169  1.0000
  C   C4808     1.0  0.57893  0.52578  0.18594  1.0000
  H   H3847     1.0  0.54753  0.77245  0.25086  1.0000
  H   H3848     1.0  0.56159  0.79332  0.25258  1.0000
  C   C4809     1.0  0.53163  0.73670  0.33473  1.0000
  H   H3849     1.0  0.83507  0.95971  0.25740  1.0000
  C   C4810     1.0  0.52384  0.58534  0.33304  1.0000
  H   H3850     1.0  0.97469  0.67557  0.19451  1.0000
  C   C4811     1.0  0.95141  0.87101  0.19367  1.0000
  C   C4812     1.0  0.56581  0.53239  0.19779  1.0000
  C   C4813     1.0  0.84445  0.84110  0.19730  1.0000
  H   H3851     1.0  0.61953  0.50571  0.29320  1.0000
  C   C4814     1.0  0.86361  0.97215  0.21499  1.0000
  H   H3852     1.0  0.67279  0.51770  0.24340  1.0000
  C   C4815     1.0  0.58477  0.54344  0.28212  1.0000
  C   C4816     1.0  0.56565  0.76645  0.28912  1.0000
  H   H3853     1.0  0.83245  0.91341  0.31432  1.0000
  C   C4817     1.0  0.85504  0.91448  0.29582  1.0000
  C   C4818     1.0  0.52110  0.74835  0.30978  1.0000
  C   C4819     1.0  0.59588  0.55854  0.25493  1.0000
  C   C4820     1.0  0.62075  0.54506  0.21721  1.0000
  H   H3854     1.0  0.58120  0.74610  0.34480  1.0000
  C   C4821     1.0  0.79202  0.92253  0.33147  1.0000
  H   H3855     1.0  0.51332  0.73704  0.35747  1.0000
  C   C4822     1.0  0.93982  0.86222  0.19414  1.0000
  C   C4823     1.0  0.60105  0.52320  0.21963  1.0000
  H   H3856     1.0  0.80823  0.87838  0.20676  1.0000
  H   H3857     1.0  0.90137  0.95689  0.26715  1.0000
  C   C4824     1.0  0.53456  0.74100  0.31741  1.0000
  S   S637      1.0  0.61728  0.48786  0.18816  1.0000
  C   C4825     1.0  0.61111  0.55100  0.27677  1.0000
  C   C4826     1.0  0.50558  0.85816  0.29574  1.0000
  H   H3858     1.0  0.57319  0.78943  0.27705  1.0000
  H   H3859     1.0  0.54166  0.73088  0.34109  1.0000
  H   H3860     1.0  0.59887  0.69832  0.33256  1.0000
  C   C4827     1.0  0.58285  0.67101  0.36249  1.0000
  H   H3861     1.0  0.57054  0.48977  0.20622  1.0000
  H   H3862     1.0  0.52285  0.75161  0.29653  1.0000
  H   H3863     1.0  0.57657  0.56769  0.20880  1.0000
  P   P163      1.0  0.55518  0.73666  0.30491  1.0000
  C   C4828     1.0  0.80474  0.87556  0.34023  1.0000
  H   H3864     1.0  0.56172  0.75383  0.32652  1.0000
  S   S638      1.0  0.80043  0.98437  0.25950  1.0000
  C   C4829     1.0  0.86931  0.97305  0.26968  1.0000
  H   H3865     1.0  0.74759  0.84463  0.37246  1.0000
  C   C4830     1.0  0.80720  0.87720  0.19495  1.0000
  C   C4831     1.0  0.61268  0.58629  0.20743  1.0000
  H   H3866     1.0  0.62564  0.62125  0.20402  1.0000
  C   C4832     1.0  0.83809  0.88935  0.20008  1.0000
  H   H3867     1.0  0.68197  0.50722  0.36231  1.0000
  H   H3868     1.0  0.52078  0.80521  0.30225  1.0000
  H   H3869     1.0  0.50324  0.52121  0.22542  1.0000
  Fe  Fe317     1.0  0.79653  0.97847  0.28700  1.0000
  H   H3870     1.0  0.74891  0.95924  0.36215  1.0000
  C   C4833     1.0  0.97673  0.58781  0.19095  1.0000
  H   H3871     1.0  0.61179  0.61669  0.23366  1.0000
  C   C4834     1.0  0.97903  0.56347  0.21317  1.0000
  H   H3872     1.0  0.87698  0.80845  0.20151  1.0000
  C   C4835     1.0  0.60536  0.58332  0.22432  1.0000
  C   C4836     1.0  0.64621  0.51123  0.31111  1.0000
  H   H3873     1.0  0.78013  0.82529  0.20640  1.0000
  C   C4837     1.0  0.50309  0.82627  0.33791  1.0000
  H   H3874     1.0  0.53627  0.80663  0.35532  1.0000
  H   H3875     1.0  0.95807  0.77304  0.19602  1.0000
  H   H3876     1.0  0.62863  0.51702  0.37157  1.0000
  C   C4838     1.0  0.86562  0.81592  0.19797  1.0000
  H   H3877     1.0  0.81063  0.81747  0.20017  1.0000
  C   C4839     1.0  0.49838  0.58695  0.32522  1.0000
  H   H3878     1.0  0.97169  0.49514  0.35503  1.0000
  H   H3879     1.0  0.52073  0.73760  0.26083  1.0000
  C   C4840     1.0  0.85840  0.81068  0.18818  1.0000
  H   H3880     1.0  0.72834  0.89526  0.34910  1.0000
  C   C4841     1.0  0.82947  0.78273  0.18547  1.0000
  C   C4842     1.0  0.78686  0.82573  0.19374  1.0000
  H   H3881     1.0  0.65403  0.55691  0.35143  1.0000
  C   C4843     1.0  0.51585  0.68923  0.36557  1.0000
  C   C4844     1.0  0.95244  0.78528  0.19002  1.0000
  C   C4845     1.0  0.94445  0.84922  0.18591  1.0000
  C   C4846     1.0  0.50454  0.68011  0.37656  1.0000
  H   H3882     1.0  0.82652  0.84399  0.18311  1.0000
  H   H3883     1.0  0.52094  0.56904  0.31958  1.0000
  C   C4847     1.0  0.82660  0.92801  0.18387  1.0000
  C   C4848     1.0  0.97900  0.68488  0.18412  1.0000
  H   H3884     1.0  0.49570  0.65854  0.33610  1.0000
  H   H3885     1.0  0.67577  0.83291  0.37782  1.0000
  H   H3886     1.0  0.87977  0.98595  0.24533  1.0000
  H   H3887     1.0  0.49464  0.86763  0.31794  1.0000
  H   H3888     1.0  0.82273  0.95295  0.18666  1.0000
  C   C4849     1.0  0.98008  0.48973  0.34506  1.0000
  H   H3889     1.0  0.49338  0.71060  0.33659  1.0000
  C   C4850     1.0  0.97289  0.70161  0.18429  1.0000
  C   C4851     1.0  0.69001  0.84947  0.37873  1.0000
  C   C4852     1.0  0.63171  0.88292  0.38206  1.0000
  H   H3890     1.0  0.88642  0.85062  0.18439  1.0000
  C   C4853     1.0  0.49969  0.60659  0.33993  1.0000
  H   H3891     1.0  0.77129  0.91941  0.37783  1.0000
  C   C4854     1.0  0.93070  0.72613  0.18600  1.0000
  C   C4855     1.0  0.52880  0.49344  0.21559  1.0000
  Fe  Fe318     1.0  0.54540  0.75242  0.37618  1.0000
  H   H3892     1.0  0.51899  0.49010  0.22581  1.0000
  S   S639      1.0  0.70868  0.87009  0.37906  1.0000
  H   H3893     1.0  0.51335  0.76545  0.37680  1.0000
  S   S640      1.0  0.92066  0.96012  0.18328  1.0000
  C   C4856     1.0  0.99207  0.58993  0.19175  1.0000
  C   C4857     1.0  0.54511  0.48891  0.21771  1.0000
  C   C4858     1.0  0.57079  0.48860  0.28954  1.0000
  P   P164      1.0  0.65592  0.48806  0.37546  1.0000
  Fe  Fe319     1.0  0.89786  0.78812  0.55516  1.0000
  S   S641      1.0  0.91970  0.79403  0.53501  1.0000
  Fe  Fe320     1.0  0.86039  0.79518  0.56681  1.0000
  S   S642      1.0  0.83598  0.80874  0.55946  1.0000
  C   C4859     1.0  0.63623  0.81478  0.57064  1.0000
  H   H3894     1.0  0.72312  0.84882  0.57868  1.0000
  S   S643      1.0  0.87824  0.77723  0.55227  1.0000
  Fe  Fe321     1.0  0.66506  0.89883  0.53539  1.0000
  S   S644      1.0  0.66711  0.87169  0.53868  1.0000
  S   S645      1.0  0.67788  0.91482  0.51272  1.0000
  H   H3895     1.0  0.49467  0.79675  0.39965  1.0000
  Fe  Fe322     1.0  0.67105  0.86947  0.56373  1.0000
  C   C4860     1.0  0.96803  0.81803  0.52815  1.0000
  Fe  Fe323     1.0  0.64025  0.87662  0.55053  1.0000
  S   S646      1.0  0.62426  0.86155  0.54671  1.0000
  S   S647      1.0  0.67173  0.89607  0.55950  1.0000
  S   S648      1.0  0.63758  0.90425  0.54542  1.0000
  Fe  Fe324     1.0  0.71713  0.88466  0.42850  1.0000
  S   S649      1.0  0.72925  0.86259  0.41707  1.0000
  S   S650      1.0  0.70060  0.87868  0.45342  1.0000
  H   H3896     1.0  0.77455  0.83851  0.47326  1.0000
  Fe  Fe325     1.0  0.75105  0.87453  0.40728  1.0000
  S   S651      1.0  0.77791  0.86162  0.40386  1.0000
  S   S652      1.0  0.70623  0.89995  0.40688  1.0000
  S   S653      1.0  0.73991  0.89515  0.42078  1.0000
  Fe  Fe326     1.0  0.63919  0.81713  0.46992  1.0000
  S   S654      1.0  0.63215  0.79264  0.48188  1.0000
  S   S655      1.0  0.63497  0.84050  0.47925  1.0000
  Fe  Fe327     1.0  0.65580  0.80673  0.43707  1.0000
  S   S656      1.0  0.65037  0.78134  0.44664  1.0000
  S   S657      1.0  0.66724  0.81440  0.41016  1.0000
  Fe  Fe328     1.0  0.62500  0.79397  0.45808  1.0000
  S   S658      1.0  0.59996  0.78986  0.45718  1.0000
  Fe  Fe329     1.0  0.65817  0.78226  0.46922  1.0000
  S   S659      1.0  0.67583  0.76032  0.48086  1.0000
  S   S660      1.0  0.63014  0.81938  0.44716  1.0000
  S   S661      1.0  0.66545  0.80660  0.45859  1.0000
  Fe  Fe330     1.0  0.78302  0.78031  0.51828  1.0000
  S   S662      1.0  0.78569  0.80451  0.50114  1.0000
  S   S663      1.0  0.80139  0.76674  0.53444  1.0000
  Fe  Fe331     1.0  0.75347  0.77873  0.50554  1.0000
  S   S664      1.0  0.75368  0.80309  0.48769  1.0000
  S   S665      1.0  0.73796  0.76059  0.50738  1.0000
  Fe  Fe332     1.0  0.78122  0.79425  0.48201  1.0000
  S   S666      1.0  0.79776  0.79696  0.45668  1.0000
  Fe  Fe333     1.0  0.75811  0.81123  0.50847  1.0000
  S   S667      1.0  0.74852  0.83717  0.51214  1.0000
  S   S668      1.0  0.78102  0.76922  0.49848  1.0000
  S   S669      1.0  0.75548  0.78758  0.52707  1.0000
  Fe  Fe334     1.0  0.56180  0.74411  0.40549  1.0000
  H   H3897     1.0  0.67524  0.94813  0.39163  1.0000
  S   S670      1.0  0.58265  0.75072  0.41284  1.0000
  Fe  Fe335     1.0  0.52794  0.73547  0.40890  1.0000
  H   H3898     1.0  0.69288  0.75385  0.43983  1.0000
  H   H3899     1.0  0.53676  0.68164  0.39184  1.0000
  H   H3900     1.0  0.83311  0.71884  0.57241  1.0000
  H   H3901     1.0  0.76408  0.83911  0.39358  1.0000
  H   H3902     1.0  0.51148  0.74413  0.45114  1.0000
  S   S671      1.0  0.55209  0.72065  0.41579  1.0000
  H   H3903     1.0  0.59993  0.69012  0.39900  1.0000
  C   C4861     1.0  0.74722  0.83301  0.57868  1.0000
  H   H3904     1.0  0.71992  0.74357  0.44810  1.0000
  C   C4862     1.0  0.59109  0.83619  0.44631  1.0000
  S   S672      1.0  0.53697  0.75940  0.40081  1.0000
  C   C4863     1.0  0.59548  0.77948  0.44418  1.0000
  C   C4864     1.0  0.60786  0.76935  0.43480  1.0000
  C   C4865     1.0  0.60365  0.76075  0.42530  1.0000
  C   C4866     1.0  0.58705  0.76222  0.42490  1.0000
  C   C4867     1.0  0.57466  0.77254  0.43410  1.0000
  C   C4868     1.0  0.57886  0.78100  0.44374  1.0000
  H   H3905     1.0  0.62067  0.76797  0.43504  1.0000
  H   H3906     1.0  0.61336  0.75283  0.41828  1.0000
  H   H3907     1.0  0.56185  0.77394  0.43386  1.0000
  H   H3908     1.0  0.56916  0.78875  0.45096  1.0000
  C   C4869     1.0  0.69314  0.76180  0.48737  1.0000
  C   C4870     1.0  0.69616  0.77680  0.48801  1.0000
  C   C4871     1.0  0.71012  0.77698  0.49363  1.0000
  C   C4872     1.0  0.72090  0.76205  0.49887  1.0000
  C   C4873     1.0  0.71766  0.74720  0.49833  1.0000
  C   C4874     1.0  0.70401  0.74707  0.49256  1.0000
  H   H3909     1.0  0.68753  0.78818  0.48456  1.0000
  H   H3910     1.0  0.71227  0.78854  0.49430  1.0000
  H   H3911     1.0  0.72575  0.73561  0.50249  1.0000
  H   H3912     1.0  0.70176  0.73542  0.49228  1.0000
  C   C4875     1.0  0.78258  0.84340  0.41853  1.0000
  C   C4876     1.0  0.77115  0.83921  0.43316  1.0000
  C   C4877     1.0  0.77550  0.82470  0.44484  1.0000
  C   C4878     1.0  0.79126  0.81444  0.44189  1.0000
  C   C4879     1.0  0.80247  0.81848  0.42707  1.0000
  C   C4880     1.0  0.79821  0.83299  0.41551  1.0000
  H   H3913     1.0  0.75906  0.84725  0.43558  1.0000
  H   H3914     1.0  0.76671  0.82152  0.45613  1.0000
  H   H3915     1.0  0.81463  0.81056  0.42470  1.0000
  H   H3916     1.0  0.80708  0.83619  0.40424  1.0000
  H   H3917     1.0  0.73555  0.89222  0.46175  1.0000
  H   H3918     1.0  0.96886  0.66520  0.53827  1.0000
  H   H3919     1.0  0.82777  0.88839  0.40596  1.0000
  C   C4881     1.0  0.67847  0.83015  0.40253  1.0000
  C   C4882     1.0  0.68529  0.83559  0.41256  1.0000
  C   C4883     1.0  0.69470  0.84785  0.40554  1.0000
  H   H3920     1.0  0.60604  0.87135  0.43504  1.0000
  H   H3921     1.0  0.68363  0.83014  0.42559  1.0000
  H   H3922     1.0  0.70038  0.85172  0.41313  1.0000
  C   C4884     1.0  0.70630  0.84460  0.55643  1.0000
  C   C4885     1.0  0.71684  0.82903  0.55638  1.0000
  C   C4886     1.0  0.72982  0.82656  0.54273  1.0000
  C   C4887     1.0  0.73238  0.83973  0.52931  1.0000
  C   C4888     1.0  0.72203  0.85534  0.52956  1.0000
  C   C4889     1.0  0.70892  0.85774  0.54304  1.0000
  H   H3923     1.0  0.71483  0.81887  0.56675  1.0000
  H   H3924     1.0  0.73788  0.81453  0.54268  1.0000
  H   H3925     1.0  0.72391  0.86551  0.51913  1.0000
  C   C4890     1.0  0.90204  0.70672  0.54301  1.0000
  C   C4891     1.0  0.62983  0.85359  0.52859  1.0000
  C   C4892     1.0  0.64010  0.86060  0.51431  1.0000
  C   C4893     1.0  0.64241  0.85571  0.49942  1.0000
  C   C4894     1.0  0.63498  0.84334  0.49878  1.0000
  C   C4895     1.0  0.62557  0.83557  0.51330  1.0000
  C   C4896     1.0  0.62288  0.84081  0.52811  1.0000
  H   H3926     1.0  0.64567  0.87030  0.51457  1.0000
  H   H3927     1.0  0.64961  0.86188  0.48823  1.0000
  H   H3928     1.0  0.61957  0.82623  0.51293  1.0000
  H   H3929     1.0  0.61495  0.83529  0.53911  1.0000
  C   C4897     1.0  0.68329  0.90613  0.49529  1.0000
  C   C4898     1.0  0.69529  0.91138  0.48153  1.0000
  C   C4899     1.0  0.70038  0.90355  0.46809  1.0000
  C   C4900     1.0  0.69350  0.89046  0.46856  1.0000
  C   C4901     1.0  0.68087  0.88597  0.48184  1.0000
  C   C4902     1.0  0.67582  0.89372  0.49519  1.0000
  H   H3930     1.0  0.70088  0.92119  0.48148  1.0000
  H   H3931     1.0  0.70972  0.90743  0.45755  1.0000
  H   H3932     1.0  0.67511  0.87626  0.48189  1.0000
  H   H3933     1.0  0.66612  0.89009  0.50544  1.0000
  C   C4903     1.0  0.60108  0.86088  0.44280  1.0000
  C   C4904     1.0  0.82576  0.79681  0.55352  1.0000
  C   C4905     1.0  0.81134  0.80442  0.54740  1.0000
  C   C4906     1.0  0.80376  0.79543  0.54138  1.0000
  C   C4907     1.0  0.81028  0.77858  0.54198  1.0000
  C   C4908     1.0  0.82431  0.77088  0.54865  1.0000
  C   C4909     1.0  0.83214  0.77993  0.55425  1.0000
  H   H3934     1.0  0.80617  0.81735  0.54706  1.0000
  H   H3935     1.0  0.79280  0.80148  0.53646  1.0000
  H   H3936     1.0  0.82920  0.75788  0.54930  1.0000
  H   H3937     1.0  0.84307  0.77382  0.55919  1.0000
  C   C4910     1.0  0.75731  0.92279  0.42915  1.0000
  C   C4911     1.0  0.96745  0.76861  0.52822  1.0000
  C   C4912     1.0  0.95319  0.78140  0.52834  1.0000
  C   C4913     1.0  0.93747  0.77792  0.53547  1.0000
  C   C4914     1.0  0.93602  0.76154  0.54230  1.0000
  C   C4915     1.0  0.95020  0.74872  0.54157  1.0000
  C   C4916     1.0  0.60840  0.83152  0.40876  1.0000
  H   H3938     1.0  0.95433  0.79401  0.52292  1.0000
  H   H3939     1.0  0.92396  0.75871  0.54778  1.0000
  H   H3940     1.0  0.80374  0.87718  0.40696  1.0000
  P   P165      1.0  0.96248  0.80866  0.56271  1.0000
  H   H3941     1.0  0.82993  0.91902  0.48741  1.0000
  C   C4917     1.0  0.97430  0.81160  0.57562  1.0000
  C   C4918     1.0  0.73955  0.92303  0.45629  1.0000
  H   H3942     1.0  0.77446  0.92911  0.45976  1.0000
  C   C4919     1.0  0.54201  0.71237  0.46390  1.0000
  H   H3943     1.0  0.57530  0.65593  0.51662  1.0000
  C   C4920     1.0  0.76115  0.88023  0.46194  1.0000
  H   H3944     1.0  0.73031  0.75570  0.54221  1.0000
  H   H3945     1.0  0.93215  0.81172  0.55218  1.0000
  H   H3946     1.0  0.65673  0.83828  0.58015  1.0000
  C   C4921     1.0  0.72457  0.76683  0.56312  1.0000
  C   C4922     1.0  0.74582  0.93600  0.42235  1.0000
  C   C4923     1.0  0.96387  0.70950  0.52351  1.0000
  H   H3947     1.0  0.80113  0.90821  0.44858  1.0000
  C   C4924     1.0  0.60636  0.74105  0.47016  1.0000
  C   C4925     1.0  0.72799  0.93609  0.44938  1.0000
  H   H3948     1.0  0.63432  0.84887  0.42185  1.0000
  H   H3949     1.0  0.85600  0.73160  0.57113  1.0000
  H   H3950     1.0  0.77607  0.91740  0.51100  1.0000
  C   C4926     1.0  0.73110  0.94254  0.43240  1.0000
  C   C4927     1.0  0.64640  0.86652  0.40332  1.0000
  H   H3951     1.0  0.59548  0.65246  0.49041  1.0000
  C   C4928     1.0  0.50373  0.67578  0.42368  1.0000
  C   C4929     1.0  0.50720  0.68324  0.43446  1.0000
  C   C4930     1.0  0.55255  0.73709  0.45019  1.0000
  H   H3952     1.0  0.95101  0.71543  0.52379  1.0000
  C   C4931     1.0  0.77574  0.92490  0.48511  1.0000
  C   C4932     1.0  0.52362  0.73759  0.45337  1.0000
  S   S673      1.0  0.90194  0.77015  0.57856  1.0000
  C   C4933     1.0  0.59239  0.84490  0.47022  1.0000
  H   H3953     1.0  0.53493  0.75838  0.44100  1.0000
  H   H3954     1.0  0.60798  0.87835  0.38395  1.0000
  H   H3955     1.0  0.98966  0.68311  0.54766  1.0000
  C   C4934     1.0  0.56421  0.69421  0.49310  1.0000
  C   C4935     1.0  0.90747  0.71775  0.54841  1.0000
  C   C4936     1.0  0.74945  0.85098  0.47251  1.0000
  H   H3956     1.0  0.58298  0.75650  0.47864  1.0000
  H   H3957     1.0  0.65736  0.86304  0.40842  1.0000
  H   H3958     1.0  0.68397  0.78348  0.42756  1.0000
  C   C4937     1.0  0.96628  0.70959  0.57089  1.0000
  C   C4938     1.0  0.60068  0.80722  0.40655  1.0000
  C   C4939     1.0  0.98890  0.81760  0.56874  1.0000
  S   S674      1.0  0.87992  0.80775  0.56760  1.0000
  H   H3959     1.0  0.72208  0.95250  0.42695  1.0000
  C   C4940     1.0  0.73508  0.84711  0.58152  1.0000
  H   H3960     1.0  0.53678  0.64479  0.41157  1.0000
  C   C4941     1.0  0.62958  0.80792  0.40133  1.0000
  C   C4942     1.0  0.71656  0.88966  0.57262  1.0000
  C   C4943     1.0  0.72342  0.88488  0.55743  1.0000
  C   C4944     1.0  0.71879  0.89505  0.54301  1.0000
  C   C4945     1.0  0.70748  0.91010  0.54359  1.0000
  C   C4946     1.0  0.70081  0.91506  0.55859  1.0000
  C   C4947     1.0  0.70522  0.90484  0.57307  1.0000
  C   C4948     1.0  0.96594  0.75222  0.53471  1.0000
  C   C4949     1.0  0.64730  0.49662  0.40626  1.0000
  S   S675      1.0  0.68986  0.84774  0.57321  1.0000
  C   C4950     1.0  0.95310  0.70262  0.57161  1.0000
  H   H3961     1.0  0.69278  0.79896  0.57086  1.0000
  C   C4951     1.0  0.64953  0.52641  0.57234  1.0000
  H   H3962     1.0  0.64256  0.80195  0.39840  1.0000
  H   H3963     1.0  0.73211  0.87328  0.55656  1.0000
  H   H3964     1.0  0.72361  0.89105  0.53143  1.0000
  H   H3965     1.0  0.70344  0.91767  0.53250  1.0000
  H   H3966     1.0  0.69170  0.92654  0.55912  1.0000
  C   C4952     1.0  0.67560  0.49844  0.57298  1.0000
  Fe  Fe336     1.0  0.88063  0.76105  0.57704  1.0000
  C   C4953     1.0  0.99254  0.70699  0.50895  1.0000
  C   C4954     1.0  0.81674  0.89016  0.41560  1.0000
  H   H3967     1.0  0.89962  0.72973  0.54969  1.0000
  C   C4955     1.0  0.73009  0.81468  0.40078  1.0000
  H   H3968     1.0  0.90567  0.83207  0.55402  1.0000
  C   C4956     1.0  0.59577  0.71051  0.42900  1.0000
  H   H3969     1.0  0.59131  0.95388  0.44104  1.0000
  C   C4957     1.0  0.61737  0.79966  0.40229  1.0000
  C   C4958     1.0  0.61436  0.72693  0.46385  1.0000
  C   C4959     1.0  0.59600  0.69327  0.41101  1.0000
  C   C4960     1.0  0.61852  0.87496  0.38961  1.0000
  H   H3970     1.0  0.56524  0.62975  0.40210  1.0000
  H   H3971     1.0  0.97681  0.70944  0.56065  1.0000
  P   P166      1.0  0.95355  0.69238  0.55572  1.0000
  H   H3972     1.0  0.92470  0.86045  0.57556  1.0000
  C   C4961     1.0  0.52624  0.72094  0.46133  1.0000
  H   H3973     1.0  0.90814  0.68284  0.53696  1.0000
  H   H3974     1.0  0.49747  0.71965  0.40028  1.0000
  H   H3975     1.0  0.97573  0.63491  0.54800  1.0000
  H   H3976     1.0  0.64148  0.50312  0.42993  1.0000
  C   C4962     1.0  0.56414  0.68113  0.50690  1.0000
  C   C4963     1.0  0.68852  0.94023  0.41119  1.0000
  C   C4964     1.0  0.87590  0.71051  0.47555  1.0000
  C   C4965     1.0  0.87251  0.72762  0.46971  1.0000
  C   C4966     1.0  0.58910  0.74541  0.47394  1.0000
  C   C4967     1.0  0.77498  0.91376  0.50035  1.0000
  C   C4968     1.0  0.74430  0.88073  0.46416  1.0000
  H   H3977     1.0  0.56274  0.74329  0.44526  1.0000
  Fe  Fe337     1.0  0.55893  0.71659  0.38983  1.0000
  C   C4969     1.0  0.53097  0.65227  0.38738  1.0000
  H   H3978     1.0  0.72544  0.86670  0.47149  1.0000
  C   C4970     1.0  0.69696  0.85487  0.38860  1.0000
  C   C4971     1.0  0.85390  0.81114  0.51649  1.0000
  C   C4972     1.0  0.86961  0.81444  0.50925  1.0000
  C   C4973     1.0  0.87124  0.82930  0.49793  1.0000
  C   C4974     1.0  0.85715  0.84100  0.49413  1.0000
  C   C4975     1.0  0.84129  0.83807  0.50198  1.0000
  C   C4976     1.0  0.83981  0.82283  0.51277  1.0000
  P   P167      1.0  0.82307  0.85302  0.49701  1.0000
  C   C4977     1.0  0.82567  0.87385  0.49354  1.0000
  C   C4978     1.0  0.81977  0.84871  0.47902  1.0000
  C   C4979     1.0  0.81173  0.83603  0.48074  1.0000
  C   C4980     1.0  0.80984  0.83211  0.46680  1.0000
  C   C4981     1.0  0.81588  0.84081  0.45107  1.0000
  C   C4982     1.0  0.82425  0.85318  0.44923  1.0000
  C   C4983     1.0  0.82638  0.85701  0.46314  1.0000
  C   C4984     1.0  0.81663  0.88684  0.48349  1.0000
  C   C4985     1.0  0.81832  0.90305  0.48114  1.0000
  C   C4986     1.0  0.82870  0.90645  0.48914  1.0000
  H   H3979     1.0  0.88986  0.71008  0.54025  1.0000
  C   C4987     1.0  0.83571  0.87741  0.50190  1.0000
  C   C4988     1.0  0.80564  0.85180  0.51427  1.0000
  C   C4989     1.0  0.80777  0.85032  0.53020  1.0000
  C   C4990     1.0  0.79414  0.85074  0.54350  1.0000
  C   C4991     1.0  0.77830  0.85265  0.54099  1.0000
  C   C4992     1.0  0.77607  0.85418  0.52519  1.0000
  C   C4993     1.0  0.78964  0.85386  0.51184  1.0000
  H   H3980     1.0  0.85261  0.79956  0.52515  1.0000
  H   H3981     1.0  0.88049  0.80549  0.51245  1.0000
  H   H3982     1.0  0.88346  0.83176  0.49223  1.0000
  H   H3983     1.0  0.85864  0.85236  0.48522  1.0000
  H   H3984     1.0  0.82777  0.81997  0.51837  1.0000
  H   H3985     1.0  0.80717  0.82897  0.49284  1.0000
  H   H3986     1.0  0.80371  0.82224  0.46817  1.0000
  H   H3987     1.0  0.83336  0.86626  0.46143  1.0000
  H   H3988     1.0  0.80817  0.88447  0.47760  1.0000
  H   H3989     1.0  0.66190  0.53448  0.54722  1.0000
  P   P168      1.0  0.51081  0.66475  0.39412  1.0000
  C   C4994     1.0  0.75472  0.83214  0.39549  1.0000
  H   H3990     1.0  0.84217  0.86771  0.51036  1.0000
  H   H3991     1.0  0.81998  0.84870  0.53242  1.0000
  H   H3992     1.0  0.79595  0.84922  0.55581  1.0000
  H   H3993     1.0  0.76773  0.85284  0.55126  1.0000
  H   H3994     1.0  0.76377  0.85561  0.52331  1.0000
  H   H3995     1.0  0.78749  0.85531  0.49971  1.0000
  C   C4995     1.0  0.58775  0.72193  0.46430  1.0000
  C   C4996     1.0  0.87107  0.73813  0.48005  1.0000
  C   C4997     1.0  0.87292  0.73157  0.49639  1.0000
  C   C4998     1.0  0.87645  0.71435  0.50213  1.0000
  P   P169      1.0  0.87101  0.74492  0.50999  1.0000
  C   C4999     1.0  0.85901  0.73683  0.52989  1.0000
  C   C5000     1.0  0.89122  0.74602  0.51147  1.0000
  C   C5001     1.0  0.90544  0.73434  0.50642  1.0000
  C   C5002     1.0  0.92102  0.73566  0.50728  1.0000
  C   C5003     1.0  0.92252  0.74866  0.51313  1.0000
  C   C5004     1.0  0.90845  0.76037  0.51805  1.0000
  C   C5005     1.0  0.89287  0.75907  0.51723  1.0000
  C   C5006     1.0  0.84583  0.72973  0.53076  1.0000
  C   C5007     1.0  0.83660  0.72318  0.54603  1.0000
  H   H3996     1.0  0.49358  0.61125  0.41678  1.0000
  C   C5008     1.0  0.85342  0.73079  0.55983  1.0000
  C   C5009     1.0  0.86259  0.73752  0.54457  1.0000
  C   C5010     1.0  0.86028  0.76546  0.50176  1.0000
  C   C5011     1.0  0.84303  0.77034  0.50650  1.0000
  C   C5012     1.0  0.83479  0.78601  0.49955  1.0000
  C   C5013     1.0  0.84369  0.79687  0.48771  1.0000
  C   C5014     1.0  0.86087  0.79217  0.48295  1.0000
  C   C5015     1.0  0.86916  0.77651  0.48991  1.0000
  H   H3997     1.0  0.86830  0.75133  0.47527  1.0000
  H   H3998     1.0  0.87796  0.70903  0.51467  1.0000
  H   H3999     1.0  0.90463  0.72422  0.50178  1.0000
  H   H4000     1.0  0.93195  0.72664  0.50338  1.0000
  H   H4001     1.0  0.93458  0.74974  0.51380  1.0000
  H   H4002     1.0  0.90963  0.77052  0.52249  1.0000
  H   H4003     1.0  0.88209  0.76833  0.52099  1.0000
  H   H4004     1.0  0.84239  0.72960  0.51964  1.0000
  H   H4005     1.0  0.82613  0.71821  0.54658  1.0000
  H   H4006     1.0  0.54768  0.89000  0.41585  1.0000
  H   H4007     1.0  0.60842  0.92514  0.40372  1.0000
  H   H4008     1.0  0.87224  0.74341  0.54440  1.0000
  H   H4009     1.0  0.83579  0.76211  0.51546  1.0000
  H   H4010     1.0  0.86775  0.80066  0.47384  1.0000
  H   H4011     1.0  0.88246  0.77298  0.48588  1.0000
  H   H4012     1.0  0.62776  0.72360  0.46091  1.0000
  C   C5016     1.0  0.56842  0.87029  0.38459  1.0000
  H   H4013     1.0  0.70085  0.86980  0.54307  1.0000
  C   C5017     1.0  0.68883  0.93123  0.42727  1.0000
  C   C5018     1.0  0.67581  0.92357  0.43644  1.0000
  C   C5019     1.0  0.66219  0.92507  0.42975  1.0000
  C   C5020     1.0  0.66209  0.93394  0.41348  1.0000
  P   P170      1.0  0.64552  0.91491  0.44178  1.0000
  C   C5021     1.0  0.62696  0.92491  0.43402  1.0000
  C   C5022     1.0  0.65081  0.89349  0.44047  1.0000
  C   C5023     1.0  0.66740  0.88519  0.43720  1.0000
  C   C5024     1.0  0.67153  0.86815  0.43825  1.0000
  C   C5025     1.0  0.65910  0.85938  0.44195  1.0000
  C   C5026     1.0  0.64254  0.86770  0.44435  1.0000
  C   C5027     1.0  0.63835  0.88464  0.44383  1.0000
  C   C5028     1.0  0.61491  0.93695  0.44141  1.0000
  C   C5029     1.0  0.60058  0.94462  0.43527  1.0000
  C   C5030     1.0  0.59822  0.94035  0.42172  1.0000
  C   C5031     1.0  0.61020  0.92842  0.41426  1.0000
  C   C5032     1.0  0.62454  0.92074  0.42036  1.0000
  C   C5033     1.0  0.64175  0.91606  0.46318  1.0000
  C   C5034     1.0  0.64491  0.92942  0.46730  1.0000
  C   C5035     1.0  0.64260  0.92999  0.48382  1.0000
  C   C5036     1.0  0.63660  0.91756  0.49635  1.0000
  C   C5037     1.0  0.63292  0.90452  0.49238  1.0000
  C   C5038     1.0  0.63564  0.90364  0.47589  1.0000
  H   H4014     1.0  0.69941  0.92976  0.43245  1.0000
  H   H4015     1.0  0.67641  0.91630  0.44872  1.0000
  H   H4016     1.0  0.65204  0.93495  0.40778  1.0000
  H   H4017     1.0  0.67720  0.89173  0.43437  1.0000
  H   H4018     1.0  0.68440  0.86172  0.43670  1.0000
  H   H4019     1.0  0.66222  0.84610  0.44327  1.0000
  H   H4020     1.0  0.63301  0.86075  0.44741  1.0000
  H   H4021     1.0  0.62542  0.89066  0.44667  1.0000
  H   H4022     1.0  0.61653  0.94044  0.45189  1.0000
  C   C5039     1.0  0.91354  0.84774  0.56468  1.0000
  C   C5040     1.0  0.50097  0.63453  0.40658  1.0000
  C   C5041     1.0  0.74555  0.83516  0.38353  1.0000
  H   H4023     1.0  0.63378  0.91158  0.41438  1.0000
  H   H4024     1.0  0.64943  0.93926  0.45781  1.0000
  H   H4025     1.0  0.64574  0.93990  0.48698  1.0000
  H   H4026     1.0  0.63509  0.91788  0.50914  1.0000
  H   H4027     1.0  0.62822  0.89492  0.50213  1.0000
  H   H4028     1.0  0.63312  0.89314  0.47324  1.0000
  H   H4029     1.0  0.77201  0.81945  0.58036  1.0000
  S   S676      1.0  0.57230  0.69153  0.38406  1.0000
  C   C5042     1.0  0.96510  0.77477  0.56632  1.0000
  C   C5043     1.0  0.53680  0.74564  0.44770  1.0000
  H   H4030     1.0  0.59125  0.80057  0.40773  1.0000
  H   H4031     1.0  0.76839  0.91775  0.42098  1.0000
  H   H4032     1.0  0.68510  0.51021  0.54779  1.0000
  C   C5044     1.0  0.60136  0.70598  0.41374  1.0000
  C   C5045     1.0  0.51409  0.67538  0.40799  1.0000
  H   H4033     1.0  0.97202  0.72305  0.49890  1.0000
  H   H4034     1.0  0.82639  0.90378  0.42692  1.0000
  C   C5046     1.0  0.52115  0.69010  0.42983  1.0000
  C   C5047     1.0  0.53171  0.68935  0.41447  1.0000
  C   C5048     1.0  0.52816  0.68220  0.40356  1.0000
  H   H4035     1.0  0.82924  0.85963  0.43700  1.0000
  Fe  Fe338     1.0  0.73007  0.90871  0.39798  1.0000
  H   H4036     1.0  0.95123  0.84023  0.57382  1.0000
  H   H4037     1.0  0.90175  0.85648  0.56582  1.0000
  S   S677      1.0  0.50295  0.73328  0.42618  1.0000
  H   H4038     1.0  0.58038  0.67570  0.42109  1.0000
  C   C5049     1.0  0.80325  0.88385  0.41613  1.0000
  H   H4039     1.0  0.59226  0.85374  0.38347  1.0000
  H   H4040     1.0  0.60181  0.86679  0.46530  1.0000
  H   H4041     1.0  0.73688  0.91806  0.46947  1.0000
  H   H4042     1.0  0.93572  0.67509  0.54352  1.0000
  C   C5050     1.0  0.96618  0.65992  0.55137  1.0000
  H   H4043     1.0  0.77154  0.88952  0.51384  1.0000
  C   C5051     1.0  0.55584  0.88051  0.39366  1.0000
  S   S678      1.0  0.73298  0.93495  0.38674  1.0000
  H   H4044     1.0  0.52361  0.69628  0.43798  1.0000
  H   H4045     1.0  0.54273  0.69426  0.41089  1.0000
  H   H4046     1.0  0.55571  0.70595  0.49412  1.0000
  Fe  Fe339     1.0  0.71991  0.87865  0.39498  1.0000
  H   H4047     1.0  0.89312  0.68341  0.57569  1.0000
  H   H4048     1.0  0.74486  0.83973  0.47672  1.0000
  H   H4049     1.0  0.74818  0.94097  0.40916  1.0000
  H   H4050     1.0  0.82145  0.78962  0.50336  1.0000
  C   C5052     1.0  0.57162  0.87347  0.41488  1.0000
  H   H4051     1.0  0.58712  0.94632  0.41697  1.0000
  C   C5053     1.0  0.69581  0.77898  0.43109  1.0000
  C   C5054     1.0  0.71615  0.75648  0.44247  1.0000
  H   H4052     1.0  0.60934  0.71280  0.40384  1.0000
  C   C5055     1.0  0.72627  0.76743  0.44039  1.0000
  C   C5056     1.0  0.72109  0.78440  0.43389  1.0000
  C   C5057     1.0  0.70567  0.79003  0.42940  1.0000
  P   P171      1.0  0.73300  0.79901  0.43342  1.0000
  C   C5058     1.0  0.72117  0.81254  0.44728  1.0000
  C   C5059     1.0  0.75124  0.78760  0.44119  1.0000
  C   C5060     1.0  0.74979  0.78120  0.45818  1.0000
  C   C5061     1.0  0.76350  0.77121  0.46430  1.0000
  C   C5062     1.0  0.77887  0.76799  0.45363  1.0000
  C   C5063     1.0  0.78043  0.77431  0.43669  1.0000
  C   C5064     1.0  0.76660  0.78380  0.43043  1.0000
  C   C5065     1.0  0.72740  0.82562  0.44816  1.0000
  C   C5066     1.0  0.71789  0.83682  0.45790  1.0000
  C   C5067     1.0  0.70216  0.83499  0.46707  1.0000
  C   C5068     1.0  0.69621  0.82153  0.46701  1.0000
  C   C5069     1.0  0.70570  0.81030  0.45720  1.0000
  C   C5070     1.0  0.73876  0.81202  0.41323  1.0000
  C   C5071     1.0  0.75137  0.82065  0.41025  1.0000
  H   H4053     1.0  0.97956  0.77139  0.52276  1.0000
  H   H4054     1.0  0.55552  0.68275  0.51842  1.0000
  H   H4055     1.0  0.69882  0.94581  0.40391  1.0000
  C   C5072     1.0  0.95592  0.78930  0.57155  1.0000
  C   C5073     1.0  0.97005  0.64274  0.55683  1.0000
  H   H4056     1.0  0.97671  0.77447  0.55748  1.0000
  H   H4057     1.0  0.96581  0.74945  0.56734  1.0000
  H   H4058     1.0  0.73785  0.76255  0.44436  1.0000
  H   H4059     1.0  0.70089  0.80305  0.42521  1.0000
  H   H4060     1.0  0.73797  0.78354  0.46669  1.0000
  H   H4061     1.0  0.76214  0.76597  0.47735  1.0000
  H   H4062     1.0  0.78959  0.76074  0.45853  1.0000
  H   H4063     1.0  0.79239  0.77187  0.42845  1.0000
  H   H4064     1.0  0.76793  0.78808  0.41723  1.0000
  H   H4065     1.0  0.73948  0.82739  0.44121  1.0000
  H   H4066     1.0  0.72258  0.84717  0.45799  1.0000
  H   H4067     1.0  0.69455  0.84404  0.47415  1.0000
  H   H4068     1.0  0.68416  0.81992  0.47449  1.0000
  H   H4069     1.0  0.70088  0.79993  0.45741  1.0000
  H   H4070     1.0  0.75847  0.81879  0.41943  1.0000
  C   C5074     1.0  0.57530  0.66603  0.50589  1.0000
  C   C5075     1.0  0.55746  0.88212  0.40879  1.0000
  C   C5076     1.0  0.97745  0.81749  0.51220  1.0000
  H   H4071     1.0  0.72047  0.80827  0.40235  1.0000
  C   C5077     1.0  0.77213  0.86491  0.46519  1.0000
  C   C5078     1.0  0.64567  0.87865  0.38888  1.0000
  H   H4072     1.0  0.78517  0.86422  0.46371  1.0000
  H   H4073     1.0  0.58853  0.82709  0.44142  1.0000
  C   C5079     1.0  0.87790  0.70388  0.49174  1.0000
  H   H4074     1.0  0.77846  0.88155  0.42838  1.0000
  H   H4075     1.0  0.49879  0.68409  0.44624  1.0000
  C   C5080     1.0  0.55523  0.72052  0.45860  1.0000
  H   H4076     1.0  0.57350  0.93114  0.57740  1.0000
  C   C5081     1.0  0.94377  0.82458  0.56261  1.0000
  C   C5082     1.0  0.67521  0.94150  0.40427  1.0000
  H   H4077     1.0  0.54390  0.69937  0.46967  1.0000
  C   C5083     1.0  0.76624  0.85035  0.47051  1.0000
  C   C5084     1.0  0.95880  0.67016  0.56276  1.0000
  C   C5085     1.0  0.81594  0.89881  0.42742  1.0000
  H   H4078     1.0  0.76833  0.88127  0.49001  1.0000
  C   C5086     1.0  0.59619  0.82303  0.40986  1.0000
  H   H4079     1.0  0.51339  0.62876  0.40115  1.0000
  H   H4080     1.0  0.56646  0.73941  0.47433  1.0000
  H   H4081     1.0  0.92683  0.72216  0.55663  1.0000
  Fe  Fe340     1.0  0.64449  0.89984  0.56993  1.0000
  H   H4082     1.0  0.59953  0.72088  0.43054  1.0000
  H   H4083     1.0  0.71652  0.94108  0.45718  1.0000
  C   C5087     1.0  0.57980  0.73582  0.47119  1.0000
  P   P172      1.0  0.60252  0.85173  0.41370  1.0000
  C   C5088     1.0  0.93336  0.69792  0.55080  1.0000
  H   H4084     1.0  0.59106  0.84271  0.48345  1.0000
  C   C5089     1.0  0.91232  0.69138  0.54121  1.0000
  C   C5090     1.0  0.75420  0.91610  0.44619  1.0000
  C   C5091     1.0  0.77249  0.89801  0.50193  1.0000
  C   C5092     1.0  0.58848  0.83388  0.46342  1.0000
  H   H4085     1.0  0.88045  0.69061  0.49628  1.0000
  C   C5093     1.0  0.61920  0.86263  0.40411  1.0000
  C   C5094     1.0  0.60510  0.71729  0.46109  1.0000
  C   C5095     1.0  0.77182  0.90437  0.47287  1.0000
  H   H4086     1.0  0.57262  0.87483  0.42664  1.0000
  C   C5096     1.0  0.62514  0.82377  0.40451  1.0000
  H   H4087     1.0  0.71616  0.50193  0.56689  1.0000
  H   H4088     1.0  0.95567  0.82564  0.52959  1.0000
  H   H4089     1.0  0.81422  0.83783  0.44032  1.0000
  C   C5097     1.0  0.58665  0.66407  0.49112  1.0000
  H   H4090     1.0  0.64372  0.50929  0.39994  1.0000
  H   H4091     1.0  0.74466  0.82411  0.57347  1.0000
  H   H4092     1.0  0.96963  0.62236  0.57795  1.0000
  C   C5098     1.0  0.57526  0.69218  0.47811  1.0000
  C   C5099     1.0  0.58674  0.67714  0.47730  1.0000
  P   P173      1.0  0.57588  0.70940  0.46071  1.0000
  C   C5100     1.0  0.58476  0.70234  0.44169  1.0000
  C   C5101     1.0  0.57932  0.68965  0.43881  1.0000
  C   C5102     1.0  0.58499  0.68510  0.42353  1.0000
  H   H4093     1.0  0.84513  0.89630  0.50603  1.0000
  C   C5103     1.0  0.99064  0.79890  0.53942  1.0000
  C   C5104     1.0  0.49606  0.65177  0.40456  1.0000
  H   H4094     1.0  0.94904  0.73607  0.54653  1.0000
  H   H4095     1.0  0.59586  0.67553  0.46607  1.0000
  H   H4096     1.0  0.57029  0.68364  0.44815  1.0000
  C   C5105     1.0  0.58260  0.86162  0.39065  1.0000
  C   C5106     1.0  0.66216  0.52486  0.55832  1.0000
  H   H4097     1.0  0.63488  0.82976  0.40379  1.0000
  H   H4098     1.0  0.58410  0.82311  0.47134  1.0000
  C   C5107     1.0  0.78795  0.89504  0.44027  1.0000
  C   C5108     1.0  0.70092  0.76225  0.43783  1.0000
  C   C5109     1.0  0.92302  0.71340  0.55233  1.0000
  C   C5110     1.0  0.63326  0.85854  0.41090  1.0000
  C   C5111     1.0  0.73849  0.86617  0.46953  1.0000
  H   H4099     1.0  0.87689  0.70241  0.46754  1.0000
  C   C5112     1.0  0.58426  0.86309  0.40588  1.0000
  C   C5113     1.0  0.83731  0.89365  0.49959  1.0000
  H   H4100     1.0  0.83729  0.80892  0.48223  1.0000
  H   H4101     1.0  0.73497  0.75882  0.56812  1.0000
  C   C5114     1.0  0.66527  0.76861  0.52657  1.0000
  C   C5115     1.0  0.65706  0.77851  0.51421  1.0000
  C   C5116     1.0  0.65669  0.79543  0.50952  1.0000
  C   C5117     1.0  0.66460  0.80244  0.51709  1.0000
  C   C5118     1.0  0.67300  0.79257  0.52945  1.0000
  C   C5119     1.0  0.67299  0.77564  0.53438  1.0000
  P   P174      1.0  0.68149  0.80213  0.54043  1.0000
  C   C5120     1.0  0.69798  0.78795  0.54969  1.0000
  C   C5121     1.0  0.68979  0.81879  0.52579  1.0000
  C   C5122     1.0  0.70643  0.81628  0.51738  1.0000
  C   C5123     1.0  0.71259  0.82941  0.50610  1.0000
  C   C5124     1.0  0.70228  0.84503  0.50315  1.0000
  C   C5125     1.0  0.68564  0.84740  0.51105  1.0000
  C   C5126     1.0  0.67940  0.83442  0.52238  1.0000
  C   C5127     1.0  0.70067  0.78954  0.56447  1.0000
  C   C5128     1.0  0.92796  0.68700  0.54503  1.0000
  C   C5129     1.0  0.96872  0.69810  0.53733  1.0000
  P   P175      1.0  0.76884  0.89897  0.45525  1.0000
  C   C5130     1.0  0.70883  0.77568  0.54171  1.0000
  C   C5131     1.0  0.66490  0.81088  0.55565  1.0000
  C   C5132     1.0  0.64921  0.80711  0.55956  1.0000
  C   C5133     1.0  0.65454  0.82963  0.57442  1.0000
  H   H4102     1.0  0.81145  0.91301  0.47327  1.0000
  C   C5134     1.0  0.59850  0.85849  0.45993  1.0000
  C   C5135     1.0  0.66736  0.82240  0.56298  1.0000
  H   H4103     1.0  0.66573  0.75547  0.52998  1.0000
  H   H4104     1.0  0.65119  0.77299  0.50813  1.0000
  H   H4105     1.0  0.65034  0.80319  0.49995  1.0000
  H   H4106     1.0  0.66388  0.81562  0.51339  1.0000
  H   H4107     1.0  0.67886  0.76786  0.54426  1.0000
  H   H4108     1.0  0.71471  0.80433  0.51950  1.0000
  H   H4109     1.0  0.72543  0.82754  0.49985  1.0000
  H   H4110     1.0  0.70710  0.85528  0.49469  1.0000
  H   H4111     1.0  0.67752  0.85935  0.50858  1.0000
  H   H4112     1.0  0.66644  0.83665  0.52845  1.0000
  H   H4113     1.0  0.63944  0.53720  0.57210  1.0000
  H   H4114     1.0  0.58320  0.82848  0.41357  1.0000
  C   C5136     1.0  0.64594  0.49319  0.42333  1.0000
  C   C5137     1.0  0.71393  0.77906  0.57110  1.0000
  H   H4115     1.0  0.70737  0.77446  0.53007  1.0000
  H   H4116     1.0  0.64679  0.79858  0.55383  1.0000
  C   C5138     1.0  0.97453  0.80860  0.54192  1.0000
  C   C5139     1.0  0.92647  0.85000  0.57013  1.0000
  H   H4117     1.0  0.87085  0.73278  0.45718  1.0000
  C   C5140     1.0  0.91572  0.83402  0.55806  1.0000
  C   C5141     1.0  0.97575  0.71383  0.50933  1.0000
  C   C5142     1.0  0.59783  0.84947  0.43583  1.0000
  C   C5143     1.0  0.72195  0.76508  0.54850  1.0000
  C   C5144     1.0  0.80158  0.90130  0.43971  1.0000
  H   H4118     1.0  0.61149  0.70635  0.45626  1.0000
  C   C5145     1.0  0.77415  0.92025  0.47143  1.0000
  C   C5146     1.0  0.84047  0.72360  0.56057  1.0000
  C   C5147     1.0  0.93077  0.82250  0.55701  1.0000
  C   C5148     1.0  0.67523  0.51098  0.55865  1.0000
  H   H4119     1.0  0.59946  0.93705  0.57934  1.0000
  H   H4120     1.0  0.77733  0.93723  0.48397  1.0000
  H   H4121     1.0  0.67916  0.82598  0.55967  1.0000
  C   C5149     1.0  0.94155  0.83846  0.56912  1.0000
  H   H4122     1.0  0.61350  0.74880  0.47189  1.0000
  C   C5150     1.0  0.78890  0.88631  0.42837  1.0000
  C   C5151     1.0  0.77081  0.89334  0.48830  1.0000
  C   C5152     1.0  0.95893  0.76039  0.57194  1.0000
  H   H4123     1.0  0.51609  0.71463  0.46513  1.0000
  C   C5153     1.0  0.55728  0.63556  0.39341  1.0000
  H   H4124     1.0  0.62082  0.78726  0.40007  1.0000
  C   C5154     1.0  0.68095  0.83709  0.38563  1.0000
  H   H4125     1.0  0.65609  0.88450  0.38289  1.0000
  C   C5155     1.0  0.63890  0.82603  0.57809  1.0000
  C   C5156     1.0  0.54116  0.64413  0.39871  1.0000
  H   H4126     1.0  0.54482  0.88716  0.38900  1.0000
  S   S679      1.0  0.53441  0.72999  0.38375  1.0000
  C   C5157     1.0  0.95532  0.66289  0.57961  1.0000
  C   C5158     1.0  0.98563  0.69137  0.53689  1.0000
  H   H4127     1.0  0.75009  0.89318  0.58188  1.0000
  S   S680      1.0  0.98326  0.73571  0.53345  1.0000
  C   C5159     1.0  0.71501  0.49544  0.57966  1.0000
  S   S681      1.0  0.64424  0.87286  0.57614  1.0000
  H   H4128     1.0  0.92102  0.67434  0.58195  1.0000
  C   C5160     1.0  0.73344  0.82625  0.38606  1.0000
  H   H4129     1.0  0.62402  0.81228  0.57319  1.0000
  S   S682      1.0  0.74281  0.88879  0.38402  1.0000
  H   H4130     1.0  0.97228  0.82459  0.50163  1.0000
  C   C5161     1.0  0.96661  0.63566  0.57368  1.0000
  S   S683      1.0  0.88268  0.73373  0.58214  1.0000
  C   C5162     1.0  0.91516  0.49070  0.66176  1.0000
  S   S684      1.0  0.97091  0.83906  0.68199  1.0000
  C   C5163     1.0  0.98822  0.89209  0.76609  1.0000
  Fe  Fe341     1.0  0.98995  0.79487  0.64685  1.0000
  C   C5164     1.0  0.80534  0.54500  0.68436  1.0000
  Fe  Fe342     1.0  0.95442  0.81197  0.64572  1.0000
  S   S685      1.0  0.94725  0.80991  0.67315  1.0000
  S   S686      1.0  0.93756  0.82526  0.62780  1.0000
  H   H4131     1.0  0.91357  0.77834  0.63169  1.0000
  H   H4132     1.0  0.81402  0.53515  0.60625  1.0000
  C   C5165     1.0  0.70576  0.86069  0.62143  1.0000
  H   H4133     1.0  0.78244  0.49516  0.73361  1.0000
  Fe  Fe343     1.0  0.94414  0.67321  0.64139  1.0000
  S   S687      1.0  0.95172  0.65786  0.66469  1.0000
  S   S688      1.0  0.95908  0.67014  0.61634  1.0000
  Fe  Fe344     1.0  0.90997  0.68771  0.65910  1.0000
  S   S689      1.0  0.91451  0.67299  0.68379  1.0000
  S   S690      1.0  0.88569  0.70543  0.65692  1.0000
  Fe  Fe345     1.0  0.93897  0.68077  0.67489  1.0000
  S   S691      1.0  0.94863  0.68922  0.69250  1.0000
  Fe  Fe346     1.0  0.92662  0.65174  0.67110  1.0000
  S   S692      1.0  0.92286  0.62543  0.68130  1.0000
  S   S693      1.0  0.93369  0.69661  0.65078  1.0000
  S   S694      1.0  0.91982  0.66597  0.64726  1.0000
  Fe  Fe347     1.0  0.88687  0.56771  0.65085  1.0000
  S   S695      1.0  0.86084  0.56842  0.66540  1.0000
  S   S696      1.0  0.89678  0.59115  0.63981  1.0000
  Fe  Fe348     1.0  0.89359  0.53042  0.65379  1.0000
  S   S697      1.0  0.86837  0.52790  0.66897  1.0000
  S   S698      1.0  0.91330  0.50892  0.64634  1.0000
  Fe  Fe349     1.0  0.85933  0.55081  0.65112  1.0000
  S   S699      1.0  0.83637  0.55579  0.64091  1.0000
  Fe  Fe350     1.0  0.87199  0.54551  0.68191  1.0000
  S   S700      1.0  0.86649  0.54089  0.70944  1.0000
  S   S701      1.0  0.88445  0.55225  0.63480  1.0000
  S   S702      1.0  0.89814  0.54599  0.66841  1.0000
  H   H4134     1.0  0.97569  0.68234  0.63393  1.0000
  S   S703      1.0  0.80942  0.50288  0.62230  1.0000
  C   C5166     1.0  0.94110  0.78878  0.58347  1.0000
  Fe  Fe351     1.0  0.78617  0.53867  0.76211  1.0000
  C   C5167     1.0  0.82438  0.70725  0.62197  1.0000
  S   S704      1.0  0.79070  0.56034  0.74143  1.0000
  C   C5168     1.0  0.77191  0.49181  0.73192  1.0000
  H   H4135     1.0  0.66846  0.84965  0.63419  1.0000
  S   S705      1.0  0.79565  0.51376  0.75600  1.0000
  S   S706      1.0  0.60046  0.87433  0.76116  1.0000
  H   H4136     1.0  0.86416  0.73341  0.64110  1.0000
  Fe  Fe352     1.0  0.65898  0.93489  0.65831  1.0000
  S   S707      1.0  0.63289  0.94903  0.65919  1.0000
  S   S708      1.0  0.67198  0.91886  0.63951  1.0000
  Fe  Fe353     1.0  0.66063  0.94470  0.68954  1.0000
  S   S709      1.0  0.63267  0.91727  0.58748  1.0000
  S   S710      1.0  0.67769  0.94172  0.70665  1.0000
  Fe  Fe354     1.0  0.62892  0.93851  0.68621  1.0000
  S   S711      1.0  0.60467  0.93140  0.69765  1.0000
  C   C5169     1.0  0.97767  0.74304  0.60910  1.0000
  H   H4137     1.0  0.77761  0.83965  0.59267  1.0000
  S   S712      1.0  0.65438  0.92267  0.68525  1.0000
  S   S713      1.0  0.66756  0.95571  0.66232  1.0000
  H   H4138     1.0  0.88366  0.50203  0.63678  1.0000
  C   C5170     1.0  0.55058  0.86247  0.67017  1.0000
  H   H4139     1.0  0.80503  0.56937  0.77086  1.0000
  C   C5171     1.0  0.70486  0.86886  0.60513  1.0000
  H   H4140     1.0  0.82063  0.76213  0.68610  1.0000
  H   H4141     1.0  0.88140  0.63551  0.61105  1.0000
  H   H4142     1.0  0.82451  0.55565  0.61336  1.0000
  C   C5172     1.0  0.86516  0.59664  0.68569  1.0000
  C   C5173     1.0  0.57340  0.98570  0.63285  1.0000
  C   C5174     1.0  0.82346  0.59844  0.76546  1.0000
  H   H4143     1.0  0.70670  0.98046  0.68238  1.0000
  C   C5175     1.0  0.88095  0.67287  0.60010  1.0000
  H   H4144     1.0  0.71662  0.85961  0.62600  1.0000
  C   C5176     1.0  0.66129  0.91890  0.62462  1.0000
  C   C5177     1.0  0.66670  0.90623  0.61581  1.0000
  C   C5178     1.0  0.65829  0.90591  0.60406  1.0000
  C   C5179     1.0  0.64432  0.91819  0.60110  1.0000
  C   C5180     1.0  0.63913  0.93106  0.60963  1.0000
  C   C5181     1.0  0.64757  0.93142  0.62131  1.0000
  H   H4145     1.0  0.67725  0.89648  0.61827  1.0000
  C   C5182     1.0  0.60017  0.95901  0.63683  1.0000
  H   H4146     1.0  0.62865  0.94088  0.60716  1.0000
  H   H4147     1.0  0.64358  0.94153  0.62756  1.0000
  H   H4148     1.0  0.95415  0.76033  0.61072  1.0000
  H   H4149     1.0  0.73001  0.49208  0.61334  1.0000
  C   C5183     1.0  0.65960  0.95558  0.73388  1.0000
  C   C5184     1.0  0.67433  0.95336  0.72183  1.0000
  C   C5185     1.0  0.68769  0.95909  0.72276  1.0000
  H   H4150     1.0  0.54431  0.86106  0.66150  1.0000
  C   C5186     1.0  0.97836  0.62960  0.63108  1.0000
  H   H4151     1.0  0.73962  0.53135  0.74989  1.0000
  H   H4152     1.0  0.69920  0.95715  0.71379  1.0000
  C   C5187     1.0  0.85309  0.61173  0.62965  1.0000
  C   C5188     1.0  0.60243  0.88988  0.74326  1.0000
  C   C5189     1.0  0.58837  0.90186  0.74014  1.0000
  C   C5190     1.0  0.58950  0.91490  0.72652  1.0000
  C   C5191     1.0  0.60455  0.91575  0.71543  1.0000
  C   C5192     1.0  0.61882  0.90389  0.71844  1.0000
  C   C5193     1.0  0.61772  0.89081  0.73237  1.0000
  H   H4153     1.0  0.57647  0.90117  0.74814  1.0000
  H   H4154     1.0  0.57866  0.92451  0.72472  1.0000
  H   H4155     1.0  0.63057  0.90462  0.70998  1.0000
  H   H4156     1.0  0.62857  0.88146  0.73468  1.0000
  C   C5194     1.0  0.67188  0.96939  0.74734  1.0000
  H   H4157     1.0  0.83534  0.50435  0.74049  1.0000
  C   C5195     1.0  0.82404  0.54381  0.62174  1.0000
  H   H4158     1.0  0.95274  0.49107  0.71002  1.0000
  P   P176      1.0  0.58239  0.93544  0.63900  1.0000
  C   C5196     1.0  0.89630  0.77498  0.67066  1.0000
  H   H4159     1.0  0.54517  0.86054  0.71109  1.0000
  H   H4160     1.0  0.78196  0.56606  0.71011  1.0000
  C   C5197     1.0  0.68061  0.98319  0.68477  1.0000
  H   H4161     1.0  0.56300  0.97997  0.75417  1.0000
  H   H4162     1.0  0.99088  0.74578  0.69477  1.0000
  S   S714      1.0  0.98555  0.79118  0.67441  1.0000
  H   H4163     1.0  0.58522  0.70117  0.76895  1.0000
  H   H4164     1.0  0.86222  0.77987  0.68709  1.0000
  C   C5198     1.0  0.77481  0.55605  0.64343  1.0000
  C   C5199     1.0  0.56800  0.98030  0.76426  1.0000
  H   H4165     1.0  0.78265  0.51416  0.65139  1.0000
  C   C5200     1.0  0.82969  0.54015  0.63633  1.0000
  C   C5201     1.0  0.82869  0.52485  0.64723  1.0000
  C   C5202     1.0  0.82216  0.51327  0.64343  1.0000
  C   C5203     1.0  0.81690  0.51693  0.62854  1.0000
  H   H4166     1.0  0.97821  0.74178  0.59687  1.0000
  C   C5204     1.0  0.78436  0.60726  0.67518  1.0000
  H   H4167     1.0  0.83256  0.52213  0.65873  1.0000
  H   H4168     1.0  0.82138  0.50151  0.65187  1.0000
  C   C5205     1.0  0.59580  0.93882  0.76751  1.0000
  C   C5206     1.0  0.84544  0.54675  0.71805  1.0000
  C   C5207     1.0  0.83448  0.55754  0.70853  1.0000
  C   C5208     1.0  0.81765  0.56206  0.71571  1.0000
  C   C5209     1.0  0.81176  0.55549  0.73235  1.0000
  C   C5210     1.0  0.82274  0.54466  0.74179  1.0000
  C   C5211     1.0  0.83960  0.54060  0.73475  1.0000
  H   H4169     1.0  0.83892  0.56232  0.69565  1.0000
  H   H4170     1.0  0.80920  0.57013  0.70821  1.0000
  H   H4171     1.0  0.81826  0.53938  0.75454  1.0000
  H   H4172     1.0  0.84808  0.53238  0.74214  1.0000
  C   C5212     1.0  0.98411  0.86130  0.68947  1.0000
  C   C5213     1.0  0.57425  0.86831  0.67576  1.0000
  H   H4173     1.0  0.78940  0.58942  0.66016  1.0000
  C   C5214     1.0  0.91718  0.61518  0.66916  1.0000
  C   C5215     1.0  0.91585  0.62255  0.65288  1.0000
  C   C5216     1.0  0.91001  0.61483  0.64390  1.0000
  C   C5217     1.0  0.90560  0.59953  0.65106  1.0000
  C   C5218     1.0  0.90774  0.59168  0.66706  1.0000
  C   C5219     1.0  0.91337  0.59955  0.67612  1.0000
  H   H4174     1.0  0.91926  0.63423  0.64721  1.0000
  H   H4175     1.0  0.90865  0.62086  0.63145  1.0000
  H   H4176     1.0  0.90466  0.57974  0.67260  1.0000
  H   H4177     1.0  0.91454  0.59363  0.68865  1.0000
  H   H4178     1.0  0.80904  0.69098  0.62282  1.0000
  C   C5220     1.0  0.77928  0.52648  0.65371  1.0000
  H   H4179     1.0  0.69326  0.84783  0.64457  1.0000
  C   C5221     1.0  0.95040  0.70965  0.69131  1.0000
  C   C5222     1.0  0.94857  0.72262  0.67750  1.0000
  C   C5223     1.0  0.94964  0.73872  0.67768  1.0000
  H   H4180     1.0  0.86298  0.74475  0.61168  1.0000
  H   H4181     1.0  0.54068  0.73828  0.76415  1.0000
  H   H4182     1.0  0.94629  0.72020  0.66679  1.0000
  H   H4183     1.0  0.94748  0.74883  0.66738  1.0000
  H   H4184     1.0  0.92531  0.78907  0.67962  1.0000
  C   C5224     1.0  0.90415  0.81658  0.60773  1.0000
  C   C5225     1.0  0.91519  0.82391  0.61119  1.0000
  C   C5226     1.0  0.92554  0.81491  0.62214  1.0000
  C   C5227     1.0  0.92548  0.79821  0.62888  1.0000
  H   H4185     1.0  0.77017  0.57064  0.66132  1.0000
  C   C5228     1.0  0.98531  0.87100  0.75416  1.0000
  H   H4186     1.0  0.91521  0.83681  0.60591  1.0000
  H   H4187     1.0  0.93336  0.79118  0.63737  1.0000
  H   H4188     1.0  0.87357  0.62928  0.65619  1.0000
  C   C5229     1.0  0.88257  0.72538  0.60304  1.0000
  C   C5230     1.0  0.89371  0.71068  0.60761  1.0000
  C   C5231     1.0  0.89480  0.70458  0.62414  1.0000
  C   C5232     1.0  0.88423  0.71282  0.63624  1.0000
  H   H4189     1.0  0.64712  0.96502  0.75605  1.0000
  C   C5233     1.0  0.84031  0.77247  0.68723  1.0000
  C   C5234     1.0  0.93994  0.49422  0.70900  1.0000
  H   H4190     1.0  0.90383  0.69355  0.62745  1.0000
  C   C5235     1.0  0.62364  0.92325  0.75863  1.0000
  H   H4191     1.0  0.93820  0.73305  0.63273  1.0000
  C   C5236     1.0  0.91107  0.49356  0.72136  1.0000
  S   S715      1.0  0.97701  0.82152  0.64330  1.0000
  H   H4192     1.0  0.88399  0.64657  0.69335  1.0000
  C   C5237     1.0  0.87816  0.63636  0.67605  1.0000
  Fe  Fe355     1.0  0.49540  0.76273  0.77786  1.0000
  Fe  Fe356     1.0  0.97107  0.81747  0.67097  1.0000
  C   C5238     1.0  0.85918  0.49636  0.61458  1.0000
  C   C5239     1.0  0.99156  0.81749  0.59595  1.0000
  H   H4193     1.0  0.86420  0.69527  0.62625  1.0000
  C   C5240     1.0  0.89184  0.50088  0.75275  1.0000
  Fe  Fe357     1.0  0.50120  0.79633  0.77854  1.0000
  C   C5241     1.0  0.77663  0.52866  0.66972  1.0000
  C   C5242     1.0  0.75390  0.53749  0.72519  1.0000
  C   C5243     1.0  0.96271  0.62578  0.63671  1.0000
  H   H4194     1.0  0.67763  0.91045  0.75107  1.0000
  C   C5244     1.0  0.89315  0.50614  0.77855  1.0000
  C   C5245     1.0  0.73298  0.52358  0.71599  1.0000
  C   C5246     1.0  0.79233  0.53916  0.69639  1.0000
  C   C5247     1.0  0.57492  0.93226  0.58911  1.0000
  Fe  Fe358     1.0  0.96231  0.78375  0.67433  1.0000
  C   C5248     1.0  0.88283  0.66439  0.61609  1.0000
  H   H4195     1.0  0.68303  0.94116  0.77977  1.0000
  C   C5249     1.0  0.54141  0.93832  0.67706  1.0000
  C   C5250     1.0  0.84721  0.49780  0.73466  1.0000
  C   C5251     1.0  0.65517  0.91928  0.76816  1.0000
  H   H4196     1.0  0.97198  0.89634  0.74961  1.0000
  C   C5252     1.0  0.90998  0.77481  0.67662  1.0000
  H   H4197     1.0  0.88738  0.81595  0.65273  1.0000
  C   C5253     1.0  0.90023  0.75021  0.65316  1.0000
  C   C5254     1.0  0.91716  0.74296  0.65010  1.0000
  H   H4198     1.0  0.95384  0.72056  0.60804  1.0000
  C   C5255     1.0  0.75365  0.85603  0.59218  1.0000
  C   C5256     1.0  0.89964  0.75007  0.62529  1.0000
  C   C5257     1.0  0.89159  0.75412  0.64051  1.0000
  H   H4199     1.0  0.86988  0.73630  0.66827  1.0000
  H   H4200     1.0  0.91714  0.76339  0.68250  1.0000
  H   H4201     1.0  0.93852  0.74945  0.58635  1.0000
  H   H4202     1.0  0.92410  0.74066  0.65947  1.0000
  H   H4203     1.0  0.89293  0.75330  0.61553  1.0000
  C   C5258     1.0  0.56225  0.93026  0.60316  1.0000
  H   H4204     1.0  0.69685  0.97172  0.73548  1.0000
  C   C5259     1.0  0.90257  0.73256  0.71709  1.0000
  H   H4205     1.0  0.83204  0.61700  0.64912  1.0000
  H   H4206     1.0  0.57178  0.86853  0.65153  1.0000
  C   C5260     1.0  0.82186  0.67065  0.67031  1.0000
  P   P177      1.0  0.89031  0.75597  0.67262  1.0000
  H   H4207     1.0  0.60411  0.98040  0.77297  1.0000
  C   C5261     1.0  0.89327  0.80456  0.65993  1.0000
  C   C5262     1.0  0.66097  0.90572  0.73245  1.0000
  C   C5263     1.0  0.91426  0.79094  0.62562  1.0000
  C   C5264     1.0  0.80271  0.61775  0.71722  1.0000
  C   C5265     1.0  0.83637  0.60528  0.69884  1.0000
  C   C5266     1.0  0.83898  0.59310  0.71302  1.0000
  C   C5267     1.0  0.85467  0.58289  0.71351  1.0000
  C   C5268     1.0  0.86772  0.58455  0.69980  1.0000
  C   C5269     1.0  0.79942  0.63132  0.72455  1.0000
  C   C5270     1.0  0.78932  0.63114  0.74034  1.0000
  C   C5271     1.0  0.78248  0.61744  0.74891  1.0000
  C   C5272     1.0  0.78561  0.60399  0.74164  1.0000
  C   C5273     1.0  0.79563  0.60415  0.72586  1.0000
  H   H4208     1.0  0.82894  0.59101  0.72353  1.0000
  H   H4209     1.0  0.85654  0.57310  0.72422  1.0000
  H   H4210     1.0  0.87966  0.57611  0.69994  1.0000
  H   H4211     1.0  0.80462  0.64203  0.71821  1.0000
  H   H4212     1.0  0.78681  0.64161  0.74597  1.0000
  H   H4213     1.0  0.89416  0.50578  0.70488  1.0000
  H   H4214     1.0  0.78030  0.59335  0.74823  1.0000
  H   H4215     1.0  0.79798  0.59355  0.72051  1.0000
  C   C5274     1.0  0.62199  0.92931  0.74218  1.0000
  C   C5275     1.0  0.99214  0.61802  0.62504  1.0000
  H   H4216     1.0  0.82333  0.68310  0.66409  1.0000
  H   H4217     1.0  0.66238  0.89604  0.59746  1.0000
  H   H4218     1.0  0.55089  0.92776  0.60229  1.0000
  H   H4219     1.0  0.95517  0.70298  0.71572  1.0000
  C   C5276     1.0  0.59112  0.98049  0.77493  1.0000
  P   P178      1.0  0.77149  0.54686  0.69324  1.0000
  C   C5277     1.0  0.91485  0.78946  0.67479  1.0000
  C   C5278     1.0  0.77828  0.54014  0.64057  1.0000
  C   C5279     1.0  0.74117  0.53119  0.73705  1.0000
  C   C5280     1.0  0.56946  0.83910  0.72864  1.0000
  C   C5281     1.0  0.57396  0.85407  0.72690  1.0000
  C   C5282     1.0  0.57635  0.85791  0.74074  1.0000
  P   P179      1.0  0.57736  0.86819  0.70713  1.0000
  C   C5283     1.0  0.56788  0.88896  0.70981  1.0000
  C   C5284     1.0  0.59948  0.86497  0.69948  1.0000
  C   C5285     1.0  0.60860  0.87457  0.70257  1.0000
  C   C5286     1.0  0.62572  0.87209  0.69651  1.0000
  C   C5287     1.0  0.63389  0.85980  0.68761  1.0000
  C   C5288     1.0  0.62497  0.84981  0.68495  1.0000
  C   C5289     1.0  0.60785  0.85226  0.69101  1.0000
  C   C5290     1.0  0.55372  0.89185  0.72232  1.0000
  C   C5291     1.0  0.54627  0.90790  0.72444  1.0000
  C   C5292     1.0  0.55279  0.92120  0.71406  1.0000
  C   C5293     1.0  0.56658  0.91847  0.70128  1.0000
  C   C5294     1.0  0.57400  0.90243  0.69901  1.0000
  H   H4220     1.0  0.74365  0.61002  0.70851  1.0000
  C   C5295     1.0  0.87027  0.63200  0.61909  1.0000
  C   C5296     1.0  0.56430  0.93136  0.61833  1.0000
  H   H4221     1.0  0.56824  0.83547  0.71808  1.0000
  H   H4222     1.0  0.58034  0.86912  0.73962  1.0000
  H   H4223     1.0  0.60252  0.88392  0.70972  1.0000
  H   H4224     1.0  0.63266  0.87968  0.69880  1.0000
  H   H4225     1.0  0.64716  0.85794  0.68294  1.0000
  H   H4226     1.0  0.63135  0.84010  0.67828  1.0000
  H   H4227     1.0  0.60114  0.84425  0.68908  1.0000
  C   C5297     1.0  0.90688  0.50230  0.70624  1.0000
  H   H4228     1.0  0.54744  0.93354  0.71626  1.0000
  H   H4229     1.0  0.57191  0.92875  0.69350  1.0000
  H   H4230     1.0  0.58469  0.90060  0.68906  1.0000
  H   H4231     1.0  0.58604  0.87195  0.67113  1.0000
  C   C5298     1.0  0.84866  0.67837  0.62869  1.0000
  H   H4232     1.0  0.77457  0.56657  0.63313  1.0000
  C   C5299     1.0  0.86399  0.52413  0.60591  1.0000
  H   H4233     1.0  0.54461  0.98163  0.78127  1.0000
  C   C5300     1.0  0.57915  0.93430  0.61956  1.0000
  H   H4234     1.0  0.97978  0.86733  0.74622  1.0000
  C   C5301     1.0  0.56159  0.91487  0.65916  1.0000
  C   C5302     1.0  0.95485  0.72872  0.70513  1.0000
  H   H4235     1.0  0.59634  0.97685  0.71968  1.0000
  C   C5303     1.0  0.55512  0.94220  0.66484  1.0000
  C   C5304     1.0  0.87958  0.64924  0.68208  1.0000
  H   H4236     1.0  0.88149  0.62374  0.68270  1.0000
  C   C5305     1.0  0.56608  0.86661  0.66457  1.0000
  H   H4237     1.0  0.81059  0.60288  0.77085  1.0000
  P   P180      1.0  0.64203  0.90856  0.76385  1.0000
  H   H4238     1.0  0.60728  0.97443  0.67149  1.0000
  C   C5306     1.0  0.83103  0.60783  0.75081  1.0000
  H   H4239     1.0  0.63170  0.92574  0.73208  1.0000
  C   C5307     1.0  0.95335  0.71605  0.59770  1.0000
  H   H4240     1.0  0.93401  0.79962  0.58818  1.0000
  C   C5308     1.0  0.52983  0.98001  0.74544  1.0000
  S   S716      1.0  0.53223  0.93091  0.75600  1.0000
  H   H4241     1.0  0.61344  0.97709  0.63636  1.0000
  H   H4242     1.0  0.86996  0.58387  0.74633  1.0000
  C   C5309     1.0  0.89866  0.65942  0.61959  1.0000
  H   H4243     1.0  0.95663  0.64036  0.59818  1.0000
  C   C5310     1.0  0.74577  0.52976  0.70409  1.0000
  C   C5311     1.0  0.58497  0.95617  0.63650  1.0000
  H   H4244     1.0  0.86904  0.68149  0.65142  1.0000
  C   C5312     1.0  0.56710  0.86551  0.69272  1.0000
  C   C5313     1.0  0.72414  0.49832  0.58933  1.0000
  C   C5314     1.0  0.82993  0.64509  0.68944  1.0000
  C   C5315     1.0  0.77123  0.57362  0.70543  1.0000
  C   C5316     1.0  0.88823  0.78990  0.66193  1.0000
  H   H4245     1.0  0.51054  0.65126  0.77123  1.0000
  C   C5317     1.0  0.52873  0.66491  0.76956  1.0000
  H   H4246     1.0  0.85365  0.60991  0.73262  1.0000
  C   C5318     1.0  0.76423  0.56787  0.69580  1.0000
  C   C5319     1.0  0.66245  0.87200  0.73755  1.0000
  C   C5320     1.0  0.51509  0.65778  0.77757  1.0000
  H   H4247     1.0  0.98149  0.67530  0.58524  1.0000
  C   C5321     1.0  0.54799  0.91097  0.67151  1.0000
  C   C5322     1.0  0.87384  0.52032  0.61743  1.0000
  C   C5323     1.0  0.86170  0.74658  0.67335  1.0000
  H   H4248     1.0  0.83832  0.64297  0.65016  1.0000
  H   H4249     1.0  0.85077  0.59996  0.62969  1.0000
  H   H4250     1.0  0.61081  0.94895  0.63806  1.0000
  H   H4251     1.0  0.53102  0.85725  0.69129  1.0000
  C   C5324     1.0  0.80747  0.60831  0.68567  1.0000
  H   H4252     1.0  0.94857  0.60736  0.64087  1.0000
  C   C5325     1.0  0.97692  0.81183  0.60280  1.0000
  S   S717      1.0  0.96801  0.78560  0.64708  1.0000
  H   H4253     1.0  0.77788  0.51786  0.67969  1.0000
  H   H4254     1.0  0.58557  0.94235  0.77735  1.0000
  H   H4255     1.0  0.97699  0.72084  0.58355  1.0000
  H   H4256     1.0  0.57697  0.98051  0.68141  1.0000
  C   C5326     1.0  0.50246  0.97406  0.72466  1.0000
  C   C5327     1.0  0.98091  0.88732  0.75606  1.0000
  C   C5328     1.0  0.60031  0.92038  0.64468  1.0000
  C   C5329     1.0  0.61006  0.90929  0.63471  1.0000
  C   C5330     1.0  0.62435  0.89841  0.63903  1.0000
  C   C5331     1.0  0.62894  0.89843  0.65334  1.0000
  C   C5332     1.0  0.61902  0.90905  0.66357  1.0000
  C   C5333     1.0  0.60473  0.91993  0.65931  1.0000
  H   H4257     1.0  0.64036  0.51545  0.59771  1.0000
  H   H4258     1.0  0.52418  0.97295  0.70494  1.0000
  H   H4259     1.0  0.60294  0.93942  0.60583  1.0000
  H   H4260     1.0  0.60709  0.90924  0.62335  1.0000
  H   H4261     1.0  0.63223  0.89044  0.63089  1.0000
  H   H4262     1.0  0.64038  0.89051  0.65629  1.0000
  H   H4263     1.0  0.62265  0.90923  0.67458  1.0000
  Fe  Fe359     1.0  0.88285  0.78892  0.59103  1.0000
  C   C5334     1.0  0.57328  0.84747  0.75625  1.0000
  C   C5335     1.0  0.84821  0.48937  0.72262  1.0000
  C   C5336     1.0  0.98973  0.89155  0.63960  1.0000
  H   H4264     1.0  0.85686  0.56736  0.77238  1.0000
  H   H4265     1.0  0.75698  0.91329  0.59316  1.0000
  H   H4266     1.0  0.89213  0.75724  0.70564  1.0000
  C   C5337     1.0  0.99016  0.73642  0.63281  1.0000
  C   C5338     1.0  0.84261  0.62129  0.64066  1.0000
  C   C5339     1.0  0.96410  0.75346  0.61685  1.0000
  H   H4267     1.0  0.53479  0.66383  0.75703  1.0000
  C   C5340     1.0  0.52534  0.84231  0.77034  1.0000
  C   C5341     1.0  0.65283  0.89749  0.74760  1.0000
  C   C5342     1.0  0.53783  0.92273  0.68038  1.0000
  H   H4268     1.0  0.84277  0.72035  0.62099  1.0000
  C   C5343     1.0  0.87241  0.72704  0.63178  1.0000
  C   C5344     1.0  0.66308  0.50027  0.58713  1.0000
  H   H4269     1.0  0.60597  0.94412  0.72582  1.0000
  H   H4270     1.0  0.85775  0.49952  0.65786  1.0000
  H   H4271     1.0  0.87742  0.67542  0.67775  1.0000
  C   C5345     1.0  0.60057  0.98711  0.67022  1.0000
  H   H4272     1.0  0.72104  0.51911  0.74172  1.0000
  H   H4273     1.0  0.74714  0.52912  0.69145  1.0000
  H   H4274     1.0  0.84072  0.66628  0.68394  1.0000
  C   C5346     1.0  0.89664  0.74457  0.70425  1.0000
  C   C5347     1.0  0.84307  0.48949  0.68080  1.0000
  C   C5348     1.0  0.74251  0.59283  0.69504  1.0000
  C   C5349     1.0  0.96066  0.61040  0.63630  1.0000
  C   C5350     1.0  0.82162  0.53915  0.68646  1.0000
  C   C5351     1.0  0.82506  0.52738  0.70051  1.0000
  C   C5352     1.0  0.81219  0.52136  0.71240  1.0000
  C   C5353     1.0  0.79589  0.52718  0.71037  1.0000
  H   H4275     1.0  0.74364  0.57288  0.68406  1.0000
  H   H4276     1.0  0.73119  0.60010  0.69129  1.0000
  H   H4277     1.0  0.71227  0.96502  0.76953  1.0000
  H   H4278     1.0  0.83156  0.54381  0.67718  1.0000
  H   H4279     1.0  0.83767  0.52307  0.70225  1.0000
  H   H4280     1.0  0.81479  0.51228  0.72329  1.0000
  H   H4281     1.0  0.78620  0.52227  0.71972  1.0000
  H   H4282     1.0  0.90220  0.71997  0.67738  1.0000
  C   C5354     1.0  0.85744  0.77107  0.68387  1.0000
  C   C5355     1.0  0.54312  0.86028  0.68695  1.0000
  C   C5356     1.0  0.87121  0.66886  0.65819  1.0000
  C   C5357     1.0  0.93574  0.50248  0.69387  1.0000
  C   C5358     1.0  0.88462  0.51763  0.74782  1.0000
  C   C5359     1.0  0.68637  0.96728  0.73515  1.0000
  C   C5360     1.0  0.75642  0.53668  0.70862  1.0000
  C   C5361     1.0  0.52891  0.85125  0.77988  1.0000
  C   C5362     1.0  0.86691  0.61708  0.61890  1.0000
  C   C5363     1.0  0.77275  0.54460  0.67277  1.0000
  H   H4283     1.0  0.53388  0.94725  0.68432  1.0000
  C   C5364     1.0  0.87355  0.63964  0.66097  1.0000
  C   C5365     1.0  0.85975  0.64173  0.63008  1.0000
  H   H4284     1.0  0.67648  0.90368  0.70861  1.0000
  H   H4285     1.0  0.69955  0.90869  0.58466  1.0000
  C   C5366     1.0  0.88112  0.52842  0.75840  1.0000
  H   H4286     1.0  0.83710  0.48928  0.71918  1.0000
  H   H4287     1.0  0.95216  0.63474  0.64150  1.0000
  H   H4288     1.0  0.54488  0.67912  0.77119  1.0000
  C   C5367     1.0  0.90653  0.80436  0.66644  1.0000
  C   C5368     1.0  0.76383  0.58875  0.71000  1.0000
  C   C5369     1.0  0.84606  0.63609  0.64105  1.0000
  H   H4289     1.0  0.66347  0.49097  0.59846  1.0000
  P   P181      1.0  0.86493  0.66005  0.63189  1.0000
  H   H4290     1.0  0.57124  0.72904  0.75586  1.0000
  H   H4291     1.0  0.90036  0.65290  0.63181  1.0000
  H   H4292     1.0  0.78069  0.53829  0.62814  1.0000
  C   C5370     1.0  0.83994  0.70836  0.62298  1.0000
  C   C5371     1.0  0.95294  0.74179  0.69150  1.0000
  H   H4293     1.0  0.78278  0.62335  0.69091  1.0000
  S   S718      1.0  0.63462  0.95940  0.69272  1.0000
  H   H4294     1.0  0.98706  0.66796  0.68728  1.0000
  C   C5372     1.0  0.53432  0.67369  0.77761  1.0000
  H   H4295     1.0  0.87844  0.79013  0.65614  1.0000
  S   S719      1.0  0.76732  0.48992  0.64766  1.0000
  H   H4296     1.0  0.62121  0.96848  0.73196  1.0000
  H   H4297     1.0  0.95271  0.76320  0.63859  1.0000
  C   C5373     1.0  0.87602  0.66547  0.67320  1.0000
  H   H4298     1.0  0.97572  0.74858  0.65260  1.0000
  Fe  Fe360     1.0  0.77140  0.50842  0.77110  1.0000
  H   H4299     1.0  0.77472  0.61723  0.76118  1.0000
  C   C5374     1.0  0.52977  0.95114  0.75819  1.0000
  C   C5375     1.0  0.90796  0.71168  0.70135  1.0000
  C   C5376     1.0  0.72068  0.90848  0.62016  1.0000
  C   C5377     1.0  0.84459  0.74800  0.67669  1.0000
  C   C5378     1.0  0.89703  0.74030  0.68955  1.0000
  H   H4300     1.0  0.90182  0.70432  0.59829  1.0000
  H   H4301     1.0  0.83971  0.73896  0.67398  1.0000
  C   C5379     1.0  0.91923  0.50659  0.69255  1.0000
  H   H4302     1.0  0.91336  0.70685  0.72533  1.0000
  P   P182      1.0  0.72221  0.87693  0.59155  1.0000
  H   H4303     1.0  0.67753  0.87375  0.71292  1.0000
  C   C5380     1.0  0.53296  0.96353  0.74413  1.0000
  S   S720      1.0  0.76096  0.53426  0.77529  1.0000
  H   H4304     1.0  0.83025  0.66571  0.62817  1.0000
  S   S721      1.0  0.86155  0.77818  0.59154  1.0000
  H   H4305     1.0  0.54853  0.88174  0.73065  1.0000
  H   H4306     1.0  0.79924  0.64324  0.67246  1.0000
  C   C5381     1.0  0.80833  0.64800  0.67515  1.0000
  C   C5382     1.0  0.90329  0.80019  0.61533  1.0000
  C   C5383     1.0  0.81086  0.58883  0.66862  1.0000
  C   C5384     1.0  0.56507  0.93063  0.65548  1.0000
  C   C5385     1.0  0.84945  0.57848  0.76632  1.0000
  H   H4307     1.0  0.84788  0.61602  0.67400  1.0000
  P   P183      1.0  0.81601  0.61757  0.69702  1.0000
  C   C5386     1.0  0.84964  0.60705  0.68524  1.0000
  C   C5387     1.0  0.77219  0.55830  0.65946  1.0000
  H   H4308     1.0  0.66060  0.91878  0.73031  1.0000
  H   H4309     1.0  0.83768  0.63796  0.69807  1.0000
  H   H4310     1.0  0.99100  0.96546  0.71207  1.0000
  C   C5388     1.0  0.86142  0.49709  0.73988  1.0000
  H   H4311     1.0  0.83018  0.59072  0.67854  1.0000
  H   H4312     1.0  0.87500  0.59762  0.67481  1.0000
  C   C5389     1.0  0.74971  0.57751  0.69076  1.0000
  H   H4313     1.0  0.92991  0.70918  0.60912  1.0000
  H   H4314     1.0  0.59744  0.92840  0.66717  1.0000
  H   H4315     1.0  0.53783  0.96038  0.73218  1.0000
  H   H4316     1.0  0.81863  0.57900  0.66258  1.0000
  C   C5390     1.0  0.81740  0.59561  0.67773  1.0000
  C   C5391     1.0  0.81824  0.63833  0.68633  1.0000
  H   H4317     1.0  0.64731  0.87380  0.76147  1.0000
  C   C5392     1.0  0.56625  0.82874  0.74424  1.0000
  H   H4318     1.0  0.98095  0.95552  0.75925  1.0000
  S   S722      1.0  0.95382  0.76166  0.69321  1.0000
  C   C5393     1.0  0.55126  0.86197  0.69817  1.0000
  C   C5394     1.0  0.67784  0.86273  0.60981  1.0000
  H   H4319     1.0  0.86169  0.53650  0.59838  1.0000
  H   H4320     1.0  0.87938  0.52963  0.61865  1.0000
  C   C5395     1.0  0.96334  0.75516  0.63261  1.0000
  C   C5396     1.0  0.97638  0.74680  0.64052  1.0000
  H   H4321     1.0  0.91601  0.51290  0.68079  1.0000
  H   H4322     1.0  0.80245  0.67151  0.65861  1.0000
  C   C5397     1.0  0.79079  0.61387  0.68457  1.0000
  C   C5398     1.0  0.81014  0.66409  0.66720  1.0000
  C   C5399     1.0  0.83170  0.66116  0.68146  1.0000
  H   H4323     1.0  0.57479  0.85080  0.76689  1.0000
  C   C5400     1.0  0.81801  0.53220  0.61775  1.0000
  C   C5401     1.0  0.87179  0.73349  0.61513  1.0000
  C   C5402     1.0  0.74950  0.59840  0.70477  1.0000
  C   C5403     1.0  0.85204  0.69403  0.62620  1.0000
  Fe  Fe361     1.0  0.64076  0.96882  0.66541  1.0000
  H   H4324     1.0  0.92321  0.77430  0.59777  1.0000
  H   H4325     1.0  0.87879  0.76068  0.64214  1.0000
  C   C5404     1.0  0.79438  0.59470  0.66728  1.0000
  H   H4326     1.0  0.89564  0.82389  0.59994  1.0000
  H   H4327     1.0  0.86884  0.67688  0.59713  1.0000
  H   H4328     1.0  0.77154  0.61170  0.67421  1.0000
  H   H4329     1.0  0.76174  0.54302  0.72898  1.0000
  H   H4330     1.0  0.97258  0.58695  0.62984  1.0000
  C   C5405     1.0  0.86987  0.65597  0.65193  1.0000
  H   H4331     1.0  0.88145  0.52227  0.73584  1.0000
  C   C5406     1.0  0.83389  0.76100  0.68354  1.0000
  H   H4332     1.0  0.92458  0.65935  0.61022  1.0000
  H   H4333     1.0  0.83204  0.78244  0.69272  1.0000
  C   C5407     1.0  0.82098  0.69179  0.62401  1.0000
  C   C5408     1.0  0.85670  0.51214  0.60446  1.0000
  S   S723      1.0  0.75688  0.49354  0.76486  1.0000
  C   C5409     1.0  0.93491  0.77441  0.58894  1.0000
  C   C5410     1.0  0.86822  0.75837  0.67648  1.0000
  H   H4334     1.0  0.92949  0.69772  0.58615  1.0000
  H   H4335     1.0  0.86013  0.50297  0.74983  1.0000
  H   H4336     1.0  0.80297  0.55398  0.67327  1.0000
  C   C5411     1.0  0.73831  0.85894  0.58791  1.0000
  C   C5412     1.0  0.74587  0.90856  0.59907  1.0000
  C   C5413     1.0  0.97658  0.88376  0.64278  1.0000
  C   C5414     1.0  0.90230  0.72368  0.68836  1.0000
  C   C5415     1.0  0.59152  0.93687  0.60526  1.0000
  C   C5416     1.0  0.56806  0.83298  0.75806  1.0000
  C   C5417     1.0  0.98364  0.68646  0.66531  1.0000
  H   H4337     1.0  0.91246  0.69895  0.70026  1.0000
  C   C5418     1.0  0.66998  0.89716  0.72009  1.0000
  C   C5419     1.0  0.65362  0.88051  0.75005  1.0000
  C   C5420     1.0  0.73522  0.91424  0.61276  1.0000
  C   C5421     1.0  0.92763  0.48985  0.72274  1.0000
  H   H4338     1.0  0.56218  0.81750  0.74569  1.0000
  C   C5422     1.0  0.85696  0.58789  0.75166  1.0000
  C   C5423     1.0  0.60180  0.97501  0.63563  1.0000
  C   C5424     1.0  0.91243  0.66298  0.60731  1.0000
  C   C5425     1.0  0.95370  0.71284  0.70499  1.0000
  H   H4339     1.0  0.58247  0.95180  0.74831  1.0000
  C   C5426     1.0  0.87630  0.50458  0.62763  1.0000
  C   C5427     1.0  0.65839  0.96352  0.74669  1.0000
  H   H4340     1.0  0.92228  0.73895  0.61084  1.0000
  H   H4341     1.0  0.53570  0.90998  0.73447  1.0000
  C   C5428     1.0  0.59407  0.94424  0.75117  1.0000
  C   C5429     1.0  0.67202  0.91773  0.76032  1.0000
  H   H4342     1.0  0.66722  0.86324  0.60510  1.0000
  C   C5430     1.0  0.92517  0.73885  0.63489  1.0000
  H   H4343     1.0  0.64936  0.95075  0.73362  1.0000
  C   C5431     1.0  0.60728  0.93978  0.73851  1.0000
  C   C5432     1.0  0.69258  0.85396  0.63196  1.0000
  S   S724      1.0  0.51521  0.81676  0.76546  1.0000
  Fe  Fe362     1.0  0.54476  0.91120  0.77460  1.0000
  H   H4344     1.0  0.97222  0.80970  0.61596  1.0000
  C   C5433     1.0  0.51361  0.98090  0.71112  1.0000
  H   H4345     1.0  0.72513  0.51782  0.71248  1.0000
  C   C5434     1.0  0.91631  0.74221  0.62257  1.0000
  H   H4346     1.0  0.97473  0.87059  0.68391  1.0000
  H   H4347     1.0  0.77568  0.57003  0.77371  1.0000
  C   C5435     1.0  0.87682  0.48836  0.73267  1.0000
  H   H4348     1.0  0.76904  0.59274  0.71794  1.0000
  C   C5436     1.0  0.68200  0.92569  0.76440  1.0000
  H   H4349     1.0  0.97347  0.68223  0.66389  1.0000
  C   C5437     1.0  0.61053  0.92846  0.77124  1.0000
  C   C5438     1.0  0.73066  0.52432  0.73244  1.0000
  C   C5439     1.0  0.49688  0.72556  0.76336  1.0000
  H   H4350     1.0  0.91077  0.81564  0.66447  1.0000
  C   C5440     1.0  0.77172  0.48936  0.71638  1.0000
  H   H4351     1.0  0.95717  0.73090  0.71596  1.0000
  H   H4352     1.0  0.52698  0.84680  0.75714  1.0000
  H   H4353     1.0  0.90291  0.73602  0.72812  1.0000
  C   C5441     1.0  0.58950  0.93565  0.59016  1.0000
  H   H4354     1.0  0.52748  0.91961  0.69015  1.0000
  H   H4355     1.0  0.54540  0.89878  0.67436  1.0000
  C   C5442     1.0  0.83408  0.54381  0.78115  1.0000
  C   C5443     1.0  0.67065  0.88032  0.72259  1.0000
  H   H4356     1.0  0.83901  0.50109  0.68472  1.0000
  C   C5444     1.0  0.84777  0.60260  0.74395  1.0000
  H   H4357     1.0  0.66286  0.85896  0.73949  1.0000
  H   H4358     1.0  0.95697  0.80453  0.59840  1.0000
  C   C5445     1.0  0.96639  0.71623  0.58390  1.0000
  C   C5446     1.0  0.52018  0.97179  0.77492  1.0000
  H   H4359     1.0  0.55801  0.95407  0.66310  1.0000
  C   C5447     1.0  0.97424  0.59888  0.63011  1.0000
  C   C5448     1.0  0.83261  0.58363  0.77326  1.0000
  S   S725      1.0  0.88662  0.79221  0.61480  1.0000
  C   C5449     1.0  0.83309  0.67741  0.62722  1.0000
  H   H4360     1.0  0.53299  0.86261  0.77400  1.0000
  C   C5450     1.0  0.88525  0.52265  0.77384  1.0000
  S   S726      1.0  0.55246  0.88514  0.77102  1.0000
  H   H4361     1.0  0.56940  0.90563  0.65239  1.0000
  H   H4362     1.0  0.55425  0.92992  0.62896  1.0000
  C   C5451     1.0  0.90838  0.71614  0.71558  1.0000
  H   H4363     1.0  0.56531  0.82512  0.77018  1.0000
  H   H4364     1.0  0.98746  0.90489  0.63710  1.0000
  H   H4365     1.0  0.82397  0.61929  0.74490  1.0000
  C   C5452     1.0  0.67861  0.85499  0.62614  1.0000
  C   C5453     1.0  0.97704  0.67797  0.61020  1.0000
  H   H4366     1.0  0.84053  0.52140  0.77206  1.0000
  C   C5454     1.0  0.57179  0.96972  0.63383  1.0000
  C   C5455     1.0  0.67545  0.93473  0.77674  1.0000
  C   C5456     1.0  0.51954  0.82773  0.77780  1.0000
  H   H4367     1.0  0.54652  0.79264  0.76583  1.0000
  H   H4368     1.0  0.96928  0.86047  0.64883  1.0000
  H   H4369     1.0  0.94523  0.50566  0.68311  1.0000
  C   C5457     1.0  0.86908  0.49239  0.62622  1.0000
  C   C5458     1.0  0.89660  0.49531  0.76798  1.0000
  C   C5459     1.0  0.50570  0.71585  0.75187  1.0000
  H   H4370     1.0  0.78195  0.49128  0.70602  1.0000
  H   H4371     1.0  0.75625  0.86444  0.59790  1.0000
  H   H4372     1.0  0.50782  0.69441  0.74267  1.0000
  H   H4373     1.0  0.68213  0.97213  0.68038  1.0000
  C   C5460     1.0  0.55760  0.98104  0.77969  1.0000
  C   C5461     1.0  0.76577  0.84186  0.58940  1.0000
  C   C5462     1.0  0.70804  0.96892  0.78117  1.0000
  C   C5463     1.0  0.50091  0.70160  0.75181  1.0000
  H   H4374     1.0  0.98801  0.73023  0.67614  1.0000
  H   H4375     1.0  0.96410  0.89100  0.64287  1.0000
  H   H4376     1.0  0.55361  0.76295  0.76514  1.0000
  H   H4377     1.0  0.84864  0.51522  0.59588  1.0000
  C   C5464     1.0  0.55522  0.76676  0.77545  1.0000
  C   C5465     1.0  0.52353  0.95525  0.77363  1.0000
  H   H4378     1.0  0.51629  0.71943  0.74280  1.0000
  C   C5466     1.0  0.56410  0.72102  0.76533  1.0000
  H   H4379     1.0  0.59267  0.98019  0.74983  1.0000
  H   H4380     1.0  0.88242  0.53098  0.78210  1.0000
  H   H4381     1.0  0.98497  0.90484  0.76731  1.0000
  C   C5467     1.0  0.57196  0.70533  0.77269  1.0000
  C   C5468     1.0  0.89471  0.67648  0.58786  1.0000
  C   C5469     1.0  0.55122  0.78350  0.77584  1.0000
  C   C5470     1.0  0.96836  0.80880  0.59275  1.0000
  C   C5471     1.0  0.93992  0.70962  0.59830  1.0000
  S   S727      1.0  0.67177  0.97948  0.76281  1.0000
  C   C5472     1.0  0.98544  0.84455  0.68980  1.0000
  C   C5473     1.0  0.91044  0.67145  0.59144  1.0000
  H   H4382     1.0  0.97967  0.64160  0.63151  1.0000
  S   S728      1.0  0.56960  0.91185  0.77751  1.0000
  Fe  Fe363     1.0  0.57638  0.88503  0.77658  1.0000
  C   C5474     1.0  0.98992  0.60266  0.62446  1.0000
  C   C5475     1.0  0.54696  0.72627  0.77003  1.0000
  H   H4383     1.0  0.50442  0.96076  0.72900  1.0000
  C   C5476     1.0  0.75833  0.48995  0.74522  1.0000
  C   C5477     1.0  0.95925  0.64575  0.58506  1.0000
  C   C5478     1.0  0.72771  0.89078  0.60052  1.0000
  C   C5479     1.0  0.99141  0.67834  0.67846  1.0000
  H   H4384     1.0  0.73805  0.92333  0.61749  1.0000
  H   H4385     1.0  0.98374  0.98056  0.76576  1.0000
  C   C5480     1.0  0.74203  0.89704  0.59283  1.0000
  H   H4386     1.0  0.81509  0.71842  0.61930  1.0000
  H   H4387     1.0  0.87515  0.54122  0.75457  1.0000
  H   H4388     1.0  0.87541  0.60930  0.61085  1.0000
  C   C5481     1.0  0.85374  0.48852  0.66547  1.0000
  H   H4389     1.0  0.62879  0.83225  0.58639  1.0000
  C   C5482     1.0  0.58470  0.98030  0.76184  1.0000
  H   H4390     1.0  0.73246  0.50672  0.58400  1.0000
  C   C5483     1.0  0.97950  0.86657  0.64607  1.0000
  H   H4391     1.0  0.83045  0.55141  0.76995  1.0000
  H   H4392     1.0  0.88904  0.49116  0.66963  1.0000
  H   H4393     1.0  0.56015  0.96787  0.63294  1.0000
  S   S729      1.0  0.50382  0.74361  0.76202  1.0000
  H   H4394     1.0  0.69012  0.87540  0.58669  1.0000
  C   C5484     1.0  0.69854  0.98484  0.78170  1.0000
  H   H4395     1.0  0.69476  0.92502  0.75783  1.0000
  C   C5485     1.0  0.99062  0.73440  0.61708  1.0000
  H   H4396     1.0  0.98135  0.70718  0.64511  1.0000
  C   C5486     1.0  0.69091  0.86966  0.59934  1.0000
  H   H4397     1.0  0.70528  0.89308  0.61974  1.0000
  C   C5487     1.0  0.99233  0.95987  0.75401  1.0000
  C   C5488     1.0  0.52344  0.98418  0.76084  1.0000
  C   C5489     1.0  0.98248  0.68327  0.62129  1.0000
  C   C5490     1.0  0.71690  0.89685  0.61405  1.0000
  H   H4398     1.0  0.94951  0.67039  0.58861  1.0000
  C   C5491     1.0  0.64876  0.92836  0.78056  1.0000
  H   H4399     1.0  0.71209  0.91324  0.63046  1.0000
  C   C5492     1.0  0.60489  0.98495  0.71658  1.0000
  H   H4400     1.0  0.61385  0.89267  0.77507  1.0000
  C   C5493     1.0  0.61887  0.98024  0.72344  1.0000
  H   H4401     1.0  0.98972  0.64189  0.59602  1.0000
  C   C5494     1.0  0.93975  0.70303  0.58528  1.0000
  H   H4402     1.0  0.64071  0.98694  0.72458  1.0000
  C   C5495     1.0  0.98820  0.70063  0.65462  1.0000
  C   C5496     1.0  0.98590  0.67911  0.59387  1.0000
  H   H4403     1.0  0.85298  0.48751  0.61347  1.0000
  C   C5497     1.0  0.65003  0.51415  0.58676  1.0000
  C   C5498     1.0  0.84001  0.52684  0.78217  1.0000
  C   C5499     1.0  0.94363  0.76034  0.58283  1.0000
  Fe  Fe364     1.0  0.80358  0.50615  0.78017  1.0000
  C   C5500     1.0  0.79631  0.57239  0.78185  1.0000
  C   C5501     1.0  0.72267  0.49020  0.60588  1.0000
  C   C5502     1.0  0.53769  0.71591  0.78213  1.0000
  C   C5503     1.0  0.76259  0.83040  0.58257  1.0000
  H   H4404     1.0  0.71605  0.78056  0.58235  1.0000
  Fe  Fe365     1.0  0.76378  0.56819  0.91647  1.0000
  S   S730      1.0  0.76573  0.59366  0.91602  1.0000
  S   S731      1.0  0.74755  0.55287  0.93619  1.0000
  Fe  Fe366     1.0  0.78538  0.56809  0.88171  1.0000
  S   S732      1.0  0.78880  0.59387  0.87831  1.0000
  S   S733      1.0  0.79854  0.55247  0.86268  1.0000
  Fe  Fe367     1.0  0.79244  0.58598  0.90442  1.0000
  S   S734      1.0  0.81317  0.59022  0.91317  1.0000
  Fe  Fe368     1.0  0.76170  0.59920  0.89022  1.0000
  S   S735      1.0  0.74191  0.62083  0.88241  1.0000
  S   S736      1.0  0.79097  0.55968  0.90699  1.0000
  S   S737      1.0  0.75807  0.57416  0.89143  1.0000
  H   H4405     1.0  0.65664  0.59428  0.98194  1.0000
  C   C5504     1.0  0.50481  0.76498  0.88493  1.0000
  H   H4406     1.0  0.75542  0.57384  0.95318  1.0000
  C   C5505     1.0  0.74901  0.56267  0.97913  1.0000
  H   H4407     1.0  0.59150  0.95962  0.85814  1.0000
  C   C5506     1.0  0.56514  0.81636  0.81046  1.0000
  Fe  Fe369     1.0  0.64038  0.67078  0.94374  1.0000
  S   S738      1.0  0.64151  0.64494  0.95834  1.0000
  S   S739      1.0  0.62298  0.68267  0.92607  1.0000
  Fe  Fe370     1.0  0.66789  0.67535  0.95785  1.0000
  C   C5507     1.0  0.50921  0.95503  0.82314  1.0000
  C   C5508     1.0  0.65957  0.97973  0.91040  1.0000
  Fe  Fe371     1.0  0.66891  0.64241  0.95130  1.0000
  S   S740      1.0  0.68407  0.61824  0.94589  1.0000
  H   H4408     1.0  0.79304  0.58207  0.81853  1.0000
  C   C5509     1.0  0.52139  0.75923  0.88610  1.0000
  S   S741      1.0  0.66803  0.66761  0.93491  1.0000
  C   C5510     1.0  0.52597  0.74521  0.89801  1.0000
  C   C5511     1.0  0.63968  0.53865  0.97099  1.0000
  C   C5512     1.0  0.58675  0.68857  0.97004  1.0000
  S   S742      1.0  0.75807  0.53381  0.82147  1.0000
  C   C5513     1.0  0.69319  0.57563  0.97174  1.0000
  H   H4409     1.0  0.71922  0.98093  0.87471  1.0000
  H   H4410     1.0  0.56703  0.75044  0.81194  1.0000
  C   C5514     1.0  0.59555  0.75201  0.84514  1.0000
  H   H4411     1.0  0.49571  0.85576  0.83485  1.0000
  C   C5515     1.0  0.57367  0.82893  0.80207  1.0000
  S   S743      1.0  0.53085  0.85651  0.80965  1.0000
  Fe  Fe372     1.0  0.56007  0.90301  0.80437  1.0000
  S   S744      1.0  0.56446  0.91663  0.82127  1.0000
  H   H4412     1.0  0.76404  0.58251  0.82096  1.0000
  S   S745      1.0  0.53434  0.90408  0.80172  1.0000
  H   H4413     1.0  0.53749  0.61449  0.90626  1.0000
  Fe  Fe373     1.0  0.63561  0.95772  0.81681  1.0000
  S   S746      1.0  0.66148  0.96197  0.81122  1.0000
  S   S747      1.0  0.63098  0.93171  0.82553  1.0000
  C   C5516     1.0  0.51265  0.69591  0.94864  1.0000
  H   H4414     1.0  0.49991  0.80792  0.85980  1.0000
  Fe  Fe374     1.0  0.54783  0.66498  0.90572  1.0000
  S   S748      1.0  0.55497  0.66064  0.88003  1.0000
  S   S749      1.0  0.56348  0.65257  0.92492  1.0000
  Fe  Fe375     1.0  0.51430  0.68708  0.90066  1.0000
  S   S750      1.0  0.51867  0.68501  0.87437  1.0000
  C   C5517     1.0  0.55284  0.75035  0.96464  1.0000
  Fe  Fe376     1.0  0.52883  0.65816  0.88356  1.0000
  S   S751      1.0  0.52465  0.63653  0.87631  1.0000
  Fe  Fe377     1.0  0.54441  0.68768  0.87267  1.0000
  S   S752      1.0  0.55715  0.70328  0.85006  1.0000
  S   S753      1.0  0.52245  0.65997  0.91020  1.0000
  S   S754      1.0  0.53920  0.69241  0.89805  1.0000
  H   H4415     1.0  0.64963  0.98013  0.90476  1.0000
  H   H4416     1.0  0.59417  0.78376  0.79812  1.0000
  H   H4417     1.0  0.84079  0.59869  0.79166  1.0000
  H   H4418     1.0  0.56772  0.84163  0.80274  1.0000
  H   H4419     1.0  0.54882  0.61687  0.92883  1.0000
  C   C5518     1.0  0.74467  0.55293  0.95710  1.0000
  H   H4420     1.0  0.56357  0.74193  0.78847  1.0000
  C   C5519     1.0  0.71156  0.95795  0.79568  1.0000
  C   C5520     1.0  0.71781  0.97403  0.83824  1.0000
  C   C5521     1.0  0.82596  0.51420  0.92300  1.0000
  C   C5522     1.0  0.72322  0.67238  0.97843  1.0000
  S   S755      1.0  0.65879  0.98673  0.84589  1.0000
  H   H4421     1.0  0.72508  0.60414  0.96384  1.0000
  H   H4422     1.0  0.79892  0.50195  0.88681  1.0000
  H   H4423     1.0  0.52735  0.69767  0.83539  1.0000
  C   C5523     1.0  0.63303  0.60868  0.97763  1.0000
  C   C5524     1.0  0.64808  0.52755  0.96077  1.0000
  C   C5525     1.0  0.54219  0.72115  0.84562  1.0000
  C   C5526     1.0  0.53027  0.72687  0.85860  1.0000
  C   C5527     1.0  0.51737  0.74030  0.85529  1.0000
  C   C5528     1.0  0.51604  0.74779  0.83907  1.0000
  C   C5529     1.0  0.52820  0.74239  0.82601  1.0000
  C   C5530     1.0  0.54143  0.72911  0.82930  1.0000
  H   H4424     1.0  0.53078  0.72076  0.87122  1.0000
  H   H4425     1.0  0.69017  0.98240  0.82290  1.0000
  H   H4426     1.0  0.52718  0.74805  0.81345  1.0000
  H   H4427     1.0  0.55054  0.72451  0.81926  1.0000
  H   H4428     1.0  0.55872  0.74126  0.94251  1.0000
  C   C5531     1.0  0.52698  0.84553  0.79697  1.0000
  C   C5532     1.0  0.76824  0.52166  0.91375  1.0000
  H   H4429     1.0  0.69456  0.71550  0.96859  1.0000
  H   H4430     1.0  0.71097  0.95385  0.88488  1.0000
  S   S756      1.0  0.82775  0.48856  0.78297  1.0000
  H   H4431     1.0  0.67925  0.95529  0.85528  1.0000
  H   H4432     1.0  0.74218  0.95080  0.80906  1.0000
  H   H4433     1.0  0.60806  0.75119  0.84609  1.0000
  H   H4434     1.0  0.52899  0.93609  0.81381  1.0000
  H   H4435     1.0  0.61038  0.72218  0.91307  1.0000
  C   C5533     1.0  0.58444  0.92014  0.81884  1.0000
  C   C5534     1.0  0.59651  0.90761  0.82559  1.0000
  C   C5535     1.0  0.61098  0.91123  0.82702  1.0000
  C   C5536     1.0  0.61351  0.92742  0.82179  1.0000
  C   C5537     1.0  0.60182  0.93984  0.81436  1.0000
  C   C5538     1.0  0.58734  0.93620  0.81292  1.0000
  H   H4436     1.0  0.59432  0.89526  0.83049  1.0000
  H   H4437     1.0  0.61996  0.90154  0.83276  1.0000
  H   H4438     1.0  0.60359  0.95238  0.81030  1.0000
  C   C5539     1.0  0.56267  0.69485  0.78471  1.0000
  C   C5540     1.0  0.58767  0.76571  0.83483  1.0000
  C   C5541     1.0  0.58272  0.96462  0.85018  1.0000
  H   H4439     1.0  0.56889  0.68258  0.78997  1.0000
  C   C5542     1.0  0.60738  0.67323  0.92520  1.0000
  C   C5543     1.0  0.59815  0.68045  0.91290  1.0000
  C   C5544     1.0  0.58489  0.67408  0.91249  1.0000
  C   C5545     1.0  0.58088  0.66018  0.92425  1.0000
  C   C5546     1.0  0.59047  0.65256  0.93620  1.0000
  C   C5547     1.0  0.60361  0.65909  0.93673  1.0000
  H   H4440     1.0  0.60124  0.69110  0.90368  1.0000
  H   H4441     1.0  0.57774  0.67998  0.90311  1.0000
  H   H4442     1.0  0.58752  0.64176  0.94529  1.0000
  H   H4443     1.0  0.61062  0.65335  0.94622  1.0000
  C   C5548     1.0  0.75716  0.92619  0.81260  1.0000
  H   H4444     1.0  0.50163  0.77531  0.87510  1.0000
  C   C5549     1.0  0.55849  0.77668  0.80255  1.0000
  C   C5550     1.0  0.62456  0.60527  0.95449  1.0000
  H   H4445     1.0  0.69674  0.97911  0.92797  1.0000
  H   H4446     1.0  0.56891  0.64137  0.85131  1.0000
  Fe  Fe378     1.0  0.65059  0.98357  0.82375  1.0000
  C   C5551     1.0  0.83260  0.55081  0.79454  1.0000
  C   C5552     1.0  0.76008  0.52565  0.88800  1.0000
  C   C5553     1.0  0.50118  0.62576  0.93292  1.0000
  C   C5554     1.0  0.78716  0.54808  0.85080  1.0000
  C   C5555     1.0  0.79552  0.53852  0.83900  1.0000
  C   C5556     1.0  0.78678  0.53436  0.82970  1.0000
  C   C5557     1.0  0.76954  0.53955  0.83230  1.0000
  C   C5558     1.0  0.76119  0.54914  0.84407  1.0000
  C   C5559     1.0  0.76998  0.55358  0.85314  1.0000
  H   H4447     1.0  0.80879  0.53414  0.83716  1.0000
  H   H4448     1.0  0.79334  0.52681  0.82081  1.0000
  H   H4449     1.0  0.74787  0.55322  0.84614  1.0000
  H   H4450     1.0  0.76340  0.56100  0.86212  1.0000
  C   C5560     1.0  0.81013  0.60715  0.92234  1.0000
  C   C5561     1.0  0.79694  0.62077  0.92053  1.0000
  C   C5562     1.0  0.79567  0.63461  0.92688  1.0000
  C   C5563     1.0  0.80729  0.63475  0.93549  1.0000
  C   C5564     1.0  0.82026  0.62094  0.93761  1.0000
  C   C5565     1.0  0.82170  0.60725  0.93102  1.0000
  H   H4451     1.0  0.78812  0.62090  0.91365  1.0000
  H   H4452     1.0  0.78588  0.64539  0.92482  1.0000
  H   H4453     1.0  0.74428  0.89224  0.83818  1.0000
  H   H4454     1.0  0.83200  0.59682  0.93239  1.0000
  C   C5566     1.0  0.72529  0.62050  0.89961  1.0000
  C   C5567     1.0  0.71201  0.63409  0.90090  1.0000
  C   C5568     1.0  0.69929  0.63372  0.91519  1.0000
  C   C5569     1.0  0.69986  0.61969  0.92808  1.0000
  C   C5570     1.0  0.71308  0.60616  0.92664  1.0000
  C   C5571     1.0  0.72558  0.60651  0.91241  1.0000
  H   H4455     1.0  0.71153  0.64481  0.89088  1.0000
  H   H4456     1.0  0.68896  0.64411  0.91607  1.0000
  H   H4457     1.0  0.71363  0.59523  0.93641  1.0000
  H   H4458     1.0  0.73517  0.59563  0.91129  1.0000
  H   H4459     1.0  0.76811  0.92986  0.80425  1.0000
  H   H4460     1.0  0.50455  0.71744  0.84832  1.0000
  H   H4461     1.0  0.83498  0.59843  0.84259  1.0000
  C   C5572     1.0  0.57026  0.67132  0.96709  1.0000
  C   C5573     1.0  0.83622  0.59340  0.80445  1.0000
  H   H4462     1.0  0.84548  0.60970  0.81297  1.0000
  H   H4463     1.0  0.81984  0.57584  0.85076  1.0000
  C   C5574     1.0  0.78517  0.49188  0.95336  1.0000
  C   C5575     1.0  0.57386  0.95442  0.84780  1.0000
  C   C5576     1.0  0.53372  0.97327  0.81618  1.0000
  C   C5577     1.0  0.51722  0.97991  0.82305  1.0000
  H   H4464     1.0  0.57344  0.66997  0.84058  1.0000
  C   C5578     1.0  0.50465  0.62227  0.86789  1.0000
  C   C5579     1.0  0.56309  0.96067  0.83694  1.0000
  H   H4465     1.0  0.83728  0.54534  0.81916  1.0000
  C   C5580     1.0  0.83012  0.53424  0.89132  1.0000
  C   C5581     1.0  0.56249  0.64979  0.84206  1.0000
  C   C5582     1.0  0.67361  0.96688  0.90916  1.0000
  H   H4466     1.0  0.65550  0.89264  0.79377  1.0000
  Fe  Fe379     1.0  0.49471  0.77095  0.81001  1.0000
  H   H4467     1.0  0.77164  0.62609  0.95455  1.0000
  S   S757      1.0  0.62518  0.97778  0.83105  1.0000
  C   C5583     1.0  0.63903  0.59325  0.95141  1.0000
  C   C5584     1.0  0.49736  0.74279  0.90772  1.0000
  H   H4468     1.0  0.65370  0.94482  0.86395  1.0000
  C   C5585     1.0  0.84044  0.53333  0.90166  1.0000
  C   C5586     1.0  0.55632  0.67690  0.82451  1.0000
  H   H4469     1.0  0.60443  0.87317  0.80047  1.0000
  C   C5587     1.0  0.57303  0.71236  0.93250  1.0000
  C   C5588     1.0  0.52558  0.94837  0.81631  1.0000
  C   C5589     1.0  0.53773  0.95750  0.81267  1.0000
  H   H4470     1.0  0.57583  0.94146  0.85384  1.0000
  C   C5590     1.0  0.84472  0.51668  0.79647  1.0000
  H   H4471     1.0  0.69664  0.58435  0.96046  1.0000
  C   C5591     1.0  0.57964  0.65750  0.97588  1.0000
  H   H4472     1.0  0.55689  0.95232  0.83486  1.0000
  H   H4473     1.0  0.51751  0.72581  0.91773  1.0000
  H   H4474     1.0  0.52827  0.67850  0.93411  1.0000
  S   S758      1.0  0.51409  0.77009  0.78676  1.0000
  C   C5592     1.0  0.81779  0.52508  0.89675  1.0000
  H   H4475     1.0  0.49623  0.65420  0.79971  1.0000
  H   H4476     1.0  0.81506  0.56451  0.82967  1.0000
  C   C5593     1.0  0.73755  0.54062  0.96887  1.0000
  H   H4477     1.0  0.50595  0.66975  0.81387  1.0000
  H   H4478     1.0  0.84738  0.51562  0.82081  1.0000
  C   C5594     1.0  0.68691  0.96655  0.91569  1.0000
  C   C5595     1.0  0.82759  0.58057  0.80897  1.0000
  H   H4479     1.0  0.74489  0.53629  0.90850  1.0000
  H   H4480     1.0  0.55030  0.95213  0.80724  1.0000
  C   C5596     1.0  0.77394  0.64067  0.88496  1.0000
  C   C5597     1.0  0.78665  0.64924  0.88050  1.0000
  C   C5598     1.0  0.78502  0.66250  0.88762  1.0000
  C   C5599     1.0  0.77069  0.66715  0.89923  1.0000
  C   C5600     1.0  0.75803  0.65830  0.90405  1.0000
  C   C5601     1.0  0.75975  0.64513  0.89674  1.0000
  P   P184      1.0  0.73978  0.66348  0.91965  1.0000
  C   C5602     1.0  0.73523  0.64480  0.93410  1.0000
  C   C5603     1.0  0.74418  0.67632  0.93056  1.0000
  C   C5604     1.0  0.75334  0.66908  0.94285  1.0000
  C   C5605     1.0  0.75756  0.67901  0.95070  1.0000
  C   C5606     1.0  0.75257  0.69616  0.94653  1.0000
  C   C5607     1.0  0.74366  0.70349  0.93413  1.0000
  C   C5608     1.0  0.73970  0.69364  0.92597  1.0000
  C   C5609     1.0  0.71916  0.64444  0.94355  1.0000
  C   C5610     1.0  0.71566  0.62991  0.95448  1.0000
  C   C5611     1.0  0.72800  0.61553  0.95584  1.0000
  C   C5612     1.0  0.74405  0.61582  0.94669  1.0000
  C   C5613     1.0  0.74771  0.63040  0.93600  1.0000
  C   C5614     1.0  0.72213  0.67418  0.91053  1.0000
  C   C5615     1.0  0.72157  0.67256  0.89497  1.0000
  C   C5616     1.0  0.70763  0.68062  0.88827  1.0000
  C   C5617     1.0  0.69421  0.69042  0.89700  1.0000
  C   C5618     1.0  0.69474  0.69221  0.91242  1.0000
  C   C5619     1.0  0.70855  0.68400  0.91922  1.0000
  H   H4481     1.0  0.77507  0.63042  0.87946  1.0000
  H   H4482     1.0  0.79782  0.64551  0.87166  1.0000
  H   H4483     1.0  0.79496  0.66902  0.88435  1.0000
  H   H4484     1.0  0.76979  0.67734  0.90468  1.0000
  H   H4485     1.0  0.75015  0.63816  0.90040  1.0000
  H   H4486     1.0  0.75735  0.65582  0.94632  1.0000
  H   H4487     1.0  0.76447  0.67341  0.96024  1.0000
  H   H4488     1.0  0.75554  0.70369  0.95305  1.0000
  H   H4489     1.0  0.73982  0.71680  0.93087  1.0000
  H   H4490     1.0  0.73324  0.69958  0.91606  1.0000
  H   H4491     1.0  0.70921  0.65524  0.94244  1.0000
  H   H4492     1.0  0.70320  0.62964  0.96153  1.0000
  C   C5620     1.0  0.77303  0.57992  0.80991  1.0000
  H   H4493     1.0  0.57704  0.64542  0.97794  1.0000
  H   H4494     1.0  0.76027  0.63032  0.92915  1.0000
  H   H4495     1.0  0.73165  0.66482  0.88809  1.0000
  H   H4496     1.0  0.70715  0.67900  0.87643  1.0000
  H   H4497     1.0  0.68330  0.69642  0.89196  1.0000
  H   H4498     1.0  0.68428  0.69958  0.91940  1.0000
  H   H4499     1.0  0.70857  0.68521  0.93136  1.0000
  C   C5621     1.0  0.77958  0.57293  0.78330  1.0000
  C   C5622     1.0  0.71027  0.95170  0.86082  1.0000
  H   H4500     1.0  0.84978  0.54068  0.89751  1.0000
  Fe  Fe380     1.0  0.54411  0.87781  0.79835  1.0000
  H   H4501     1.0  0.62822  0.53675  0.97963  1.0000
  H   H4502     1.0  0.82961  0.62112  0.94371  1.0000
  C   C5623     1.0  0.58070  0.98143  0.79036  1.0000
  H   H4503     1.0  0.50034  0.71388  0.96354  1.0000
  C   C5624     1.0  0.52154  0.83076  0.80432  1.0000
  S   S759      1.0  0.68224  0.69384  0.95801  1.0000
  C   C5625     1.0  0.52918  0.61754  0.91748  1.0000
  H   H4504     1.0  0.55290  0.79934  0.84714  1.0000
  H   H4505     1.0  0.52618  0.71868  0.96655  1.0000
  C   C5626     1.0  0.54506  0.67188  0.81885  1.0000
  C   C5627     1.0  0.58066  0.98115  0.84183  1.0000
  C   C5628     1.0  0.71762  0.97463  0.86616  1.0000
  Fe  Fe381     1.0  0.79933  0.65624  0.96712  1.0000
  C   C5629     1.0  0.56118  0.97720  0.82827  1.0000
  H   H4506     1.0  0.59419  0.77543  0.82818  1.0000
  C   C5630     1.0  0.51570  0.69894  0.81563  1.0000
  S   S760      1.0  0.80742  0.65324  0.94061  1.0000
  H   H4507     1.0  0.52627  0.81012  0.86462  1.0000
  P   P185      1.0  0.56147  0.70527  0.95306  1.0000
  P   P186      1.0  0.53328  0.68639  0.80454  1.0000
  C   C5631     1.0  0.83847  0.52318  0.91745  1.0000
  C   C5632     1.0  0.54227  0.70136  0.95179  1.0000
  H   H4508     1.0  0.55259  0.76305  0.95808  1.0000
  H   H4509     1.0  0.50880  0.66178  0.85079  1.0000
  C   C5633     1.0  0.62097  0.88845  0.78459  1.0000
  H   H4510     1.0  0.55259  0.81981  0.81722  1.0000
  H   H4511     1.0  0.70733  0.66380  0.96844  1.0000
  C   C5634     1.0  0.83893  0.59975  0.81653  1.0000
  C   C5635     1.0  0.57162  0.76661  0.83323  1.0000
  C   C5636     1.0  0.83306  0.59341  0.83321  1.0000
  C   C5637     1.0  0.82456  0.58066  0.83782  1.0000
  H   H4512     1.0  0.53884  0.74051  0.89862  1.0000
  C   C5638     1.0  0.56254  0.75986  0.80205  1.0000
  C   C5639     1.0  0.51240  0.66840  0.80154  1.0000
  C   C5640     1.0  0.52610  0.67554  0.79367  1.0000
  H   H4513     1.0  0.73657  0.49124  0.80515  1.0000
  C   C5641     1.0  0.67995  0.56811  0.97402  1.0000
  H   H4514     1.0  0.68062  0.54527  0.93993  1.0000
  H   H4515     1.0  0.53075  0.76531  0.87737  1.0000
  P   P187      1.0  0.70944  0.94874  0.82974  1.0000
  C   C5642     1.0  0.72818  0.93333  0.82601  1.0000
  C   C5643     1.0  0.69141  0.93979  0.83759  1.0000
  C   C5644     1.0  0.68945  0.92810  0.83010  1.0000
  C   C5645     1.0  0.67487  0.92214  0.83514  1.0000
  C   C5646     1.0  0.66210  0.92796  0.84754  1.0000
  C   C5647     1.0  0.66388  0.93974  0.85488  1.0000
  C   C5648     1.0  0.67846  0.94565  0.84993  1.0000
  C   C5649     1.0  0.74244  0.93801  0.81529  1.0000
  C   C5650     1.0  0.58849  0.79628  0.79962  1.0000
  H   H4516     1.0  0.84885  0.50346  0.79734  1.0000
  C   C5651     1.0  0.74373  0.90501  0.83171  1.0000
  C   C5652     1.0  0.72899  0.91680  0.83443  1.0000
  C   C5653     1.0  0.75009  0.56421  0.96223  1.0000
  C   C5654     1.0  0.82188  0.57425  0.82579  1.0000
  C   C5655     1.0  0.82620  0.55475  0.94618  1.0000
  C   C5656     1.0  0.78972  0.57941  0.80853  1.0000
  P   P188      1.0  0.56134  0.78355  0.81934  1.0000
  C   C5657     1.0  0.72026  0.98181  0.84934  1.0000
  H   H4517     1.0  0.81529  0.54987  0.92884  1.0000
  C   C5658     1.0  0.55281  0.78845  0.78934  1.0000
  H   H4518     1.0  0.79547  0.60303  0.95812  1.0000
  H   H4519     1.0  0.63934  0.56072  0.97811  1.0000
  H   H4520     1.0  0.69893  0.92399  0.82001  1.0000
  H   H4521     1.0  0.67311  0.91353  0.82902  1.0000
  H   H4522     1.0  0.65059  0.92378  0.85101  1.0000
  C   C5659     1.0  0.81550  0.51510  0.91269  1.0000
  C   C5660     1.0  0.78363  0.51205  0.90776  1.0000
  H   H4523     1.0  0.49948  0.62947  0.95718  1.0000
  C   C5661     1.0  0.78983  0.50545  0.94131  1.0000
  H   H4524     1.0  0.81087  0.60929  0.97571  1.0000
  C   C5662     1.0  0.69559  0.97870  0.81127  1.0000
  H   H4525     1.0  0.71831  0.91300  0.84319  1.0000
  C   C5663     1.0  0.70963  0.67431  0.97125  1.0000
  H   H4526     1.0  0.77815  0.51410  0.86949  1.0000
  H   H4527     1.0  0.50746  0.62002  0.90871  1.0000
  C   C5664     1.0  0.79675  0.55940  0.94828  1.0000
  C   C5665     1.0  0.71279  0.95950  0.87188  1.0000
  H   H4528     1.0  0.52093  0.94572  0.78449  1.0000
  H   H4529     1.0  0.98904  0.84562  0.80038  1.0000
  H   H4530     1.0  0.72014  0.97976  0.82526  1.0000
  H   H4531     1.0  0.50127  0.69391  0.94720  1.0000
  H   H4532     1.0  0.54957  0.80148  0.78947  1.0000
  C   C5666     1.0  0.80164  0.57520  0.79465  1.0000
  H   H4533     1.0  0.60927  0.80608  0.78361  1.0000
  C   C5667     1.0  0.51216  0.70719  0.95778  1.0000
  C   C5668     1.0  0.99077  0.81958  0.80977  1.0000
  C   C5669     1.0  0.63884  0.87752  0.80954  1.0000
  C   C5670     1.0  0.62445  0.87200  0.81154  1.0000
  H   H4534     1.0  0.77701  0.53406  0.96531  1.0000
  H   H4535     1.0  0.75184  0.97879  0.95655  1.0000
  C   C5671     1.0  0.54146  0.79831  0.84493  1.0000
  H   H4536     1.0  0.84638  0.52258  0.92551  1.0000
  H   H4537     1.0  0.76922  0.90055  0.81869  1.0000
  C   C5672     1.0  0.79370  0.56567  0.96234  1.0000
  H   H4538     1.0  0.73332  0.53191  0.96495  1.0000
  C   C5673     1.0  0.75779  0.90969  0.82076  1.0000
  H   H4539     1.0  0.55804  0.68949  0.82042  1.0000
  C   C5674     1.0  0.54175  0.79122  0.83200  1.0000
  H   H4540     1.0  0.83876  0.55114  0.93949  1.0000
  C   C5675     1.0  0.75655  0.52850  0.90388  1.0000
  C   C5676     1.0  0.58912  0.71456  0.93027  1.0000
  C   C5677     1.0  0.50501  0.97084  0.82644  1.0000
  C   C5678     1.0  0.56379  0.98184  0.79279  1.0000
  C   C5679     1.0  0.52690  0.70986  0.95944  1.0000
  H   H4541     1.0  0.83135  0.54234  0.87918  1.0000
  C   C5680     1.0  0.61558  0.87740  0.79901  1.0000
  C   C5681     1.0  0.55120  0.64474  0.83664  1.0000
  H   H4542     1.0  0.64562  0.87351  0.81932  1.0000
  H   H4543     1.0  0.62006  0.86369  0.82283  1.0000
  C   C5682     1.0  0.59702  0.80889  0.79127  1.0000
  H   H4544     1.0  0.75516  0.57612  0.79888  1.0000
  C   C5683     1.0  0.51157  0.80320  0.85212  1.0000
  H   H4545     1.0  0.50035  0.79475  0.83741  1.0000
  C   C5684     1.0  0.77127  0.61713  0.96609  1.0000
  Fe  Fe382     1.0  0.77200  0.52548  0.79784  1.0000
  H   H4546     1.0  0.78648  0.55936  0.94332  1.0000
  C   C5685     1.0  0.58966  0.82521  0.79259  1.0000
  S   S761      1.0  0.77991  0.49914  0.79507  1.0000
  C   C5686     1.0  0.54547  0.70014  0.78964  1.0000
  C   C5687     1.0  0.65892  0.93583  0.78492  1.0000
  H   H4547     1.0  0.82436  0.50667  0.93540  1.0000
  C   C5688     1.0  0.68808  0.59410  0.91012  1.0000
  C   C5689     1.0  0.70373  0.58384  0.90684  1.0000
  C   C5690     1.0  0.70899  0.57065  0.91917  1.0000
  C   C5691     1.0  0.69851  0.56755  0.93469  1.0000
  C   C5692     1.0  0.68257  0.57756  0.93800  1.0000
  C   C5693     1.0  0.67754  0.59102  0.92562  1.0000
  P   P189      1.0  0.66877  0.57262  0.95783  1.0000
  H   H4548     1.0  0.50917  0.61154  0.87675  1.0000
  C   C5694     1.0  0.66086  0.55486  0.95892  1.0000
  C   C5695     1.0  0.66923  0.54363  0.94870  1.0000
  C   C5696     1.0  0.53556  0.61883  0.93021  1.0000
  C   C5697     1.0  0.66284  0.53005  0.94964  1.0000
  C   C5698     1.0  0.77954  0.52223  0.96199  1.0000
  H   H4549     1.0  0.65383  0.94254  0.79464  1.0000
  C   C5699     1.0  0.57264  0.79984  0.80966  1.0000
  C   C5700     1.0  0.59609  0.67472  0.97881  1.0000
  C   C5701     1.0  0.54254  0.65569  0.82506  1.0000
  C   C5702     1.0  0.70565  0.96293  0.81080  1.0000
  C   C5703     1.0  0.78691  0.52065  0.94577  1.0000
  H   H4550     1.0  0.78641  0.98637  0.93018  1.0000
  C   C5704     1.0  0.65084  0.58916  0.96115  1.0000
  H   H4551     1.0  0.51330  0.81071  0.80072  1.0000
  H   H4552     1.0  0.69786  0.95670  0.91461  1.0000
  H   H4553     1.0  0.66937  0.52148  0.94167  1.0000
  C   C5705     1.0  0.51396  0.73700  0.90883  1.0000
  H   H4554     1.0  0.68437  0.60486  0.90085  1.0000
  H   H4555     1.0  0.71211  0.58663  0.89503  1.0000
  H   H4556     1.0  0.72141  0.56317  0.91687  1.0000
  H   H4557     1.0  0.70296  0.55744  0.94418  1.0000
  H   H4558     1.0  0.66582  0.59958  0.92800  1.0000
  H   H4559     1.0  0.74681  0.62870  0.97692  1.0000
  C   C5706     1.0  0.70237  0.70337  0.97145  1.0000
  S   S762      1.0  0.62952  0.97368  0.79314  1.0000
  C   C5707     1.0  0.52480  0.62303  0.94453  1.0000
  C   C5708     1.0  0.80687  0.56662  0.96844  1.0000
  H   H4560     1.0  0.64108  0.58720  0.94134  1.0000
  H   H4561     1.0  0.75368  0.60471  0.94788  1.0000
  C   C5709     1.0  0.52785  0.68733  0.94113  1.0000
  C   C5710     1.0  0.78705  0.50914  0.89181  1.0000
  H   H4562     1.0  0.64316  0.51704  0.96146  1.0000
  C   C5711     1.0  0.68623  0.97911  0.92333  1.0000
  C   C5712     1.0  0.83787  0.54052  0.80870  1.0000
  H   H4563     1.0  0.78994  0.53140  0.93662  1.0000
  P   P190      1.0  0.54972  0.98464  0.81205  1.0000
  C   C5713     1.0  0.51031  0.63676  0.86492  1.0000
  H   H4564     1.0  0.49984  0.94791  0.82587  1.0000
  C   C5714     1.0  0.56506  0.66586  0.83600  1.0000
  C   C5715     1.0  0.56331  0.75403  0.84271  1.0000
  C   C5716     1.0  0.57124  0.74037  0.85295  1.0000
  C   C5717     1.0  0.58742  0.73925  0.85401  1.0000
  H   H4565     1.0  0.55083  0.75456  0.84183  1.0000
  H   H4566     1.0  0.56496  0.73042  0.85974  1.0000
  H   H4567     1.0  0.59368  0.72840  0.86159  1.0000
  H   H4568     1.0  0.60350  0.97059  0.93769  1.0000
  H   H4569     1.0  0.52980  0.62409  0.95433  1.0000
  C   C5718     1.0  0.84381  0.52353  0.80967  1.0000
  C   C5719     1.0  0.83528  0.60537  0.97944  1.0000
  H   H4570     1.0  0.97790  0.82104  0.81617  1.0000
  C   C5720     1.0  0.55694  0.72142  0.96425  1.0000
  H   H4571     1.0  0.50790  0.74435  0.86531  1.0000
  C   C5721     1.0  0.71226  0.95916  0.84397  1.0000
  H   H4572     1.0  0.58588  0.98224  0.80011  1.0000
  H   H4573     1.0  0.59723  0.73052  0.88902  1.0000
  H   H4574     1.0  0.56876  0.72685  0.89256  1.0000
  C   C5722     1.0  0.77530  0.51593  0.88198  1.0000
  C   C5723     1.0  0.50693  0.65954  0.79356  1.0000
  H   H4575     1.0  0.52043  0.82608  0.81742  1.0000
  C   C5724     1.0  0.81298  0.55394  0.94020  1.0000
  S   S763      1.0  0.56880  0.87600  0.80383  1.0000
  C   C5725     1.0  0.76800  0.57643  0.79744  1.0000
  C   C5726     1.0  0.50766  0.62625  0.94600  1.0000
  H   H4576     1.0  0.58962  0.70048  0.96817  1.0000
  H   H4577     1.0  0.67431  0.95740  0.90281  1.0000
  C   C5727     1.0  0.62153  0.61293  0.96765  1.0000
  C   C5728     1.0  0.57431  0.72369  0.90315  1.0000
  C   C5729     1.0  0.59034  0.72576  0.90112  1.0000
  H   H4578     1.0  0.61574  0.60876  0.94661  1.0000
  H   H4579     1.0  0.57814  0.94603  0.80777  1.0000
  H   H4580     1.0  0.55424  0.68382  0.93616  1.0000
  C   C5730     1.0  0.50145  0.70600  0.80913  1.0000
  H   H4581     1.0  0.76519  0.52403  0.92598  1.0000
  C   C5731     1.0  0.50361  0.71413  0.83746  1.0000
  C   C5732     1.0  0.82318  0.56108  0.96026  1.0000
  H   H4582     1.0  0.71256  0.57748  0.98204  1.0000
  H   H4583     1.0  0.52666  0.78380  0.82005  1.0000
  H   H4584     1.0  0.53367  0.65149  0.82133  1.0000
  H   H4585     1.0  0.55314  0.71599  0.92001  1.0000
  H   H4586     1.0  0.75115  0.53123  0.88023  1.0000
  C   C5733     1.0  0.56559  0.71723  0.91879  1.0000
  H   H4587     1.0  0.61139  0.92408  0.78405  1.0000
  C   C5734     1.0  0.59772  0.72121  0.91468  1.0000
  C   C5735     1.0  0.52641  0.80439  0.85487  1.0000
  H   H4588     1.0  0.70665  0.93992  0.86541  1.0000
  H   H4589     1.0  0.89660  0.50173  0.79041  1.0000
  C   C5736     1.0  0.78488  0.60420  0.96825  1.0000
  H   H4590     1.0  0.80982  0.52631  0.88857  1.0000
  C   C5737     1.0  0.51655  0.70284  0.83007  1.0000
  H   H4591     1.0  0.50059  0.70323  0.79797  1.0000
  C   C5738     1.0  0.55638  0.73793  0.95584  1.0000
  C   C5739     1.0  0.52683  0.78969  0.82957  1.0000
  C   C5740     1.0  0.50441  0.65055  0.85327  1.0000
  H   H4592     1.0  0.54878  0.63245  0.84180  1.0000
  H   H4593     1.0  0.59533  0.71087  0.94041  1.0000
  C   C5741     1.0  0.64601  0.55225  0.97007  1.0000
  P   P191      1.0  0.79910  0.50378  0.92016  1.0000
  Fe  Fe383     1.0  0.65455  0.97919  0.78810  1.0000
  C   C5742     1.0  0.77485  0.50874  0.97387  1.0000
  C   C5743     1.0  0.54257  0.69022  0.94248  1.0000
  C   C5744     1.0  0.51180  0.79581  0.83953  1.0000
  C   C5745     1.0  0.51758  0.82202  0.79487  1.0000
  C   C5746     1.0  0.64435  0.88848  0.79505  1.0000
  C   C5747     1.0  0.57382  0.68701  0.96390  1.0000
  H   H4594     1.0  0.76000  0.97979  0.98141  1.0000
  C   C5748     1.0  0.63535  0.89412  0.78251  1.0000
  S   S764      1.0  0.63997  0.68095  0.96527  1.0000
  C   C5749     1.0  0.59262  0.65918  0.98165  1.0000
  C   C5750     1.0  0.56078  0.75494  0.78859  1.0000
  H   H4595     1.0  0.71859  0.94555  0.79509  1.0000
  C   C5751     1.0  0.64775  0.59703  0.97428  1.0000
  H   H4596     1.0  0.73146  0.66049  0.98084  1.0000
  H   H4597     1.0  0.78106  0.57026  0.96816  1.0000
  C   C5752     1.0  0.51207  0.62092  0.91884  1.0000
  C   C5753     1.0  0.71529  0.70128  0.97930  1.0000
  H   H4598     1.0  0.61045  0.62241  0.96991  1.0000
  C   C5754     1.0  0.69918  0.68993  0.96764  1.0000
  H   H4599     1.0  0.51523  0.97499  0.78684  1.0000
  S   S765      1.0  0.79654  0.53169  0.78484  1.0000
  H   H4600     1.0  0.74375  0.49444  0.82987  1.0000
  S   S766      1.0  0.78879  0.68155  0.97303  1.0000
  H   H4601     1.0  0.56046  0.66947  0.96271  1.0000
  H   H4602     1.0  0.52441  0.72021  0.78530  1.0000
  C   C5755     1.0  0.77769  0.49355  0.96957  1.0000
  H   H4603     1.0  0.63600  0.92942  0.78720  1.0000
  H   H4604     1.0  0.62957  0.97877  0.93515  1.0000
  H   H4605     1.0  0.66735  0.98596  0.87583  1.0000
  H   H4606     1.0  0.83588  0.61823  0.97450  1.0000
  C   C5756     1.0  0.75730  0.61862  0.97885  1.0000
  H   H4607     1.0  0.59618  0.83504  0.78603  1.0000
  S   S767      1.0  0.67090  0.64984  0.97350  1.0000
  C   C5757     1.0  0.82109  0.60017  0.97999  1.0000
  P   P192      1.0  0.82360  0.57266  0.79329  1.0000
  C   C5758     1.0  0.60511  0.98288  0.93110  1.0000
  Fe  Fe384     1.0  0.64327  0.65452  0.97919  1.0000
  H   H4608     1.0  0.83358  0.56210  0.96433  1.0000
  S   S768      1.0  0.49844  0.76307  0.83582  1.0000
  C   C5759     1.0  0.55362  0.71755  0.98156  1.0000
  C   C5760     1.0  0.54974  0.74639  0.98186  1.0000
