data_image0
_chemical_formula_structural       HSH2SCFeS2FeS2FeSFeS3FeS2FeCFeSFeS2C2PH3CH2C6H3C3HCH4C6H4C6H4C7PC3HC14H5SCH11C9SC4H5C3H2C2H4C2H2C3H2C2H2C6H3C3SH4C2SCH2PHCH3C4SHC6PC2H4C3HC4HSC2H4CH2C5H5CHC2HCHFeCH2C5H2C2SFeH3C3H3FeH4C2H2CH2C2SC4H2SC2H2CHC2PH4FeSCHC2H2CHCH2CSCH3C2FeH3CSCFeS2FeS2FeHFeS3CSC2S2FeSFeSH2FeS2FeS2FeSFeS3CH3C4HCH4C6H2CHC6H4C6H4C3H2C3HC2H5CHC2SC2H3C2H3C9H3CH6C4PC18H22C3H2C3HCHC2HC2HCHC3H3C2H2C6PC9H11PC2HC6H2C3HC6HC3H3C3PCHC4PC2H3C2HCH2CHCFeCH3C8FeC2H2C2PHSHC2H2CHC2H2C2H4C3H2C7H3C6H2C4HCHCHC2SH2PHCHCH2CH4CHC2H2SHC2HC2H2C2H2CH3CH5CFeC3HCFeHC5HCFeS2FeS2FeSFeS3CHSCHSFeCSFeHSHC3S3C4HCHCH2C7H2CH3CHC6H4C6H4C3H2CHC4HC2HCHSC2SH2CH2C3HCH2C5H2C5H2CH4CHFeH2CH3C4PC18H7PCH9CH2CHCH2CH3C11PC13HSHSCH16CHCH3CHC3H2CHCH4CPC2HC5HC2HC3HC3HCHC2HC2HC2HC5H3CH4C2HC2HC3HC2HCH4CHCHCH4CHSH3C3HFeS2HSCFeSPSCH2C2HPH2C6H3CSCFeCPCH2CHC3H2CH2CH2C2H3C3HCHCHFeHCPHC2H3C2H3C2H3PC5HCH2C3HC5HCHCH4C5HCH2C2H2C2SHC2HCHC3FeSFeS2FeSFeS3FeS2FeSCFeHFeS3C3HC3HCH2C2HCHCHC2H2C4H3C6H7C3HC4HCH2C3HC3H9CHCH4CH2CH2C11H2CH4C2HPH3C2H3C5PC3HCHCH3C2HC2HSC4HC4HC2PC2HCH2C6HSCH2PCHCHC2HC3PHCHCHC2H3C2HC2HCH2SC2HC2SH2CH5C2FeCSC4FeCHFeHSC2HCSFe2C2HC5HC2HCHCHC2HCH2C3SCH2CS2CHCHCPC2H2C3HC2H2C6HCH2C3H3C3H5PH3C2HCHCH3C2HC2SC2H4FeHCHCHC4HSCHC3HFeHCH3CHC2PSCPH3CH2C2HCHCH2CHCH5CSCH2SC5HSCHCHCHC4HC2H2CSFeSCFeSFeS2FeS2FeS2FeSFeS3FeS2FeS2FeSFeS3C2HCHC3H2C6H4C6H4C5H3CHC2HFeHPHC5H3C4H5CHC6H3C5H7CH2C2HC2H2C3PC16H15C4HSC8H2CHCHC3HCH7C4H2SCPC2H2C3HCH3C3HCH2C2H4CH6CHCHC2SCSHFeC4HCHPCHC7H2SCHC2HSCSC6HCH6CSCH5C3H3CHC4H2C3HC2H2CHC3HC2H2C5HC6H2FeC2HC2H2C2HC4HC2H3C3HCPC3H2C2HC2H3C2HC2HC2PH2CHCH2C3HC2H2C5H2PCH2CSHS2HC3H3CH2CH4CHCH2C4HC2HCH4FeC2HCHC3H4C3HC2HCHC2H2C2PHC6HC2HC2FeSCFeCSHCSCSCHC9H2C6H8CHFeHCHCH3CH2CHCHCSHSH2CHSHC2HCH2CH3FeHCHCHFeSHC2H2C6PH4C4SHSCHC3HC6HPC3H2C3HC3SC2H3CHCH2C2HCH3CH2CH2CFeHFeS2FeS2FeSFeS3FeSCFeS2FeSFeS3FeCHFeS2FeSHS2HC3SCPCPCH2C6H4CH2C3HCHC6H4C6H5C4H3CHFeHCHCPC2H5C2HC4HCH2CH2CH2C4HCH4CHCH3CHC6PC18H18C6PC20H20CH2CH2C2H4C3HCHCHC2HCHC5HC6H2C3HC3H2CHCHC4HC2HC2H3CHC3H2C4HC2H2C2H2C3H2SHCHCSCH2CHC2H3CH4CHC2H2CHC2HC2HCFeHSC2FeHCSCFeS2HS2FeSFeSHSHSCSH5C2H2C2HC2HC2FeH2C4HCSCH2C2HC3H5CHCH2C4HFeSC6H3CSCHC3HC4HC5HCHC4HC2FeCH3C2HCHC2H2FeC6PC4SHCHC4H3SH8SHC6HC3H2C2FeHCH2PHCHCHC2HC2HC3H2CH3C4H3C2HPHCH3SHC3H4C2HCHCHCH4CSC
_chemical_formula_sum              "H1152 S192 C1440 Fe96 P48"
_cell_length_a       51.0778
_cell_length_b       51.2614
_cell_length_c       51.3065
_cell_angle_alpha    89.8075
_cell_angle_beta     90.0579
_cell_angle_gamma    90.143

_space_group_name_H-M_alt    "P 1"
_space_group_IT_number       1

loop_
  _space_group_symop_operation_xyz
  'x, y, z'

loop_
  _atom_site_type_symbol
  _atom_site_label
  _atom_site_symmetry_multiplicity
  _atom_site_fract_x
  _atom_site_fract_y
  _atom_site_fract_z
  _atom_site_occupancy
  H   H1        1.0  0.45624  0.25332  0.45555  1.0000
  S   S1        1.0  0.46445  0.02983  0.11119  1.0000
  H   H2        1.0  0.00633  0.20166  0.47570  1.0000
  H   H3        1.0  0.39972  0.20799  0.16643  1.0000
  S   S2        1.0  0.42949  0.07616  0.16251  1.0000
  C   C1        1.0  0.36603  0.14437  0.14560  1.0000
  Fe  Fe1       1.0  0.39316  0.20935  0.24250  1.0000
  S   S3        1.0  0.41172  0.24633  0.25731  1.0000
  S   S4        1.0  0.42032  0.18905  0.21350  1.0000
  Fe  Fe2       1.0  0.34449  0.21831  0.27657  1.0000
  S   S5        1.0  0.36022  0.25518  0.29421  1.0000
  S   S6        1.0  0.30387  0.20241  0.28592  1.0000
  Fe  Fe3       1.0  0.37227  0.26492  0.25332  1.0000
  S   S7        1.0  0.36809  0.30604  0.23765  1.0000
  Fe  Fe4       1.0  0.39831  0.23354  0.29680  1.0000
  S   S8        1.0  0.42852  0.23447  0.32912  1.0000
  S   S9        1.0  0.35449  0.22936  0.23506  1.0000
  S   S10       1.0  0.38183  0.19540  0.28253  1.0000
  Fe  Fe5       1.0  0.19471  0.26299  0.38095  1.0000
  S   S11       1.0  0.16002  0.25077  0.35713  1.0000
  S   S12       1.0  0.23758  0.25148  0.37843  1.0000
  Fe  Fe6       1.0  0.16257  0.30084  0.41301  1.0000
  C   C2        1.0  0.40860  0.15903  0.11456  1.0000
  Fe  Fe7       1.0  0.13708  0.25025  0.39474  1.0000
  S   S13       1.0  0.10489  0.21959  0.39998  1.0000
  Fe  Fe8       1.0  0.15047  0.29352  0.35537  1.0000
  S   S14       1.0  0.17288  0.25863  0.41891  1.0000
  S   S15       1.0  0.18671  0.30596  0.37685  1.0000
  C   C3        1.0  0.09142  0.20829  0.42991  1.0000
  C   C4        1.0  0.10259  0.21465  0.45394  1.0000
  P   P1        1.0  0.04333  0.29001  0.46417  1.0000
  H   H4        1.0  0.31520  0.29415  0.29689  1.0000
  H   H5        1.0  0.14562  0.25004  0.17901  1.0000
  H   H6        1.0  0.11994  0.22676  0.45457  1.0000
  C   C5        1.0  0.06903  0.19220  0.42948  1.0000
  H   H7        1.0  0.48276  0.21445  0.34303  1.0000
  H   H8        1.0  0.11045  0.27475  0.20133  1.0000
  C   C6        1.0  0.42408  0.25712  0.35445  1.0000
  C   C7        1.0  0.44258  0.25845  0.37461  1.0000
  C   C8        1.0  0.43936  0.27610  0.39520  1.0000
  C   C9        1.0  0.41735  0.29214  0.39603  1.0000
  C   C10       1.0  0.39891  0.29098  0.37580  1.0000
  C   C11       1.0  0.40236  0.27363  0.35497  1.0000
  H   H9        1.0  0.45930  0.24566  0.37443  1.0000
  H   H10       1.0  0.45355  0.27694  0.41074  1.0000
  H   H11       1.0  0.38803  0.27281  0.33955  1.0000
  C   C12       1.0  0.47655  0.30183  0.33425  1.0000
  C   C13       1.0  0.31468  0.29962  0.23826  1.0000
  C   C14       1.0  0.28888  0.30795  0.23393  1.0000
  H   H12       1.0  0.37245  0.30667  0.47311  1.0000
  C   C15       1.0  0.00218  0.22241  0.47626  1.0000
  H   H13       1.0  0.21948  0.25290  0.47497  1.0000
  H   H14       1.0  0.31836  0.28015  0.24557  1.0000
  H   H15       1.0  0.27277  0.29508  0.23849  1.0000
  H   H16       1.0  0.06032  0.18704  0.41097  1.0000
  C   C16       1.0  0.28445  0.21731  0.31035  1.0000
  C   C17       1.0  0.29368  0.23875  0.32437  1.0000
  C   C18       1.0  0.27862  0.24942  0.34460  1.0000
  C   C19       1.0  0.25387  0.23929  0.35063  1.0000
  C   C20       1.0  0.24416  0.21826  0.33618  1.0000
  C   C21       1.0  0.25946  0.20728  0.31614  1.0000
  H   H17       1.0  0.31265  0.24675  0.32001  1.0000
  H   H18       1.0  0.28623  0.26543  0.35594  1.0000
  H   H19       1.0  0.22528  0.20995  0.34099  1.0000
  H   H20       1.0  0.25218  0.19060  0.30552  1.0000
  C   C22       1.0  0.42922  0.10646  0.17926  1.0000
  C   C23       1.0  0.44724  0.12620  0.17349  1.0000
  C   C24       1.0  0.44406  0.15128  0.18418  1.0000
  C   C25       1.0  0.42344  0.15673  0.20144  1.0000
  C   C26       1.0  0.40608  0.13667  0.20818  1.0000
  C   C27       1.0  0.40869  0.11182  0.19674  1.0000
  H   H21       1.0  0.46294  0.12246  0.15987  1.0000
  H   H22       1.0  0.45751  0.16668  0.17876  1.0000
  H   H23       1.0  0.39037  0.14038  0.22176  1.0000
  H   H24       1.0  0.39459  0.09670  0.20125  1.0000
  C   C28       1.0  0.02216  0.24039  0.47126  1.0000
  C   C29       1.0  0.14859  0.25700  0.19870  1.0000
  C   C30       1.0  0.12874  0.27084  0.21130  1.0000
  C   C31       1.0  0.13228  0.27906  0.23700  1.0000
  C   C32       1.0  0.15582  0.27393  0.24989  1.0000
  C   C33       1.0  0.17625  0.26110  0.23705  1.0000
  C   C34       1.0  0.17213  0.25174  0.21168  1.0000
  P   P2        1.0  0.20594  0.25384  0.25461  1.0000
  C   C35       1.0  0.23437  0.25149  0.23395  1.0000
  C   C36       1.0  0.21325  0.28092  0.27581  1.0000
  C   C37       1.0  0.21374  0.30636  0.26562  1.0000
  H   H25       1.0  0.00501  0.07692  0.46950  1.0000
  C   C38       1.0  0.42369  0.06320  0.24621  1.0000
  C   C39       1.0  0.22426  0.29822  0.31843  1.0000
  C   C40       1.0  0.21927  0.27697  0.30219  1.0000
  C   C41       1.0  0.25673  0.23859  0.24319  1.0000
  C   C42       1.0  0.27943  0.23778  0.22812  1.0000
  C   C43       1.0  0.28023  0.25027  0.20393  1.0000
  C   C44       1.0  0.25835  0.26391  0.19489  1.0000
  C   C45       1.0  0.23558  0.26483  0.21001  1.0000
  C   C46       1.0  0.19897  0.22412  0.27237  1.0000
  C   C47       1.0  0.20917  0.20007  0.26420  1.0000
  C   C48       1.0  0.20315  0.17717  0.27788  1.0000
  C   C49       1.0  0.18648  0.17802  0.29944  1.0000
  C   C50       1.0  0.17550  0.20171  0.30709  1.0000
  C   C51       1.0  0.18156  0.22464  0.29353  1.0000
  H   H26       1.0  0.11680  0.28920  0.24724  1.0000
  H   H27       1.0  0.15799  0.27977  0.27007  1.0000
  H   H28       1.0  0.18698  0.24028  0.20201  1.0000
  H   H29       1.0  0.21014  0.30989  0.24514  1.0000
  H   H30       1.0  0.47594  0.28346  0.32384  1.0000
  S   S16       1.0  0.16430  0.32576  0.44919  1.0000
  C   C52       1.0  0.47282  0.02405  0.03003  1.0000
  H   H31       1.0  0.22003  0.25759  0.31035  1.0000
  H   H32       1.0  0.25690  0.22970  0.26236  1.0000
  H   H33       1.0  0.29666  0.22803  0.23563  1.0000
  H   H34       1.0  0.29823  0.25038  0.19292  1.0000
  H   H35       1.0  0.25947  0.27489  0.17685  1.0000
  H   H36       1.0  0.21951  0.27690  0.20349  1.0000
  H   H37       1.0  0.22174  0.19884  0.24732  1.0000
  H   H38       1.0  0.21155  0.15876  0.27188  1.0000
  H   H39       1.0  0.18198  0.16035  0.31019  1.0000
  H   H40       1.0  0.16237  0.20232  0.32367  1.0000
  H   H41       1.0  0.17277  0.24283  0.29968  1.0000
  C   C53       1.0  0.33003  0.26115  0.40162  1.0000
  C   C54       1.0  0.31565  0.30666  0.33703  1.0000
  C   C55       1.0  0.46111  0.00600  0.01320  1.0000
  C   C56       1.0  0.25140  0.24888  0.44796  1.0000
  C   C57       1.0  0.41831  0.02067  0.02778  1.0000
  C   C58       1.0  0.30817  0.30830  0.31086  1.0000
  C   C59       1.0  0.24175  0.32452  0.44198  1.0000
  C   C60       1.0  0.34175  0.24675  0.38168  1.0000
  C   C61       1.0  0.38793  0.22545  0.16729  1.0000
  S   S17       1.0  0.41202  0.31301  0.42261  1.0000
  C   C62       1.0  0.31089  0.22370  0.08353  1.0000
  C   C63       1.0  0.44903  0.09644  0.26832  1.0000
  C   C64       1.0  0.42657  0.08086  0.26670  1.0000
  C   C65       1.0  0.38383  0.27057  0.18043  1.0000
  H   H42       1.0  0.38137  0.10531  0.14264  1.0000
  H   H43       1.0  0.42528  0.16465  0.10277  1.0000
  H   H44       1.0  0.39352  0.19799  0.11708  1.0000
  H   H45       1.0  0.23198  0.31517  0.45824  1.0000
  H   H46       1.0  0.40622  0.05127  0.24472  1.0000
  C   C66       1.0  0.05496  0.26695  0.38853  1.0000
  C   C67       1.0  0.07292  0.27998  0.48063  1.0000
  C   C68       1.0  0.38375  0.12557  0.13693  1.0000
  H   H47       1.0  0.37221  0.24546  0.45083  1.0000
  H   H48       1.0  0.24012  0.23729  0.43427  1.0000
  C   C69       1.0  0.33557  0.31646  0.23310  1.0000
  C   C70       1.0  0.30685  0.17951  0.11540  1.0000
  H   H49       1.0  0.23480  0.29266  0.41580  1.0000
  H   H50       1.0  0.31125  0.32261  0.37546  1.0000
  H   H51       1.0  0.37357  0.22144  0.37103  1.0000
  H   H52       1.0  0.41930  0.11829  0.11579  1.0000
  C   C71       1.0  0.36421  0.23211  0.38668  1.0000
  C   C72       1.0  0.45750  0.04075  0.04506  1.0000
  H   H53       1.0  0.36408  0.17253  0.19813  1.0000
  H   H54       1.0  0.04161  0.23333  0.46705  1.0000
  C   C73       1.0  0.25430  0.27261  0.48847  1.0000
  C   C74       1.0  0.46859  0.09480  0.24913  1.0000
  C   C75       1.0  0.06153  0.31364  0.38979  1.0000
  H   H55       1.0  0.44166  0.19139  0.26719  1.0000
  H   H56       1.0  0.46693  0.05468  0.05789  1.0000
  C   C76       1.0  0.34478  0.27567  0.48200  1.0000
  C   C77       1.0  0.47492  0.22471  0.48012  1.0000
  H   H57       1.0  0.45157  0.14834  0.24869  1.0000
  H   H58       1.0  0.48030  0.07500  0.21366  1.0000
  C   C78       1.0  0.46037  0.18231  0.27127  1.0000
  C   C79       1.0  0.09755  0.28537  0.46972  1.0000
  C   C80       1.0  0.47320  0.24092  0.45824  1.0000
  C   C81       1.0  0.47896  0.19542  0.28627  1.0000
  C   C82       1.0  0.49014  0.14573  0.26622  1.0000
  C   C83       1.0  0.32485  0.19924  0.12173  1.0000
  H   H59       1.0  0.35596  0.30806  0.41287  1.0000
  H   H60       1.0  0.39718  0.01890  0.02742  1.0000
  H   H61       1.0  0.47444  0.21459  0.29393  1.0000
  C   C84       1.0  0.44329  0.06106  0.22741  1.0000
  C   C85       1.0  0.12038  0.27788  0.48280  1.0000
  C   C86       1.0  0.32796  0.31407  0.44386  1.0000
  S   S18       1.0  0.45207  0.31434  0.48904  1.0000
  H   H62       1.0  0.31269  0.24066  0.07098  1.0000
  H   H63       1.0  0.22875  0.29494  0.33881  1.0000
  H   H64       1.0  0.41843  0.05145  0.05636  1.0000
  H   H65       1.0  0.05582  0.24864  0.37803  1.0000
  C   C87       1.0  0.40517  0.13291  0.12168  1.0000
  C   C88       1.0  0.04928  0.29027  0.42936  1.0000
  S   S19       1.0  0.47765  0.01983  0.17322  1.0000
  C   C89       1.0  0.03429  0.32241  0.47460  1.0000
  H   H66       1.0  0.32877  0.29133  0.34332  1.0000
  H   H67       1.0  0.28009  0.20621  0.06070  1.0000
  P   P3        1.0  0.32576  0.27991  0.45259  1.0000
  H   H68       1.0  0.28556  0.24818  0.42430  1.0000
  C   C90       1.0  0.00698  0.04887  0.43850  1.0000
  H   H69       1.0  0.02121  0.05999  0.42740  1.0000
  H   H70       1.0  0.00517  0.01734  0.41095  1.0000
  H   H71       1.0  0.44091  0.04756  0.21135  1.0000
  C   C91       1.0  0.46562  0.07684  0.22873  1.0000
  C   C92       1.0  0.28031  0.27913  0.48288  1.0000
  C   C93       1.0  0.36670  0.29157  0.48682  1.0000
  C   C94       1.0  0.24323  0.31192  0.41798  1.0000
  S   S20       1.0  0.13751  0.30776  0.31546  1.0000
  H   H72       1.0  0.41133  0.08254  0.28126  1.0000
  C   C95       1.0  0.33002  0.16655  0.22193  1.0000
  C   C96       1.0  0.30290  0.16933  0.22385  1.0000
  C   C97       1.0  0.28870  0.17959  0.20291  1.0000
  C   C98       1.0  0.30162  0.18721  0.18006  1.0000
  C   C99       1.0  0.32881  0.18386  0.17778  1.0000
  C   C100      1.0  0.34294  0.17393  0.19905  1.0000
  P   P4        1.0  0.34634  0.19503  0.14933  1.0000
  C   C101      1.0  0.36963  0.17075  0.13900  1.0000
  C   C102      1.0  0.39072  0.17786  0.12292  1.0000
  H   H73       1.0  0.34112  0.15937  0.23848  1.0000
  H   H74       1.0  0.29305  0.16424  0.24190  1.0000
  H   H75       1.0  0.26777  0.18238  0.20477  1.0000
  H   H76       1.0  0.29040  0.19609  0.16453  1.0000
  C   C103      1.0  0.35763  0.27047  0.17254  1.0000
  C   C104      1.0  0.32716  0.22112  0.10534  1.0000
  C   C105      1.0  0.34488  0.32213  0.42386  1.0000
  H   H77       1.0  0.04567  0.24832  0.42455  1.0000
  C   C106      1.0  0.25463  0.32447  0.39657  1.0000
  C   C107      1.0  0.29063  0.18213  0.09357  1.0000
  C   C108      1.0  0.34658  0.24783  0.16197  1.0000
  C   C109      1.0  0.37503  0.23182  0.41166  1.0000
  H   H78       1.0  0.30550  0.16202  0.12726  1.0000
  S   S21       1.0  0.12532  0.29233  0.39129  1.0000
  C   C110      1.0  0.36314  0.24579  0.43179  1.0000
  C   C111      1.0  0.27738  0.25540  0.44225  1.0000
  H   H79       1.0  0.45106  0.10976  0.28451  1.0000
  H   H80       1.0  0.34577  0.28774  0.17545  1.0000
  H   H81       1.0  0.09933  0.29516  0.45105  1.0000
  H   H82       1.0  0.18236  0.31317  0.20641  1.0000
  C   C112      1.0  0.09159  0.20488  0.47721  1.0000
  H   H83       1.0  0.39289  0.22105  0.41531  1.0000
  H   H84       1.0  0.31302  0.27297  0.39720  1.0000
  C   C113      1.0  0.36169  0.22516  0.15923  1.0000
  C   C114      1.0  0.29257  0.20427  0.07770  1.0000
  C   C115      1.0  0.06904  0.18907  0.47685  1.0000
  C   C116      1.0  0.34032  0.26039  0.42702  1.0000
  C   C117      1.0  0.29206  0.27090  0.45952  1.0000
  H   H85       1.0  0.39220  0.28787  0.18927  1.0000
  H   H86       1.0  0.41898  0.24779  0.18482  1.0000
  H   H87       1.0  0.38198  0.30355  0.37608  1.0000
  H   H88       1.0  0.34970  0.13817  0.15755  1.0000
  H   H89       1.0  0.04055  0.17045  0.45217  1.0000
  C   C118      1.0  0.43024  0.03896  0.04411  1.0000
  H   H90       1.0  0.32614  0.24783  0.15649  1.0000
  C   C119      1.0  0.05781  0.18269  0.45281  1.0000
  C   C120      1.0  0.39895  0.24808  0.17780  1.0000
  H   H91       1.0  0.34172  0.23603  0.10910  1.0000
  C   C121      1.0  0.04926  0.26687  0.41518  1.0000
  H   H92       1.0  0.27674  0.16684  0.08881  1.0000
  Fe  Fe9       1.0  0.46537  0.05382  0.14812  1.0000
  C   C122      1.0  0.46600  0.15774  0.26100  1.0000
  H   H93       1.0  0.33364  0.24701  0.36224  1.0000
  H   H94       1.0  0.13932  0.28171  0.47404  1.0000
  C   C123      1.0  0.23978  0.25764  0.47091  1.0000
  C   C124      1.0  0.01715  0.26726  0.47168  1.0000
  C   C125      1.0  0.30574  0.32442  0.35513  1.0000
  C   C126      1.0  0.06086  0.29033  0.37578  1.0000
  C   C127      1.0  0.05617  0.31359  0.41653  1.0000
  H   H95       1.0  0.06611  0.29017  0.35531  1.0000
  H   H96       1.0  0.25470  0.31452  0.37799  1.0000
  C   C128      1.0  0.22328  0.32357  0.30844  1.0000
  C   C129      1.0  0.46009  0.32225  0.32661  1.0000
  S   S22       1.0  0.48930  0.31585  0.43703  1.0000
  Fe  Fe10      1.0  0.47965  0.99709  0.13588  1.0000
  H   H97       1.0  0.48494  0.16621  0.34402  1.0000
  H   H98       1.0  0.36645  0.31154  0.30980  1.0000
  H   H99       1.0  0.49336  0.15793  0.21381  1.0000
  C   C130      1.0  0.43365  0.00429  0.01229  1.0000
  C   C131      1.0  0.99775  0.05851  0.46218  1.0000
  C   C132      1.0  0.99793  0.02488  0.42927  1.0000
  H   H100      1.0  0.44766  0.31964  0.30971  1.0000
  H   H101      1.0  0.07458  0.32046  0.11466  1.0000
  H   H102      1.0  0.02882  0.32082  0.13091  1.0000
  Fe  Fe11      1.0  0.44734  0.32392  0.44661  1.0000
  H   H103      1.0  0.40702  0.32406  0.33249  1.0000
  H   H104      1.0  0.49341  0.07181  0.29008  1.0000
  H   H105      1.0  0.49206  0.25423  0.42330  1.0000
  H   H106      1.0  0.15794  0.32486  0.26618  1.0000
  C   C133      1.0  0.01876  0.26146  0.58119  1.0000
  C   C134      1.0  0.00625  0.29775  0.62400  1.0000
  H   H107      1.0  0.34864  0.23657  0.53581  1.0000
  H   H108      1.0  0.39832  0.30044  0.51315  1.0000
  C   C135      1.0  0.01241  0.31880  0.66601  1.0000
  H   H109      1.0  0.03675  0.01943  0.58272  1.0000
  H   H110      1.0  0.09308  0.24921  0.53616  1.0000
  C   C136      1.0  0.38162  0.28795  0.50940  1.0000
  C   C137      1.0  0.11880  0.26506  0.50682  1.0000
  S   S23       1.0  0.01948  0.13726  0.55739  1.0000
  C   C138      1.0  0.01634  0.25320  0.55523  1.0000
  C   C139      1.0  0.01841  0.31686  0.63947  1.0000
  C   C140      1.0  0.02355  0.22791  0.54828  1.0000
  C   C141      1.0  0.02795  0.24381  0.60012  1.0000
  H   H111      1.0  0.05279  0.26288  0.51362  1.0000
  H   H112      1.0  0.48241  0.29286  0.54445  1.0000
  S   S24       1.0  0.99569  0.12344  0.49985  1.0000
  C   C142      1.0  0.09436  0.25983  0.51791  1.0000
  C   C143      1.0  0.08682  0.31589  0.56512  1.0000
  H   H113      1.0  0.00945  0.31682  0.53657  1.0000
  H   H114      1.0  0.10063  0.20959  0.49566  1.0000
  C   C144      1.0  0.33862  0.25554  0.49962  1.0000
  H   H115      1.0  0.06656  0.28017  0.57307  1.0000
  C   C145      1.0  0.03443  0.21830  0.59314  1.0000
  C   C146      1.0  0.07151  0.26734  0.50492  1.0000
  P   P5        1.0  0.01303  0.29516  0.58945  1.0000
  H   H116      1.0  0.13654  0.25878  0.51655  1.0000
  H   H117      1.0  0.10463  0.30610  0.55915  1.0000
  H   H118      1.0  0.03805  0.19087  0.56171  1.0000
  H   H119      1.0  0.02252  0.03208  0.62697  1.0000
  Fe  Fe12      1.0  0.01780  0.15693  0.51800  1.0000
  S   S25       1.0  0.05522  0.17911  0.50709  1.0000
  C   C147      1.0  0.03510  0.00470  0.59790  1.0000
  H   H120      1.0  0.03035  0.24960  0.62023  1.0000
  C   C148      1.0  0.04181  0.31377  0.58048  1.0000
  C   C149      1.0  0.37503  0.26827  0.52713  1.0000
  H   H121      1.0  0.00941  0.26627  0.54018  1.0000
  H   H122      1.0  0.38661  0.26560  0.54464  1.0000
  C   C150      1.0  0.03255  0.21049  0.56719  1.0000
  H   H123      1.0  0.04085  0.20446  0.60782  1.0000
  C   C151      1.0  0.06506  0.30123  0.57299  1.0000
  H   H124      1.0  0.01824  0.99903  0.66164  1.0000
  H   H125      1.0  0.02227  0.22167  0.52818  1.0000
  C   C152      1.0  0.02709  0.01186  0.62289  1.0000
  S   S26       1.0  0.99935  0.06293  0.54818  1.0000
  C   C153      1.0  0.35362  0.25199  0.52218  1.0000
  H   H126      1.0  0.00073  0.13597  0.67604  1.0000
  H   H127      1.0  0.45939  0.22469  0.49446  1.0000
  H   H128      1.0  0.06168  0.32397  0.50694  1.0000
  C   C154      1.0  0.49239  0.30896  0.55391  1.0000
  C   C155      1.0  0.99413  0.30185  0.67727  1.0000
  Fe  Fe13      1.0  0.99411  0.10605  0.54034  1.0000
  H   H129      1.0  0.24530  0.27937  0.50632  1.0000
  H   H130      1.0  0.29126  0.29052  0.49691  1.0000
  H   H131      1.0  0.32232  0.24252  0.49589  1.0000
  C   C156      1.0  0.02429  0.99293  0.64240  1.0000
  S   S27       1.0  0.29606  0.43869  0.47013  1.0000
  C   C157      1.0  0.41444  0.42897  0.47165  1.0000
  Fe  Fe14      1.0  0.24984  0.44177  0.22049  1.0000
  S   S28       1.0  0.25282  0.41506  0.18582  1.0000
  S   S29       1.0  0.27681  0.47512  0.23048  1.0000
  Fe  Fe15      1.0  0.19889  0.41848  0.23951  1.0000
  S   S30       1.0  0.19753  0.39042  0.20647  1.0000
  S   S31       1.0  0.16863  0.41944  0.27163  1.0000
  Fe  Fe16      1.0  0.24015  0.38409  0.21435  1.0000
  H   H132      1.0  0.30964  0.44865  0.41015  1.0000
  Fe  Fe17      1.0  0.20983  0.42365  0.18056  1.0000
  S   S32       1.0  0.19037  0.42582  0.14051  1.0000
  S   S33       1.0  0.24077  0.41012  0.24943  1.0000
  S   S34       1.0  0.20769  0.45255  0.21325  1.0000
  C   C158      1.0  0.49224  0.62406  0.22722  1.0000
  S   S35       1.0  0.11802  0.58059  0.04341  1.0000
  C   C159      1.0  0.00486  0.45043  0.03896  1.0000
  C   C160      1.0  0.04406  0.33093  0.14163  1.0000
  S   S36       1.0  0.08882  0.52498  0.03513  1.0000
  S   S37       1.0  0.25124  0.34151  0.21667  1.0000
  Fe  Fe18      1.0  0.07928  0.56721  0.02822  1.0000
  S   S38       1.0  0.04414  0.58965  0.04273  1.0000
  Fe  Fe19      1.0  0.12908  0.53834  0.04711  1.0000
  S   S39       1.0  0.14996  0.53029  0.08572  1.0000
  H   H133      1.0  0.20182  0.40230  0.40464  1.0000
  H   H134      1.0  0.35010  0.41160  0.47282  1.0000
  Fe  Fe20      1.0  0.45523  0.49922  0.33505  1.0000
  S   S40       1.0  0.44404  0.54174  0.33814  1.0000
  S   S41       1.0  0.32606  0.51109  0.47868  1.0000
  Fe  Fe21      1.0  0.41029  0.48703  0.29804  1.0000
  S   S42       1.0  0.39604  0.52820  0.29879  1.0000
  S   S43       1.0  0.39066  0.45423  0.27572  1.0000
  Fe  Fe22      1.0  0.43829  0.54017  0.29466  1.0000
  S   S44       1.0  0.44404  0.57185  0.26357  1.0000
  Fe  Fe23      1.0  0.40299  0.52595  0.34185  1.0000
  S   S45       1.0  0.37232  0.54381  0.36811  1.0000
  S   S46       1.0  0.45223  0.49865  0.29116  1.0000
  S   S47       1.0  0.41460  0.48396  0.34150  1.0000
  C   C161      1.0  0.00814  0.36156  0.46851  1.0000
  H   H135      1.0  0.34579  0.45889  0.48218  1.0000
  H   H136      1.0  0.19857  0.65059  0.00613  1.0000
  H   H137      1.0  0.45888  0.44897  0.38546  1.0000
  C   C162      1.0  0.36140  0.53252  0.39893  1.0000
  C   C163      1.0  0.35441  0.55141  0.41722  1.0000
  C   C164      1.0  0.34419  0.54420  0.44149  1.0000
  C   C165      1.0  0.33949  0.51799  0.44754  1.0000
  H   H138      1.0  0.30883  0.37413  0.46486  1.0000
  C   C166      1.0  0.35773  0.50601  0.40512  1.0000
  H   H139      1.0  0.35699  0.57187  0.41261  1.0000
  H   H140      1.0  0.33920  0.55918  0.45543  1.0000
  H   H141      1.0  0.17813  0.35975  0.40581  1.0000
  H   H142      1.0  0.37754  0.47802  0.12448  1.0000
  C   C167      1.0  0.40870  0.36269  0.31546  1.0000
  C   C168      1.0  0.01696  0.59221  0.02177  1.0000
  C   C169      1.0  0.40978  0.38615  0.40436  1.0000
  C   C170      1.0  0.45697  0.39126  0.28393  1.0000
  C   C171      1.0  0.32701  0.38737  0.36962  1.0000
  C   C172      1.0  0.48523  0.41952  0.40098  1.0000
  H   H143      1.0  0.23752  0.43472  0.31341  1.0000
  H   H144      1.0  0.36307  0.49128  0.39111  1.0000
  C   C173      1.0  0.47199  0.59113  0.25566  1.0000
  H   H145      1.0  0.38444  0.48700  0.48418  1.0000
  C   C174      1.0  0.17969  0.45514  0.12536  1.0000
  C   C175      1.0  0.16837  0.45399  0.10039  1.0000
  C   C176      1.0  0.15894  0.47671  0.08793  1.0000
  C   C177      1.0  0.16102  0.50088  0.10033  1.0000
  C   C178      1.0  0.17247  0.50202  0.12526  1.0000
  C   C179      1.0  0.18183  0.47933  0.13769  1.0000
  H   H146      1.0  0.16731  0.43546  0.09053  1.0000
  H   H147      1.0  0.15046  0.47563  0.06864  1.0000
  H   H148      1.0  0.17431  0.52065  0.13495  1.0000
  H   H149      1.0  0.19075  0.48058  0.15678  1.0000
  C   C180      1.0  0.30844  0.46874  0.24258  1.0000
  C   C181      1.0  0.32050  0.44449  0.23933  1.0000
  C   C182      1.0  0.34607  0.44044  0.24879  1.0000
  C   C183      1.0  0.35930  0.46028  0.26235  1.0000
  C   C184      1.0  0.34710  0.48442  0.26553  1.0000
  C   C185      1.0  0.32195  0.48874  0.25543  1.0000
  H   H150      1.0  0.31029  0.42902  0.22922  1.0000
  H   H151      1.0  0.35542  0.42185  0.24579  1.0000
  H   H152      1.0  0.35685  0.49978  0.27592  1.0000
  H   H153      1.0  0.31276  0.50756  0.25796  1.0000
  C   C186      1.0  0.18148  0.35554  0.44742  1.0000
  C   C187      1.0  0.39213  0.41318  0.47006  1.0000
  C   C188      1.0  0.45960  0.34556  0.34092  1.0000
  H   H154      1.0  0.07785  0.45161  0.13902  1.0000
  H   H155      1.0  0.08982  0.43727  0.09248  1.0000
  C   C189      1.0  0.16093  0.38833  0.28430  1.0000
  C   C190      1.0  0.16366  0.36614  0.26887  1.0000
  C   C191      1.0  0.24927  0.38508  0.35626  1.0000
  H   H156      1.0  0.13881  0.42457  0.02601  1.0000
  C   C192      1.0  0.14515  0.36090  0.32000  1.0000
  C   C193      1.0  0.15098  0.38574  0.30967  1.0000
  H   H157      1.0  0.17060  0.36788  0.24911  1.0000
  H   H158      1.0  0.13776  0.35899  0.33967  1.0000
  H   H159      1.0  0.14798  0.40292  0.32146  1.0000
  H   H160      1.0  0.30078  0.36973  0.21272  1.0000
  H   H161      1.0  0.42547  0.42684  0.34244  1.0000
  C   C194      1.0  0.25432  0.40584  0.33907  1.0000
  H   H162      1.0  0.21884  0.36184  0.37455  1.0000
  C   C195      1.0  0.29495  0.41338  0.39255  1.0000
  C   C196      1.0  0.47090  0.40878  0.26817  1.0000
  S   S48       1.0  0.45300  0.36694  0.45197  1.0000
  C   C197      1.0  0.29168  0.32836  0.30260  1.0000
  C   C198      1.0  0.10171  0.37146  0.22208  1.0000
  H   H163      1.0  0.10369  0.53063  0.11611  1.0000
  H   H164      1.0  0.21871  0.34724  0.27394  1.0000
  H   H165      1.0  0.00562  0.32777  0.44395  1.0000
  C   C199      1.0  0.10513  0.39309  0.23848  1.0000
  C   C200      1.0  0.09998  0.39097  0.26516  1.0000
  H   H166      1.0  0.06851  0.46898  0.01716  1.0000
  H   H167      1.0  0.46037  0.53276  0.22490  1.0000
  H   H168      1.0  0.33914  0.38789  0.42988  1.0000
  C   C201      1.0  0.11041  0.40715  0.17666  1.0000
  C   C202      1.0  0.09078  0.41776  0.16058  1.0000
  C   C203      1.0  0.09284  0.44350  0.15154  1.0000
  C   C204      1.0  0.11444  0.45878  0.15847  1.0000
  C   C205      1.0  0.13376  0.44847  0.17476  1.0000
  C   C206      1.0  0.13188  0.42276  0.18365  1.0000
  C   C207      1.0  0.14782  0.33873  0.30443  1.0000
  C   C208      1.0  0.08830  0.34558  0.25967  1.0000
  C   C209      1.0  0.45287  0.64247  0.30045  1.0000
  H   H169      1.0  0.11234  0.41152  0.23110  1.0000
  H   H170      1.0  0.10359  0.40751  0.27781  1.0000
  H   H171      1.0  0.07126  0.56641  0.11476  1.0000
  C   C210      1.0  0.23365  0.41918  0.32724  1.0000
  H   H172      1.0  0.43337  0.42017  0.46856  1.0000
  H   H173      1.0  0.07405  0.40624  0.15477  1.0000
  H   H174      1.0  0.15062  0.46019  0.18006  1.0000
  H   H175      1.0  0.14734  0.41502  0.19586  1.0000
  H   H176      1.0  0.39182  0.47101  0.07924  1.0000
  H   H177      1.0  0.44917  0.47263  0.42315  1.0000
  C   C211      1.0  0.05379  0.49863  0.08547  1.0000
  C   C212      1.0  0.24710  0.49443  0.29143  1.0000
  C   C213      1.0  0.24948  0.49451  0.31868  1.0000
  C   C214      1.0  0.22736  0.48877  0.33397  1.0000
  P   P6        1.0  0.28103  0.50178  0.33301  1.0000
  C   C215      1.0  0.30388  0.47566  0.32707  1.0000
  C   C216      1.0  0.29228  0.53210  0.31874  1.0000
  C   C217      1.0  0.27425  0.55225  0.31415  1.0000
  C   C218      1.0  0.28256  0.57600  0.30347  1.0000
  C   C219      1.0  0.30896  0.57988  0.29747  1.0000
  C   C220      1.0  0.32705  0.56002  0.30213  1.0000
  C   C221      1.0  0.31879  0.53620  0.31267  1.0000
  C   C222      1.0  0.32806  0.47561  0.34008  1.0000
  C   C223      1.0  0.34623  0.45589  0.33534  1.0000
  C   C224      1.0  0.34003  0.43549  0.31849  1.0000
  C   C225      1.0  0.31579  0.43501  0.30593  1.0000
  C   C226      1.0  0.29789  0.45518  0.30990  1.0000
  C   C227      1.0  0.27918  0.50509  0.36801  1.0000
  C   C228      1.0  0.28694  0.52831  0.38033  1.0000
  C   C229      1.0  0.28576  0.53038  0.40747  1.0000
  C   C230      1.0  0.27704  0.50933  0.42251  1.0000
  C   C231      1.0  0.26966  0.48608  0.41044  1.0000
  C   C232      1.0  0.27111  0.48379  0.38333  1.0000
  H   H178      1.0  0.26379  0.49919  0.27927  1.0000
  H   H179      1.0  0.22814  0.48939  0.35499  1.0000
  H   H180      1.0  0.25375  0.54963  0.31890  1.0000
  H   H181      1.0  0.26853  0.59141  0.29991  1.0000
  H   H182      1.0  0.31548  0.59830  0.28931  1.0000
  H   H183      1.0  0.34758  0.56309  0.29776  1.0000
  H   H184      1.0  0.33330  0.52130  0.31610  1.0000
  H   H185      1.0  0.33311  0.49122  0.35338  1.0000
  H   H186      1.0  0.36516  0.45639  0.34473  1.0000
  H   H187      1.0  0.35432  0.42047  0.31465  1.0000
  H   H188      1.0  0.31122  0.41951  0.29234  1.0000
  H   H189      1.0  0.27969  0.45469  0.29919  1.0000
  H   H190      1.0  0.29433  0.54472  0.36922  1.0000
  H   H191      1.0  0.29209  0.54818  0.41693  1.0000
  H   H192      1.0  0.33246  0.37076  0.35792  1.0000
  H   H193      1.0  0.26574  0.46545  0.37431  1.0000
  H   H194      1.0  0.22449  0.65650  0.09918  1.0000
  H   H195      1.0  0.01562  0.51569  0.07812  1.0000
  H   H196      1.0  0.09953  0.63375  0.01885  1.0000
  H   H197      1.0  0.08265  0.32702  0.26817  1.0000
  H   H198      1.0  0.30230  0.32780  0.47457  1.0000
  H   H199      1.0  0.41783  0.52979  0.47593  1.0000
  C   C233      1.0  0.03667  0.41846  0.09225  1.0000
  C   C234      1.0  0.03499  0.51862  0.08616  1.0000
  C   C235      1.0  0.02851  0.40145  0.11203  1.0000
  H   H200      1.0  0.26974  0.36193  0.31335  1.0000
  H   H201      1.0  0.42448  0.54725  0.39449  1.0000
  C   C236      1.0  0.22332  0.37791  0.36155  1.0000
  C   C237      1.0  0.09497  0.64740  0.00331  1.0000
  C   C238      1.0  0.40550  0.41304  0.40405  1.0000
  H   H202      1.0  0.08906  0.36531  0.29667  1.0000
  C   C239      1.0  0.33046  0.34193  0.22433  1.0000
  H   H203      1.0  0.27423  0.41132  0.33448  1.0000
  C   C240      1.0  0.41128  0.42758  0.38182  1.0000
  C   C241      1.0  0.42773  0.53400  0.41067  1.0000
  H   H204      1.0  0.14798  0.38086  0.14625  1.0000
  C   C242      1.0  0.14016  0.35822  0.18125  1.0000
  C   C243      1.0  0.15018  0.33894  0.19805  1.0000
  H   H205      1.0  0.00328  0.51339  0.99689  1.0000
  C   C244      1.0  0.17905  0.35400  0.15421  1.0000
  H   H206      1.0  0.47813  0.36709  0.37230  1.0000
  C   C245      1.0  0.02045  0.37307  0.48993  1.0000
  C   C246      1.0  0.28883  0.34441  0.34698  1.0000
  C   C247      1.0  0.08443  0.52716  0.10791  1.0000
  H   H207      1.0  0.26959  0.38222  0.42594  1.0000
  H   H208      1.0  0.18271  0.38634  0.35478  1.0000
  H   H209      1.0  0.39057  0.64909  0.03343  1.0000
  C   C248      1.0  0.42684  0.38852  0.36027  1.0000
  C   C249      1.0  0.19075  0.36698  0.47046  1.0000
  H   H210      1.0  0.43798  0.64451  0.28558  1.0000
  H   H211      1.0  0.20820  0.32685  0.16788  1.0000
  C   C250      1.0  0.31611  0.46169  0.17542  1.0000
  C   C251      1.0  0.31176  0.48854  0.17430  1.0000
  C   C252      1.0  0.33297  0.50574  0.17324  1.0000
  C   C253      1.0  0.35855  0.49607  0.17339  1.0000
  C   C254      1.0  0.36310  0.46908  0.17518  1.0000
  C   C255      1.0  0.34163  0.45193  0.17592  1.0000
  P   P7        1.0  0.39623  0.45678  0.17466  1.0000
  C   C256      1.0  0.39772  0.42569  0.19136  1.0000
  C   C257      1.0  0.40693  0.42403  0.21704  1.0000
  C   C258      1.0  0.40688  0.40016  0.23022  1.0000
  C   C259      1.0  0.39819  0.37756  0.21777  1.0000
  C   C260      1.0  0.38953  0.37887  0.19196  1.0000
  C   C261      1.0  0.38925  0.40283  0.17878  1.0000
  C   C262      1.0  0.41715  0.48025  0.19081  1.0000
  C   C263      1.0  0.40862  0.49234  0.21383  1.0000
  C   C264      1.0  0.42416  0.51122  0.22595  1.0000
  H   H212      1.0  0.29959  0.44849  0.17681  1.0000
  H   H213      1.0  0.29190  0.49595  0.17490  1.0000
  H   H214      1.0  0.37472  0.50973  0.17238  1.0000
  H   H215      1.0  0.34433  0.43110  0.17738  1.0000
  H   H216      1.0  0.41370  0.44115  0.22728  1.0000
  H   H217      1.0  0.41297  0.39950  0.25036  1.0000
  H   H218      1.0  0.39776  0.35910  0.22823  1.0000
  H   H219      1.0  0.38252  0.36135  0.18242  1.0000
  H   H220      1.0  0.38200  0.40360  0.15895  1.0000
  H   H221      1.0  0.38991  0.48722  0.22243  1.0000
  H   H222      1.0  0.41738  0.52068  0.24355  1.0000
  P   P8        1.0  0.43859  0.37224  0.33157  1.0000
  C   C265      1.0  0.09322  0.43978  0.07182  1.0000
  C   C266      1.0  0.42163  0.41537  0.35979  1.0000
  H   H223      1.0  0.00224  0.62678  0.04041  1.0000
  C   C267      1.0  0.31886  0.35960  0.45332  1.0000
  C   C268      1.0  0.44186  0.49200  0.42700  1.0000
  C   C269      1.0  0.47022  0.45855  0.47801  1.0000
  C   C270      1.0  0.20785  0.41230  0.33300  1.0000
  C   C271      1.0  0.06610  0.54731  0.10731  1.0000
  C   C272      1.0  0.12111  0.43255  0.03441  1.0000
  H   H224      1.0  0.19072  0.36074  0.13786  1.0000
  H   H225      1.0  0.09345  0.48810  0.09669  1.0000
  C   C273      1.0  0.03423  0.44558  0.09533  1.0000
  C   C274      1.0  0.11563  0.42878  0.06082  1.0000
  C   C275      1.0  0.42046  0.37390  0.38256  1.0000
  H   H226      1.0  0.17461  0.62530  0.03938  1.0000
  C   C276      1.0  0.37157  0.37399  0.28804  1.0000
  C   C277      1.0  0.07554  0.45391  0.05624  1.0000
  C   C278      1.0  0.45792  0.39354  0.31116  1.0000
  C   C279      1.0  0.02131  0.49375  0.02937  1.0000
  C   C280      1.0  0.35342  0.64577  0.01418  1.0000
  C   C281      1.0  0.39503  0.38097  0.30025  1.0000
  H   H227      1.0  0.28591  0.32978  0.28233  1.0000
  C   C282      1.0  0.01483  0.43829  0.13801  1.0000
  C   C283      1.0  0.19906  0.39218  0.42291  1.0000
  C   C284      1.0  0.01228  0.57340  0.00271  1.0000
  H   H228      1.0  0.36583  0.40295  0.36819  1.0000
  H   H229      1.0  0.32953  0.52657  0.17266  1.0000
  H   H230      1.0  0.44873  0.47832  0.16263  1.0000
  C   C285      1.0  0.19091  0.63763  0.04517  1.0000
  C   C286      1.0  0.47454  0.41217  0.32239  1.0000
  C   C287      1.0  0.43849  0.50938  0.40627  1.0000
  P   P9        1.0  0.27610  0.36731  0.37046  1.0000
  C   C288      1.0  0.02200  0.47107  0.04485  1.0000
  H   H231      1.0  0.27495  0.41712  0.39859  1.0000
  C   C289      1.0  0.20476  0.39060  0.46965  1.0000
  C   C290      1.0  0.25193  0.34962  0.44471  1.0000
  C   C291      1.0  0.43591  0.49961  0.45253  1.0000
  C   C292      1.0  0.17438  0.32734  0.19292  1.0000
  P   P10       1.0  0.10892  0.37357  0.18758  1.0000
  C   C293      1.0  0.36134  0.34894  0.29138  1.0000
  C   C294      1.0  0.09297  0.34773  0.23289  1.0000
  H   H232      1.0  0.18757  0.62787  0.08585  1.0000
  H   H233      1.0  0.49111  0.63674  0.21040  1.0000
  H   H234      1.0  0.34647  0.35524  0.22079  1.0000
  C   C295      1.0  0.40182  0.46109  0.09504  1.0000
  C   C296      1.0  0.34630  0.49875  0.42928  1.0000
  H   H235      1.0  0.44050  0.60341  0.31017  1.0000
  C   C297      1.0  0.42436  0.52409  0.45672  1.0000
  H   H236      1.0  0.44415  0.50371  0.38678  1.0000
  H   H237      1.0  0.40760  0.44833  0.38184  1.0000
  C   C298      1.0  0.42270  0.44437  0.08968  1.0000
  H   H238      1.0  0.13993  0.33324  0.21555  1.0000
  C   C299      1.0  0.44842  0.51805  0.21540  1.0000
  Fe  Fe24      1.0  0.25308  0.44259  0.47799  1.0000
  C   C300      1.0  0.08126  0.45766  0.02969  1.0000
  H   H239      1.0  0.46516  0.61809  0.01687  1.0000
  H   H240      1.0  0.36234  0.35444  0.40353  1.0000
  H   H241      1.0  0.39410  0.39250  0.46630  1.0000
  C   C301      1.0  0.30458  0.35024  0.21994  1.0000
  C   C302      1.0  0.47062  0.60838  0.23430  1.0000
  C   C303      1.0  0.20911  0.40316  0.44581  1.0000
  C   C304      1.0  0.45717  0.50600  0.19264  1.0000
  C   C305      1.0  0.10396  0.44703  0.01890  1.0000
  C   C306      1.0  0.07844  0.50295  0.09690  1.0000
  C   C307      1.0  0.46290  0.63741  0.02504  1.0000
  C   C308      1.0  0.22344  0.48755  0.27962  1.0000
  Fe  Fe25      1.0  0.13179  0.57837  0.00214  1.0000
  C   C309      1.0  0.42033  0.54121  0.43583  1.0000
  C   C310      1.0  0.41196  0.45568  0.47709  1.0000
  H   H242      1.0  0.21195  0.39915  0.48747  1.0000
  H   H243      1.0  0.18354  0.47528  0.28567  1.0000
  C   C311      1.0  0.42754  0.43541  0.13583  1.0000
  C   C312      1.0  0.08960  0.34342  0.14648  1.0000
  P   P11       1.0  0.04625  0.46763  0.07045  1.0000
  H   H244      1.0  0.34298  0.47843  0.43385  1.0000
  S   S49       1.0  0.22710  0.43248  0.44388  1.0000
  H   H245      1.0  0.11644  0.47854  0.15107  1.0000
  C   C313      1.0  0.26473  0.34989  0.39905  1.0000
  C   C314      1.0  0.36483  0.45049  0.47888  1.0000
  H   H246      1.0  0.41099  0.55988  0.43898  1.0000
  H   H247      1.0  0.27642  0.51093  0.44357  1.0000
  C   C315      1.0  0.33585  0.36736  0.43350  1.0000
  H   H248      1.0  0.12901  0.41771  0.07289  1.0000
  C   C316      1.0  0.43557  0.43156  0.11007  1.0000
  C   C317      1.0  0.40652  0.45211  0.14136  1.0000
  H   H249      1.0  0.45277  0.60947  0.22299  1.0000
  H   H250      1.0  0.39700  0.42274  0.42059  1.0000
  C   C318      1.0  0.34877  0.34861  0.41867  1.0000
  C   C319      1.0  0.20362  0.48202  0.32207  1.0000
  H   H251      1.0  0.43775  0.42542  0.15146  1.0000
  H   H252      1.0  0.26300  0.46975  0.42217  1.0000
  H   H253      1.0  0.22211  0.48696  0.25854  1.0000
  H   H254      1.0  0.40473  0.37465  0.42140  1.0000
  C   C320      1.0  0.30126  0.39075  0.37850  1.0000
  C   C321      1.0  0.18563  0.36820  0.42359  1.0000
  C   C322      1.0  0.34012  0.42759  0.39059  1.0000
  H   H255      1.0  0.02738  0.55886  0.09566  1.0000
  H   H256      1.0  0.19189  0.42283  0.32394  1.0000
  C   C323      1.0  0.44162  0.48719  0.18033  1.0000
  C   C324      1.0  0.20270  0.39170  0.35017  1.0000
  C   C325      1.0  0.18888  0.33493  0.17109  1.0000
  C   C326      1.0  0.04134  0.54300  0.09657  1.0000
  C   C327      1.0  0.26298  0.36243  0.42329  1.0000
  C   C328      1.0  0.39768  0.33797  0.31967  1.0000
  C   C329      1.0  0.20175  0.48110  0.29490  1.0000
  H   H257      1.0  0.18673  0.47714  0.33390  1.0000
  H   H258      1.0  0.00524  0.43251  0.05010  1.0000
  H   H259      1.0  0.42347  0.35298  0.38302  1.0000
  C   C330      1.0  0.15481  0.36559  0.15922  1.0000
  C   C331      1.0  0.48640  0.42818  0.27955  1.0000
  C   C332      1.0  0.34627  0.40570  0.37563  1.0000
  C   C333      1.0  0.38695  0.46637  0.48033  1.0000
  C   C334      1.0  0.39375  0.46500  0.12078  1.0000
  C   C335      1.0  0.28236  0.34658  0.32046  1.0000
  H   H260      1.0  0.35504  0.44187  0.39526  1.0000
  H   H261      1.0  0.47007  0.40858  0.41087  1.0000
  C   C336      1.0  0.36732  0.42396  0.47352  1.0000
  C   C337      1.0  0.01763  0.41136  0.13493  1.0000
  C   C338      1.0  0.31444  0.43148  0.39891  1.0000
  C   C339      1.0  0.28375  0.33301  0.22425  1.0000
  H   H262      1.0  0.22620  0.34006  0.32120  1.0000
  C   C340      1.0  0.44230  0.65343  0.01681  1.0000
  H   H263      1.0  0.04504  0.41046  0.07460  1.0000
  C   C341      1.0  0.09181  0.36720  0.27579  1.0000
  H   H264      1.0  0.05258  0.36757  0.19611  1.0000
  C   C342      1.0  0.37433  0.33098  0.30729  1.0000
  C   C343      1.0  0.15646  0.34160  0.27866  1.0000
  S   S50       1.0  0.49211  0.48547  0.35565  1.0000
  H   H265      1.0  0.24416  0.62786  0.00185  1.0000
  H   H266      1.0  0.36133  0.38795  0.27591  1.0000
  P   P12       1.0  0.44005  0.47688  0.47911  1.0000
  H   H267      1.0  0.42890  0.44134  0.06972  1.0000
  C   C344      1.0  0.47880  0.44231  0.38662  1.0000
  H   H268      1.0  0.02613  0.55776  0.99985  1.0000
  C   C345      1.0  0.48848  0.42964  0.30665  1.0000
  H   H269      1.0  0.40243  0.40068  0.29784  1.0000
  H   H270      1.0  0.03471  0.50974  0.03283  1.0000
  C   C346      1.0  0.08372  0.35638  0.16981  1.0000
  H   H271      1.0  0.47599  0.51145  0.18452  1.0000
  H   H272      1.0  0.45178  0.41862  0.10593  1.0000
  H   H273      1.0  0.47656  0.41331  0.34330  1.0000
  H   H274      1.0  0.44535  0.37608  0.27491  1.0000
  C   C347      1.0  0.02302  0.45536  0.11829  1.0000
  H   H275      1.0  0.25047  0.35956  0.46326  1.0000
  C   C348      1.0  0.47730  0.34889  0.36162  1.0000
  C   C349      1.0  0.99881  0.61239  0.02543  1.0000
  H   H276      1.0  0.06727  0.33157  0.38009  1.0000
  H   H277      1.0  0.03068  0.38058  0.10959  1.0000
  S   S51       1.0  0.14600  0.53715  0.00652  1.0000
  H   H278      1.0  0.18738  0.35738  0.48897  1.0000
  C   C350      1.0  0.05765  0.35712  0.17850  1.0000
  C   C351      1.0  0.45420  0.61902  0.31440  1.0000
  H   H279      1.0  0.34905  0.62687  0.02265  1.0000
  C   C352      1.0  0.49152  0.63529  0.33844  1.0000
  C   C353      1.0  0.00362  0.49585  0.00870  1.0000
  H   H280      1.0  0.34343  0.34340  0.28153  1.0000
  H   H281      1.0  0.10940  0.34306  0.13901  1.0000
  C   C354      1.0  0.03796  0.34424  0.16456  1.0000
  C   C355      1.0  0.47365  0.61532  0.33318  1.0000
  H   H282      1.0  0.48840  0.48020  0.44626  1.0000
  H   H283      1.0  0.10836  0.45029  0.99846  1.0000
  C   C356      1.0  0.31498  0.33310  0.45860  1.0000
  H   H284      1.0  0.00637  0.44600  0.15575  1.0000
  H   H285      1.0  0.46955  0.40744  0.24715  1.0000
  H   H286      1.0  0.42900  0.64643  0.00193  1.0000
  C   C357      1.0  0.48996  0.46402  0.45970  1.0000
  H   H287      1.0  0.02076  0.47615  0.12115  1.0000
  H   H288      1.0  0.01797  0.34448  0.17163  1.0000
  H   H289      1.0  0.09048  0.33069  0.22072  1.0000
  H   H290      1.0  0.47498  0.59684  0.34343  1.0000
  H   H291      1.0  0.01133  0.39820  0.15026  1.0000
  C   C358      1.0  0.48999  0.65895  0.32486  1.0000
  Fe  Fe26      1.0  0.29950  0.47738  0.49007  1.0000
  C   C359      1.0  0.48072  0.64637  0.04373  1.0000
  C   C360      1.0  0.21874  0.32761  0.28190  1.0000
  C   C361      1.0  0.19822  0.63910  0.07136  1.0000
  H   H292      1.0  0.05808  0.33168  0.42716  1.0000
  C   C362      1.0  0.06984  0.33066  0.13252  1.0000
  Fe  Fe27      1.0  0.10472  0.52666  0.99429  1.0000
  H   H293      1.0  0.05766  0.62997  0.99550  1.0000
  C   C363      1.0  0.01509  0.33638  0.46080  1.0000
  C   C364      1.0  0.21910  0.65513  0.07880  1.0000
  C   C365      1.0  0.20462  0.65193  0.02636  1.0000
  C   C366      1.0  0.37709  0.65829  0.01998  1.0000
  C   C367      1.0  0.33532  0.65767  0.99755  1.0000
  H   H294      1.0  0.31705  0.64791  0.99306  1.0000
  C   C368      1.0  0.23720  0.61407  0.63078  1.0000
  Fe  Fe28      1.0  0.18762  0.57764  0.71857  1.0000
  S   S52       1.0  0.17382  0.60412  0.68630  1.0000
  S   S53       1.0  0.22410  0.58384  0.74280  1.0000
  Fe  Fe29      1.0  0.14295  0.53891  0.71086  1.0000
  S   S54       1.0  0.12663  0.56221  0.67787  1.0000
  S   S55       1.0  0.12142  0.50228  0.72339  1.0000
  Fe  Fe30      1.0  0.16799  0.56662  0.66400  1.0000
  S   S56       1.0  0.17800  0.56415  0.62076  1.0000
  Fe  Fe31      1.0  0.13374  0.59698  0.70302  1.0000
  S   S57       1.0  0.09793  0.62105  0.71185  1.0000
  S   S58       1.0  0.18415  0.54059  0.69531  1.0000
  S   S59       1.0  0.14810  0.57336  0.73698  1.0000
  C   C369      1.0  0.99723  0.46564  0.72274  1.0000
  H   H295      1.0  0.00550  0.58617  0.79564  1.0000
  S   S60       1.0  0.01519  0.52419  0.78346  1.0000
  C   C370      1.0  0.18999  0.59631  0.95677  1.0000
  H   H296      1.0  0.04958  0.36851  0.51992  1.0000
  S   S61       1.0  0.23804  0.62729  0.90212  1.0000
  Fe  Fe32      1.0  0.26097  0.46235  0.53364  1.0000
  C   C371      1.0  0.03354  0.44416  0.67364  1.0000
  S   S62       1.0  0.24262  0.46910  0.57366  1.0000
  Fe  Fe33      1.0  0.29824  0.42166  0.51047  1.0000
  H   H297      1.0  0.03105  0.64510  0.89792  1.0000
  S   S63       1.0  0.31933  0.38378  0.51848  1.0000
  H   H298      1.0  0.03018  0.33839  0.76426  1.0000
  C   C372      1.0  0.04075  0.34115  0.58002  1.0000
  C   C373      1.0  0.00214  0.59395  0.81497  1.0000
  C   C374      1.0  0.01225  0.57680  0.92876  1.0000
  S   S64       1.0  0.30493  0.45999  0.53007  1.0000
  S   S65       1.0  0.25482  0.42232  0.51667  1.0000
  S   S66       1.0  0.44327  0.38214  0.52500  1.0000
  C   C375      1.0  0.35370  0.38360  0.52125  1.0000
  C   C376      1.0  0.36732  0.40376  0.53373  1.0000
  C   C377      1.0  0.39482  0.40289  0.53552  1.0000
  C   C378      1.0  0.40877  0.38227  0.52421  1.0000
  H   H299      1.0  0.09999  0.41105  0.68932  1.0000
  C   C379      1.0  0.26777  0.62109  0.96822  1.0000
  H   H300      1.0  0.35664  0.41993  0.54200  1.0000
  C   C380      1.0  0.36765  0.36267  0.51064  1.0000
  H   H301      1.0  0.13864  0.64294  0.87360  1.0000
  H   H302      1.0  0.10267  0.35439  0.55900  1.0000
  C   C381      1.0  0.08329  0.63500  0.63764  1.0000
  C   C382      1.0  0.01965  0.49164  0.92089  1.0000
  C   C383      1.0  0.04133  0.47793  0.91161  1.0000
  C   C384      1.0  0.06532  0.47930  0.92507  1.0000
  C   C385      1.0  0.06786  0.49481  0.94745  1.0000
  C   C386      1.0  0.04644  0.50928  0.95611  1.0000
  C   C387      1.0  0.02232  0.50737  0.94306  1.0000
  H   H303      1.0  0.03942  0.46574  0.89454  1.0000
  H   H304      1.0  0.04829  0.52132  0.97328  1.0000
  C   C388      1.0  0.11133  0.63725  0.79179  1.0000
  H   H305      1.0  0.08895  0.65463  0.91469  1.0000
  H   H306      1.0  0.08186  0.46808  0.91828  1.0000
  H   H307      1.0  0.04935  0.51141  0.60025  1.0000
  C   C389      1.0  0.02593  0.40107  0.78514  1.0000
  H   H308      1.0  0.00024  0.54616  0.54186  1.0000
  C   C390      1.0  0.09199  0.50810  0.74044  1.0000
  C   C391      1.0  0.08376  0.53359  0.74536  1.0000
  C   C392      1.0  0.06042  0.53806  0.75902  1.0000
  C   C393      1.0  0.04488  0.51717  0.76754  1.0000
  C   C394      1.0  0.05310  0.49159  0.76288  1.0000
  C   C395      1.0  0.07661  0.48707  0.74927  1.0000
  H   H309      1.0  0.09530  0.54994  0.73854  1.0000
  H   H310      1.0  0.05436  0.55786  0.76298  1.0000
  H   H311      1.0  0.04137  0.47537  0.76970  1.0000
  H   H312      1.0  0.08293  0.46730  0.74560  1.0000
  C   C396      1.0  0.19477  0.53704  0.60744  1.0000
  C   C397      1.0  0.20178  0.53725  0.58093  1.0000
  C   C398      1.0  0.21601  0.51640  0.56999  1.0000
  C   C399      1.0  0.22324  0.49513  0.58553  1.0000
  C   C400      1.0  0.21534  0.49454  0.61176  1.0000
  C   C401      1.0  0.20142  0.51546  0.62275  1.0000
  H   H313      1.0  0.19650  0.55376  0.56886  1.0000
  H   H314      1.0  0.22174  0.51697  0.54971  1.0000
  H   H315      1.0  0.22014  0.47779  0.62367  1.0000
  H   H316      1.0  0.19580  0.51483  0.64304  1.0000
  C   C402      1.0  0.21294  0.62338  0.92503  1.0000
  C   C403      1.0  0.42581  0.49618  0.55524  1.0000
  C   C404      1.0  0.20964  0.59939  0.93783  1.0000
  H   H317      1.0  0.40531  0.41847  0.54512  1.0000
  H   H318      1.0  0.22261  0.58339  0.93338  1.0000
  C   C405      1.0  0.31582  0.65144  0.72485  1.0000
  H   H319      1.0  0.05054  0.60952  0.64362  1.0000
  C   C406      1.0  0.24899  0.61886  0.77467  1.0000
  C   C407      1.0  0.22806  0.61466  0.75745  1.0000
  C   C408      1.0  0.01649  0.64156  0.72716  1.0000
  C   C409      1.0  0.02529  0.62713  0.94614  1.0000
  H   H320      1.0  0.26227  0.60306  0.77917  1.0000
  C   C410      1.0  0.99941  0.62098  0.93934  1.0000
  C   C411      1.0  0.17706  0.64123  0.94995  1.0000
  H   H321      1.0  0.23144  0.57340  0.64009  1.0000
  C   C412      1.0  0.01557  0.59689  0.86012  1.0000
  H   H322      1.0  0.41424  0.48861  0.57128  1.0000
  S   S67       1.0  0.09754  0.49471  0.96495  1.0000
  C   C413      1.0  0.04462  0.60776  0.94416  1.0000
  C   C414      1.0  0.17649  0.64386  0.81913  1.0000
  S   S68       1.0  0.00629  0.46069  0.83215  1.0000
  H   H323      1.0  0.08604  0.51824  0.66898  1.0000
  H   H324      1.0  0.09695  0.60712  0.76627  1.0000
  C   C415      1.0  0.15453  0.63859  0.86053  1.0000
  H   H325      1.0  0.03562  0.36496  0.80424  1.0000
  H   H326      1.0  0.03333  0.53097  0.88413  1.0000
  C   C416      1.0  0.04972  0.51847  0.84769  1.0000
  C   C417      1.0  0.28506  0.54488  0.55263  1.0000
  C   C418      1.0  0.13244  0.49389  0.62854  1.0000
  H   H327      1.0  0.05178  0.60856  0.78362  1.0000
  C   C419      1.0  0.01595  0.65599  0.75021  1.0000
  H   H328      1.0  0.00971  0.59005  0.55982  1.0000
  H   H329      1.0  0.14901  0.48071  0.62882  1.0000
  C   C420      1.0  0.08136  0.42007  0.68475  1.0000
  C   C421      1.0  0.01203  0.53603  0.68345  1.0000
  C   C422      1.0  0.19568  0.62617  0.82717  1.0000
  C   C423      1.0  0.19449  0.61494  0.85194  1.0000
  C   C424      1.0  0.17381  0.62103  0.86855  1.0000
  H   H330      1.0  0.12231  0.48700  0.66874  1.0000
  H   H331      1.0  0.27909  0.55436  0.53467  1.0000
  C   C425      1.0  0.03798  0.58258  0.93600  1.0000
  C   C426      1.0  0.06271  0.35574  0.57258  1.0000
  C   C427      1.0  0.05592  0.56854  0.68136  1.0000
  C   C428      1.0  0.45621  0.52811  0.53788  1.0000
  C   C429      1.0  0.09221  0.62032  0.78204  1.0000
  H   H332      1.0  0.46779  0.52282  0.49795  1.0000
  H   H333      1.0  0.10265  0.53766  0.58859  1.0000
  C   C430      1.0  0.03453  0.42390  0.69215  1.0000
  H   H334      1.0  0.26879  0.64647  0.79970  1.0000
  H   H335      1.0  0.21146  0.62104  0.81418  1.0000
  H   H336      1.0  0.20962  0.60155  0.85826  1.0000
  H   H337      1.0  0.17293  0.61237  0.88777  1.0000
  C   C431      1.0  0.99462  0.61367  0.86500  1.0000
  H   H338      1.0  0.06481  0.61188  0.94893  1.0000
  Fe  Fe34      1.0  0.46092  0.35688  0.49367  1.0000
  H   H339      1.0  0.05273  0.56747  0.93563  1.0000
  H   H340      1.0  0.35718  0.34712  0.50094  1.0000
  C   C432      1.0  0.99885  0.64903  0.77023  1.0000
  H   H341      1.0  0.03527  0.57366  0.83118  1.0000
  H   H342      1.0  0.02079  0.52644  0.64372  1.0000
  H   H343      1.0  0.07504  0.54962  0.90027  1.0000
  C   C433      1.0  0.25578  0.63701  0.98678  1.0000
  C   C434      1.0  0.17395  0.61740  0.96306  1.0000
  C   C435      1.0  0.09673  0.54048  0.86534  1.0000
  C   C436      1.0  0.09571  0.52793  0.84108  1.0000
  P   P13       1.0  0.12592  0.55728  0.87588  1.0000
  C   C437      1.0  0.11477  0.58835  0.88841  1.0000
  C   C438      1.0  0.14352  0.53867  0.90016  1.0000
  C   C439      1.0  0.16781  0.54770  0.90940  1.0000
  C   C440      1.0  0.18224  0.53282  0.92719  1.0000
  C   C441      1.0  0.17273  0.50867  0.93562  1.0000
  C   C442      1.0  0.14891  0.49930  0.92606  1.0000
  C   C443      1.0  0.13420  0.51429  0.90859  1.0000
  C   C444      1.0  0.09560  0.60240  0.87461  1.0000
  C   C445      1.0  0.08631  0.62611  0.88415  1.0000
  C   C446      1.0  0.09586  0.63603  0.90759  1.0000
  C   C447      1.0  0.11417  0.62181  0.92197  1.0000
  C   C448      1.0  0.12351  0.59798  0.91256  1.0000
  C   C449      1.0  0.14694  0.56178  0.84776  1.0000
  C   C450      1.0  0.16901  0.54576  0.84429  1.0000
  C   C451      1.0  0.18450  0.54819  0.82196  1.0000
  C   C452      1.0  0.17785  0.56618  0.80263  1.0000
  C   C453      1.0  0.15569  0.58173  0.80559  1.0000
  C   C454      1.0  0.14029  0.57964  0.82802  1.0000
  H   H344      1.0  0.11277  0.52682  0.82862  1.0000
  H   H345      1.0  0.17568  0.56620  0.90274  1.0000
  H   H346      1.0  0.20079  0.53999  0.93448  1.0000
  H   H347      1.0  0.18371  0.49726  0.94966  1.0000
  H   H348      1.0  0.14146  0.48062  0.93269  1.0000
  H   H349      1.0  0.11560  0.50670  0.90184  1.0000
  H   H350      1.0  0.08754  0.59495  0.85657  1.0000
  P   P14       1.0  0.00515  0.41364  0.70894  1.0000
  C   C455      1.0  0.04849  0.55453  0.65907  1.0000
  H   H351      1.0  0.12101  0.62915  0.94058  1.0000
  H   H352      1.0  0.13732  0.58729  0.92443  1.0000
  H   H353      1.0  0.17418  0.53102  0.85850  1.0000
  H   H354      1.0  0.20156  0.53593  0.81945  1.0000
  H   H355      1.0  0.18983  0.56804  0.78529  1.0000
  H   H356      1.0  0.15065  0.59558  0.79049  1.0000
  H   H357      1.0  0.12325  0.59189  0.82965  1.0000
  H   H358      1.0  0.07148  0.50737  0.81362  1.0000
  H   H359      1.0  0.31824  0.52599  0.53511  1.0000
  C   C456      1.0  0.11018  0.59086  0.62053  1.0000
  H   H360      1.0  0.29109  0.61990  0.93325  1.0000
  H   H361      1.0  0.41377  0.46585  0.52915  1.0000
  C   C457      1.0  0.07060  0.61080  0.63695  1.0000
  H   H362      1.0  0.23308  0.61140  0.61023  1.0000
  C   C458      1.0  0.02660  0.53793  0.66039  1.0000
  H   H363      1.0  0.07315  0.58082  0.68133  1.0000
  H   H364      1.0  0.09788  0.44637  0.65645  1.0000
  C   C459      1.0  0.05078  0.53024  0.87215  1.0000
  H   H365      1.0  0.01717  0.35933  0.72291  1.0000
  H   H366      1.0  0.12147  0.57417  0.61454  1.0000
  H   H367      1.0  0.04693  0.57837  0.72096  1.0000
  C   C460      1.0  0.07432  0.54085  0.88115  1.0000
  C   C461      1.0  0.24595  0.62080  0.68411  1.0000
  C   C462      1.0  0.07225  0.51691  0.83238  1.0000
  C   C463      1.0  0.42545  0.48340  0.53120  1.0000
  C   C464      1.0  0.27049  0.54831  0.57539  1.0000
  C   C465      1.0  0.25035  0.51056  0.68089  1.0000
  C   C466      1.0  0.25931  0.53020  0.69748  1.0000
  C   C467      1.0  0.28365  0.54190  0.69301  1.0000
  C   C468      1.0  0.29923  0.53374  0.67212  1.0000
  C   C469      1.0  0.29054  0.51363  0.65569  1.0000
  C   C470      1.0  0.26587  0.50234  0.66006  1.0000
  P   P15       1.0  0.30992  0.50278  0.62835  1.0000
  C   C471      1.0  0.34402  0.51115  0.63302  1.0000
  C   C472      1.0  0.30632  0.46770  0.62626  1.0000
  C   C473      1.0  0.30768  0.45235  0.64897  1.0000
  C   C474      1.0  0.30495  0.42521  0.64753  1.0000
  C   C475      1.0  0.30063  0.41324  0.62345  1.0000
  C   C476      1.0  0.29892  0.42840  0.60086  1.0000
  C   C477      1.0  0.30167  0.45550  0.60229  1.0000
  C   C478      1.0  0.36232  0.49246  0.64133  1.0000
  C   C479      1.0  0.38870  0.49927  0.64431  1.0000
  C   C480      1.0  0.39703  0.52472  0.63896  1.0000
  C   C481      1.0  0.37899  0.54339  0.63056  1.0000
  C   C482      1.0  0.35261  0.53666  0.62756  1.0000
  C   C483      1.0  0.29961  0.51893  0.59869  1.0000
  H   H368      1.0  0.26538  0.53752  0.61541  1.0000
  S   S69       1.0  0.25601  0.48295  0.49510  1.0000
  H   H369      1.0  0.25323  0.56055  0.57511  1.0000
  S   S70       1.0  0.09211  0.56786  0.98652  1.0000
  C   C484      1.0  0.31457  0.51617  0.57589  1.0000
  H   H370      1.0  0.23128  0.50178  0.68408  1.0000
  H   H371      1.0  0.24722  0.53662  0.71364  1.0000
  H   H372      1.0  0.29029  0.55741  0.70574  1.0000
  H   H373      1.0  0.31793  0.54312  0.66900  1.0000
  H   H374      1.0  0.25865  0.48713  0.64733  1.0000
  H   H375      1.0  0.31082  0.46137  0.66778  1.0000
  H   H376      1.0  0.30595  0.41346  0.66508  1.0000
  H   H377      1.0  0.29829  0.39226  0.62225  1.0000
  H   H378      1.0  0.29497  0.41926  0.58220  1.0000
  H   H379      1.0  0.29937  0.46679  0.58471  1.0000
  H   H380      1.0  0.35649  0.47258  0.64535  1.0000
  H   H381      1.0  0.40270  0.48473  0.65071  1.0000
  H   H382      1.0  0.41747  0.52995  0.64131  1.0000
  H   H383      1.0  0.38542  0.56311  0.62631  1.0000
  H   H384      1.0  0.33887  0.55134  0.62092  1.0000
  H   H385      1.0  0.13882  0.50578  0.58879  1.0000
  C   C485      1.0  0.25268  0.64339  0.78636  1.0000
  H   H386      1.0  0.02294  0.35116  0.58552  1.0000
  C   C486      1.0  0.01430  0.39814  0.73931  1.0000
  H   H387      1.0  0.33170  0.50376  0.57573  1.0000
  H   H388      1.0  0.02881  0.59146  0.87572  1.0000
  H   H389      1.0  0.44135  0.52847  0.57718  1.0000
  C   C487      1.0  0.21097  0.63517  0.75178  1.0000
  H   H390      1.0  0.05563  0.46818  0.64690  1.0000
  C   C488      1.0  0.11737  0.49738  0.65096  1.0000
  C   C489      1.0  0.45587  0.51537  0.51381  1.0000
  C   C490      1.0  0.99938  0.62046  0.72394  1.0000
  H   H391      1.0  0.23867  0.57962  0.68740  1.0000
  H   H392      1.0  0.13070  0.63713  0.78321  1.0000
  C   C491      1.0  0.24736  0.64247  0.66735  1.0000
  H   H393      1.0  0.16462  0.65758  0.95477  1.0000
  C   C492      1.0  0.49217  0.35318  0.57013  1.0000
  H   H394      1.0  0.19456  0.63196  0.73887  1.0000
  H   H395      1.0  0.02168  0.33367  0.67782  1.0000
  H   H396      1.0  0.04062  0.63951  0.81902  1.0000
  H   H397      1.0  0.00556  0.51802  0.95020  1.0000
  C   C493      1.0  0.44110  0.51858  0.55855  1.0000
  P   P16       1.0  0.06791  0.55670  0.62965  1.0000
  C   C494      1.0  0.06051  0.63854  0.81178  1.0000
  C   C495      1.0  0.03502  0.57562  0.59021  1.0000
  H   H398      1.0  0.07171  0.63678  0.87329  1.0000
  C   C496      1.0  0.08399  0.58837  0.62858  1.0000
  C   C497      1.0  0.44017  0.49318  0.51019  1.0000
  C   C498      1.0  0.05634  0.45228  0.66085  1.0000
  C   C499      1.0  0.10621  0.52613  0.60597  1.0000
  C   C500      1.0  0.19623  0.64408  0.93066  1.0000
  H   H399      1.0  0.02788  0.41252  0.80275  1.0000
  C   C501      1.0  0.04089  0.52874  0.59157  1.0000
  C   C502      1.0  0.09672  0.51526  0.65099  1.0000
  H   H400      1.0  0.33156  0.63742  0.72329  1.0000
  C   C503      1.0  0.09163  0.53052  0.62876  1.0000
  C   C504      1.0  0.12278  0.61508  0.62118  1.0000
  C   C505      1.0  0.09762  0.65531  0.71313  1.0000
  H   H401      1.0  0.01400  0.43374  0.76212  1.0000
  C   C506      1.0  0.06674  0.62110  0.79186  1.0000
  C   C507      1.0  0.07985  0.65487  0.82218  1.0000
  C   C508      1.0  0.04650  0.55355  0.60177  1.0000
  H   H402      1.0  0.18774  0.57798  0.96704  1.0000
  C   C509      1.0  0.10936  0.63714  0.62972  1.0000
  H   H403      1.0  0.45950  0.43432  0.51094  1.0000
  C   C510      1.0  0.27750  0.53517  0.59830  1.0000
  C   C511      1.0  0.12667  0.50804  0.60596  1.0000
  H   H404      1.0  0.24848  0.62310  0.70495  1.0000
  C   C512      1.0  0.08569  0.34311  0.56498  1.0000
  C   C513      1.0  0.30713  0.52886  0.55289  1.0000
  H   H405      1.0  0.03144  0.51055  0.84059  1.0000
  C   C514      1.0  0.23622  0.59259  0.64758  1.0000
  C   C515      1.0  0.24049  0.59602  0.67422  1.0000
  H   H406      1.0  0.00818  0.54917  0.72329  1.0000
  C   C516      1.0  0.03967  0.35937  0.50367  1.0000
  C   C517      1.0  0.39510  0.36221  0.51173  1.0000
  C   C518      1.0  0.08020  0.44014  0.66632  1.0000
  C   C519      1.0  0.03021  0.37419  0.78600  1.0000
  C   C520      1.0  0.28275  0.63218  0.94825  1.0000
  H   H407      1.0  0.06010  0.39648  0.71196  1.0000
  H   H408      1.0  0.14321  0.61650  0.61561  1.0000
  H   H409      1.0  0.01534  0.39274  0.49567  1.0000
  C   C521      1.0  0.05863  0.41192  0.69760  1.0000
  H   H410      1.0  0.00426  0.40322  0.65220  1.0000
  H   H411      1.0  0.06192  0.37687  0.57255  1.0000
  H   H412      1.0  0.01519  0.45377  0.66925  1.0000
  H   H413      1.0  0.11928  0.65583  0.63067  1.0000
  C   C522      1.0  0.01926  0.58694  0.83509  1.0000
  C   C523      1.0  0.10548  0.65429  0.81231  1.0000
  H   H414      1.0  0.29951  0.64195  0.68751  1.0000
  C   C524      1.0  0.04656  0.33411  0.49613  1.0000
  C   C525      1.0  0.04109  0.56702  0.70412  1.0000
  H   H415      1.0  0.20272  0.65089  0.69534  1.0000
  C   C526      1.0  0.01924  0.55066  0.70530  1.0000
  C   C527      1.0  0.01927  0.37119  0.74018  1.0000
  C   C528      1.0  0.07130  0.64522  0.98985  1.0000
  H   H416      1.0  0.03884  0.59497  0.59762  1.0000
  C   C529      1.0  0.02696  0.35925  0.76350  1.0000
  C   C530      1.0  0.24268  0.63897  0.64058  1.0000
  H   H417      1.0  0.01833  0.46712  0.72437  1.0000
  C   C531      1.0  0.01781  0.41301  0.76199  1.0000
  H   H418      1.0  0.00702  0.55735  0.92233  1.0000
  H   H419      1.0  0.24290  0.65533  0.62726  1.0000
  H   H420      1.0  0.02016  0.50694  0.56218  1.0000
  H   H421      1.0  0.26474  0.60017  0.96877  1.0000
  C   C532      1.0  0.01840  0.57291  0.56870  1.0000
  H   H422      1.0  0.45855  0.33398  0.55348  1.0000
  C   C533      1.0  0.01306  0.54819  0.55859  1.0000
  H   H423      1.0  0.03018  0.64679  0.71184  1.0000
  C   C534      1.0  0.02428  0.52611  0.57004  1.0000
  H   H424      1.0  0.46823  0.54536  0.54047  1.0000
  H   H425      1.0  0.07315  0.65202  0.64499  1.0000
  H   H426      1.0  0.48178  0.37132  0.57326  1.0000
  H   H427      1.0  0.07174  0.65547  0.74607  1.0000
  C   C535      1.0  0.47900  0.33212  0.55888  1.0000
  H   H428      1.0  0.03258  0.33022  0.63130  1.0000
  S   S71       1.0  0.15087  0.61556  0.98822  1.0000
  H   H429      1.0  0.17757  0.65204  0.79973  1.0000
  H   H430      1.0  0.99982  0.60932  0.70606  1.0000
  H   H431      1.0  0.40568  0.34647  0.50267  1.0000
  C   C536      1.0  0.47414  0.43843  0.49620  1.0000
  C   C537      1.0  0.15620  0.65088  0.83611  1.0000
  C   C538      1.0  0.29753  0.65398  0.70470  1.0000
  H   H432      1.0  0.99518  0.52320  0.68444  1.0000
  Fe  Fe35      1.0  0.41567  0.86756  0.02578  1.0000
  S   S72       1.0  0.45441  0.85019  0.03628  1.0000
  S   S73       1.0  0.40813  0.91010  0.03431  1.0000
  H   H433      1.0  0.37353  0.78159  0.04690  1.0000
  S   S74       1.0  0.43136  0.79461  0.01393  1.0000
  C   C539      1.0  0.38663  0.75807  0.07916  1.0000
  Fe  Fe36      1.0  0.43094  0.81651  0.05163  1.0000
  S   S75       1.0  0.43575  0.80119  0.09260  1.0000
  P   P17       1.0  0.48231  0.83406  0.17332  1.0000
  S   S76       1.0  0.39225  0.83541  0.04375  1.0000
  C   C540      1.0  0.46757  0.68451  0.23496  1.0000
  H   H434      1.0  0.40845  0.76533  0.34847  1.0000
  H   H435      1.0  0.41324  0.69185  0.27272  1.0000
  C   C541      1.0  0.42347  0.75584  0.31044  1.0000
  C   C542      1.0  0.49098  0.73346  0.11093  1.0000
  H   H436      1.0  0.32832  0.69759  0.05334  1.0000
  P   P18       1.0  0.46843  0.69355  0.28864  1.0000
  H   H437      1.0  0.48947  0.74740  0.28549  1.0000
  H   H438      1.0  0.44244  0.98057  0.08930  1.0000
  C   C543      1.0  0.45294  0.94282  0.10455  1.0000
  C   C544      1.0  0.45139  0.91582  0.10052  1.0000
  C   C545      1.0  0.43793  0.90570  0.07893  1.0000
  C   C546      1.0  0.42605  0.92253  0.06099  1.0000
  C   C547      1.0  0.42797  0.94958  0.06470  1.0000
  C   C548      1.0  0.44144  0.95973  0.08639  1.0000
  H   H439      1.0  0.46021  0.90261  0.11442  1.0000
  H   H440      1.0  0.43612  0.88484  0.07664  1.0000
  H   H441      1.0  0.41878  0.96270  0.05095  1.0000
  C   C549      1.0  0.39810  0.73453  0.08673  1.0000
  S   S77       1.0  0.46824  0.95450  0.13311  1.0000
  C   C550      1.0  0.31255  0.70714  0.04292  1.0000
  Fe  Fe37      1.0  0.45137  0.83036  0.99755  1.0000
  C   C551      1.0  0.43815  0.73818  0.29578  1.0000
  P   P19       1.0  0.24342  0.68567  0.00870  1.0000
  C   C552      1.0  0.45572  0.85616  0.16561  1.0000
  H   H442      1.0  0.25804  0.74133  0.00283  1.0000
  H   H443      1.0  0.45399  0.69533  0.34431  1.0000
  C   C553      1.0  0.44526  0.73584  0.99246  1.0000
  H   H444      1.0  0.40141  0.73052  0.10721  1.0000
  C   C554      1.0  0.38271  0.76348  0.05276  1.0000
  C   C555      1.0  0.21875  0.70542  0.99308  1.0000
  C   C556      1.0  0.40580  0.71647  0.06789  1.0000
  H   H445      1.0  0.00211  0.98504  0.49080  1.0000
  H   H446      1.0  0.45176  0.74074  0.01197  1.0000
  C   C557      1.0  0.20642  0.72552  0.00691  1.0000
  H   H447      1.0  0.38124  0.77238  0.09370  1.0000
  H   H448      1.0  0.38787  0.75045  0.01345  1.0000
  C   C558      1.0  0.11306  0.66668  0.99637  1.0000
  H   H449      1.0  0.40225  0.86034  0.12588  1.0000
  H   H450      1.0  0.48870  0.84095  0.22982  1.0000
  C   C559      1.0  0.43620  0.89938  0.16747  1.0000
  C   C560      1.0  0.45550  0.75898  0.21593  1.0000
  H   H451      1.0  0.29657  0.76629  0.01749  1.0000
  H   H452      1.0  0.47076  0.88866  0.18835  1.0000
  H   H453      1.0  0.43683  0.91943  0.17416  1.0000
  C   C561      1.0  0.45559  0.88179  0.17532  1.0000
  C   C562      1.0  0.43701  0.77431  0.20294  1.0000
  C   C563      1.0  0.44466  0.79755  0.19065  1.0000
  H   H454      1.0  0.43629  0.82925  0.13956  1.0000
  C   C564      1.0  0.18736  0.74095  0.99475  1.0000
  H   H455      1.0  0.46930  0.93046  0.01022  1.0000
  C   C565      1.0  0.22611  0.66751  0.03355  1.0000
  H   H456      1.0  0.41407  0.69812  0.07425  1.0000
  Fe  Fe38      1.0  0.39378  0.81542  0.00472  1.0000
  H   H457      1.0  0.41867  0.67977  0.19014  1.0000
  C   C566      1.0  0.42807  0.68239  0.20890  1.0000
  P   P20       1.0  0.48138  0.98427  0.99431  1.0000
  H   H458      1.0  0.33233  0.85157  0.00943  1.0000
  C   C567      1.0  0.45715  0.77512  0.09906  1.0000
  C   C568      1.0  0.47846  0.74691  0.13099  1.0000
  H   H459      1.0  0.46675  0.76770  0.05895  1.0000
  H   H460      1.0  0.48163  0.74122  0.15107  1.0000
  H   H461      1.0  0.44093  0.74180  0.27515  1.0000
  C   C569      1.0  0.43608  0.84856  0.14800  1.0000
  C   C570      1.0  0.27263  0.73163  0.01469  1.0000
  H   H462      1.0  0.21175  0.72941  0.02697  1.0000
  H   H463      1.0  0.41678  0.76801  0.20199  1.0000
  H   H464      1.0  0.42998  0.80884  0.18059  1.0000
  C   C571      1.0  0.44936  0.71617  0.30773  1.0000
  C   C572      1.0  0.23293  0.66944  0.06000  1.0000
  H   H465      1.0  0.40239  0.90556  0.14315  1.0000
  H   H466      1.0  0.45664  0.70721  0.05307  1.0000
  H   H467      1.0  0.41498  0.77284  0.30111  1.0000
  P   P21       1.0  0.41302  0.69941  0.01662  1.0000
  C   C573      1.0  0.48922  0.79027  0.20478  1.0000
  C   C574      1.0  0.49204  0.83554  0.11945  1.0000
  C   C575      1.0  0.41678  0.89159  0.14993  1.0000
  C   C576      1.0  0.46989  0.76188  0.07898  1.0000
  C   C577      1.0  0.29464  0.74584  0.02265  1.0000
  H   H468      1.0  0.45153  0.77771  0.14050  1.0000
  C   C578      1.0  0.45265  0.68882  0.25747  1.0000
  H   H469      1.0  0.42803  0.72650  0.36984  1.0000
  H   H470      1.0  0.46705  0.67821  0.19347  1.0000
  C   C579      1.0  0.29053  0.69287  0.03507  1.0000
  C   C580      1.0  0.45532  0.68154  0.21076  1.0000
  C   C581      1.0  0.01140  0.67245  0.00163  1.0000
  H   H471      1.0  0.99438  0.68219  0.03873  1.0000
  C   C582      1.0  0.45780  0.68757  0.04549  1.0000
  C   C583      1.0  0.43086  0.72977  0.34915  1.0000
  C   C584      1.0  0.44561  0.71209  0.33456  1.0000
  C   C585      1.0  0.41981  0.75163  0.33711  1.0000
  C   C586      1.0  0.41674  0.86617  0.14018  1.0000
  H   H472      1.0  0.35201  0.89419  0.02161  1.0000
  C   C587      1.0  0.42521  0.68931  0.25551  1.0000
  H   H473      1.0  0.44972  0.74071  0.22490  1.0000
  C   C588      1.0  0.47103  0.80547  0.19100  1.0000
  H   H474      1.0  0.33172  0.74467  0.04243  1.0000
  H   H475      1.0  0.24866  0.68207  0.06630  1.0000
  H   H476      1.0  0.47892  0.85202  0.11829  1.0000
  H   H477      1.0  0.48243  0.97368  0.05076  1.0000
  C   C589      1.0  0.39095  0.74576  0.03384  1.0000
  C   C590      1.0  0.40313  0.72240  0.04124  1.0000
  C   C591      1.0  0.27018  0.70509  0.02125  1.0000
  C   C592      1.0  0.31456  0.73362  0.03671  1.0000
  C   C593      1.0  0.46136  0.76750  0.12499  1.0000
  H   H478      1.0  0.02713  0.66172  0.01067  1.0000
  C   C594      1.0  0.38296  0.68262  0.00875  1.0000
  H   H479      1.0  0.49220  0.67862  0.06816  1.0000
  H   H480      1.0  0.28959  0.67216  0.03930  1.0000
  C   C595      1.0  0.47087  0.66259  0.30546  1.0000
  C   C596      1.0  0.35116  0.88836  0.00131  1.0000
  H   H481      1.0  0.17825  0.75680  0.00526  1.0000
  H   H482      1.0  0.39183  0.68634  0.22992  1.0000
  C   C597      1.0  0.41299  0.68615  0.23130  1.0000
  C   C598      1.0  0.43914  0.67835  0.02760  1.0000
  S   S78       1.0  0.35512  0.79571  0.99337  1.0000
  H   H483      1.0  0.13167  0.66786  0.00650  1.0000
  C   C599      1.0  0.48157  0.76713  0.21708  1.0000
  C   C600      1.0  0.48669  0.74100  0.08494  1.0000
  H   H484      1.0  0.48867  0.68301  0.23604  1.0000
  C   C601      1.0  0.47824  0.67150  0.05384  1.0000
  H   H485      1.0  0.42395  0.98999  0.00019  1.0000
  C   C602      1.0  0.34005  0.86442  0.99446  1.0000
  C   C603      1.0  0.45929  0.93465  0.99208  1.0000
  C   C604      1.0  0.36415  0.69493  0.99297  1.0000
  Fe  Fe39      1.0  0.24241  0.66852  0.88719  1.0000
  S   S79       1.0  0.27651  0.67639  0.86087  1.0000
  Fe  Fe40      1.0  0.22229  0.72435  0.88227  1.0000
  S   S80       1.0  0.25542  0.73648  0.85613  1.0000
  S   S81       1.0  0.19148  0.75250  0.89647  1.0000
  Fe  Fe41      1.0  0.24742  0.69807  0.83638  1.0000
  S   S82       1.0  0.24146  0.69553  0.79284  1.0000
  Fe  Fe42      1.0  0.28131  0.71369  0.88367  1.0000
  S   S83       1.0  0.32288  0.72386  0.89705  1.0000
  S   S84       1.0  0.21285  0.68744  0.86114  1.0000
  S   S85       1.0  0.24872  0.70442  0.91140  1.0000
  Fe  Fe43      1.0  0.06803  0.78393  0.80036  1.0000
  S   S86       1.0  0.06384  0.74274  0.78678  1.0000
  S   S87       1.0  0.09283  0.79699  0.83474  1.0000
  Fe  Fe44      1.0  0.02601  0.80462  0.76177  1.0000
  S   S88       1.0  0.01870  0.76443  0.74545  1.0000
  C   C605      1.0  0.12578  0.70741  0.78362  1.0000
  Fe  Fe45      1.0  0.02057  0.75044  0.78726  1.0000
  H   H486      1.0  0.08005  0.69538  0.94677  1.0000
  Fe  Fe46      1.0  0.06251  0.75986  0.74642  1.0000
  S   S89       1.0  0.08605  0.74377  0.71259  1.0000
  S   S90       1.0  0.02455  0.79075  0.80366  1.0000
  S   S91       1.0  0.07000  0.80089  0.75997  1.0000
  C   C606      1.0  0.21531  0.65998  0.76261  1.0000
  C   C607      1.0  0.19624  0.72546  0.70489  1.0000
  C   C608      1.0  0.30476  0.83764  0.91660  1.0000
  H   H487      1.0  0.11155  0.89576  0.66445  1.0000
  C   C609      1.0  0.21093  0.70024  0.96744  1.0000
  C   C610      1.0  0.03225  0.70760  0.87627  1.0000
  C   C611      1.0  0.08174  0.66727  0.73176  1.0000
  H   H488      1.0  0.42352  0.71810  0.92225  1.0000
  C   C612      1.0  0.28473  0.73001  0.61706  1.0000
  H   H489      1.0  0.29206  0.74316  0.60216  1.0000
  H   H490      1.0  0.24441  0.73415  0.60538  1.0000
  C   C613      1.0  0.09077  0.70978  0.71304  1.0000
  C   C614      1.0  0.07836  0.69438  0.73180  1.0000
  H   H491      1.0  0.99899  0.66029  0.78810  1.0000
  C   C615      1.0  0.06531  0.66263  0.96949  1.0000
  H   H492      1.0  0.18635  0.71173  0.93532  1.0000
  C   C616      1.0  0.10697  0.69791  0.69445  1.0000
  H   H493      1.0  0.06574  0.70333  0.74606  1.0000
  C   C617      1.0  0.42613  0.71654  0.98871  1.0000
  C   C618      1.0  0.25790  0.72494  0.61887  1.0000
  H   H494      1.0  0.11660  0.70980  0.67985  1.0000
  H   H495      1.0  0.03154  0.71868  0.85823  1.0000
  C   C619      1.0  0.36583  0.76296  0.95145  1.0000
  C   C620      1.0  0.35816  0.74708  0.93036  1.0000
  C   C621      1.0  0.33151  0.74288  0.92464  1.0000
  C   C622      1.0  0.31259  0.75440  0.94050  1.0000
  H   H496      1.0  0.38637  0.76598  0.95568  1.0000
  H   H497      1.0  0.37293  0.73817  0.91823  1.0000
  H   H498      1.0  0.29203  0.75142  0.93630  1.0000
  C   C623      1.0  0.12136  0.78403  0.84965  1.0000
  C   C624      1.0  0.13749  0.76503  0.83824  1.0000
  C   C625      1.0  0.15965  0.75546  0.85194  1.0000
  C   C626      1.0  0.16544  0.76467  0.87708  1.0000
  C   C627      1.0  0.14940  0.78374  0.88808  1.0000
  C   C628      1.0  0.12774  0.79344  0.87444  1.0000
  H   H499      1.0  0.13280  0.75767  0.81908  1.0000
  H   H500      1.0  0.17197  0.74075  0.84337  1.0000
  H   H501      1.0  0.15369  0.79106  0.90737  1.0000
  H   H502      1.0  0.11558  0.80818  0.88336  1.0000
  H   H503      1.0  0.15644  0.71698  0.71625  1.0000
  H   H504      1.0  0.02799  0.88787  0.68069  1.0000
  H   H505      1.0  0.20236  0.67595  0.75778  1.0000
  C   C629      1.0  0.35086  0.87242  0.94902  1.0000
  C   C630      1.0  0.28632  0.81861  0.90980  1.0000
  C   C631      1.0  0.29377  0.79733  0.89460  1.0000
  H   H506      1.0  0.29127  0.69629  0.76686  1.0000
  C   C632      1.0  0.33814  0.81405  0.89289  1.0000
  C   C633      1.0  0.12070  0.69475  0.85246  1.0000
  C   C634      1.0  0.01187  0.91234  0.65007  1.0000
  C   C635      1.0  0.00933  0.67449  0.97439  1.0000
  H   H507      1.0  0.10562  0.70094  0.78280  1.0000
  C   C636      1.0  0.13540  0.69711  0.87555  1.0000
  H   H508      1.0  0.11996  0.73701  0.75437  1.0000
  H   H509      1.0  0.15364  0.68681  0.87814  1.0000
  C   C637      1.0  0.43949  0.83151  0.91812  1.0000
  C   C638      1.0  0.41925  0.81584  0.92775  1.0000
  C   C639      1.0  0.39334  0.82450  0.92642  1.0000
  H   H510      1.0  0.13947  0.71657  0.91246  1.0000
  C   C640      1.0  0.22006  0.71504  0.69644  1.0000
  C   C641      1.0  0.07103  0.95372  0.69118  1.0000
  C   C642      1.0  0.03465  0.70634  0.92338  1.0000
  H   H511      1.0  0.36121  0.90033  0.82855  1.0000
  H   H512      1.0  0.02799  0.93186  0.71856  1.0000
  H   H513      1.0  0.45587  0.75362  0.92935  1.0000
  H   H514      1.0  0.06656  0.90289  0.64866  1.0000
  H   H515      1.0  0.16597  0.74836  0.95911  1.0000
  H   H516      1.0  0.25861  0.70050  0.73204  1.0000
  H   H517      1.0  0.26619  0.82029  0.91626  1.0000
  H   H518      1.0  0.27957  0.78240  0.88956  1.0000
  H   H519      1.0  0.30540  0.78001  0.97292  1.0000
  C   C643      1.0  0.40790  0.86453  0.90575  1.0000
  H   H520      1.0  0.02534  0.95876  0.52380  1.0000
  C   C644      1.0  0.26569  0.69611  0.65581  1.0000
  H   H521      1.0  0.03405  0.74172  0.90047  1.0000
  H   H522      1.0  0.45967  0.82522  0.92000  1.0000
  H   H523      1.0  0.42369  0.79743  0.93715  1.0000
  H   H524      1.0  0.37796  0.81274  0.93499  1.0000
  C   C645      1.0  0.46125  0.95915  0.98007  1.0000
  H   H525      1.0  0.23645  0.72802  0.69295  1.0000
  H   H526      1.0  0.19425  0.74628  0.70780  1.0000
  C   C646      1.0  0.18025  0.73610  0.96888  1.0000
  H   H527      1.0  0.37129  0.90874  0.94156  1.0000
  H   H528      1.0  0.06006  0.97021  0.69850  1.0000
  C   C647      1.0  0.34866  0.88600  0.89231  1.0000
  C   C648      1.0  0.36211  0.90439  0.98212  1.0000
  C   C649      1.0  0.33998  0.85641  0.96843  1.0000
  C   C650      1.0  0.09201  0.72923  0.86787  1.0000
  C   C651      1.0  0.10580  0.73031  0.89133  1.0000
  C   C652      1.0  0.11048  0.67067  0.69454  1.0000
  C   C653      1.0  0.32025  0.77055  0.96134  1.0000
  C   C654      1.0  0.09940  0.71160  0.84854  1.0000
  C   C655      1.0  0.15956  0.73704  0.76846  1.0000
  C   C656      1.0  0.17735  0.72566  0.78570  1.0000
  C   C657      1.0  0.16921  0.70561  0.80236  1.0000
  H   H529      1.0  0.07648  0.74313  0.86404  1.0000
  H   H530      1.0  0.10067  0.74477  0.90578  1.0000
  C   C658      1.0  0.17495  0.70899  0.70978  1.0000
  H   H531      1.0  0.08911  0.71194  0.83009  1.0000
  H   H532      1.0  0.16557  0.75316  0.75615  1.0000
  H   H533      1.0  0.19732  0.73280  0.78673  1.0000
  H   H534      1.0  0.18303  0.69796  0.81630  1.0000
  C   C659      1.0  0.25861  0.66424  0.98534  1.0000
  C   C660      1.0  0.42960  0.72310  0.94187  1.0000
  H   H535      1.0  0.46401  0.87275  0.95098  1.0000
  P   P22       1.0  0.25304  0.67458  0.68078  1.0000
  H   H536      1.0  0.44964  0.86821  0.90026  1.0000
  H   H537      1.0  0.12257  0.66152  0.67994  1.0000
  H   H538      1.0  0.16136  0.66923  0.71111  1.0000
  C   C661      1.0  0.35358  0.90251  0.84812  1.0000
  C   C662      1.0  0.31962  0.79514  0.88605  1.0000
  H   H539      1.0  0.00617  0.84785  0.66562  1.0000
  H   H540      1.0  0.48242  0.91279  0.93046  1.0000
  H   H541      1.0  0.42126  0.94802  0.92795  1.0000
  C   C663      1.0  0.24839  0.70806  0.63815  1.0000
  C   C664      1.0  0.22263  0.68803  0.69262  1.0000
  C   C665      1.0  0.14333  0.69640  0.80156  1.0000
  C   C666      1.0  0.43183  0.94431  0.94586  1.0000
  C   C667      1.0  0.08374  0.68187  0.96252  1.0000
  P   P23       1.0  0.13145  0.67399  0.82604  1.0000
  C   C668      1.0  0.17756  0.68210  0.70651  1.0000
  C   C669      1.0  0.48490  0.87599  0.95090  1.0000
  C   C670      1.0  0.10757  0.68375  0.97584  1.0000
  H   H542      1.0  0.30644  0.69243  0.66717  1.0000
  C   C671      1.0  0.01111  0.94386  0.71422  1.0000
  H   H543      1.0  0.03536  0.71671  0.94173  1.0000
  C   C672      1.0  0.00347  0.86591  0.65490  1.0000
  H   H544      1.0  0.36960  0.86615  0.86157  1.0000
  H   H545      1.0  0.33476  0.93922  0.83988  1.0000
  H   H546      1.0  0.12187  0.69836  0.97021  1.0000
  C   C673      1.0  0.03105  0.68042  0.87566  1.0000
  C   C674      1.0  0.38743  0.84874  0.91512  1.0000
  H   H547      1.0  0.29858  0.85422  0.92806  1.0000
  C   C675      1.0  0.34686  0.77508  0.96685  1.0000
  C   C676      1.0  0.03386  0.72058  0.90011  1.0000
  H   H548      1.0  0.21961  0.68445  0.95664  1.0000
  S   S92       1.0  0.99550  0.71701  0.80242  1.0000
  C   C677      1.0  0.09671  0.94977  0.69980  1.0000
  C   C678      1.0  0.27468  0.68706  0.72939  1.0000
  C   C679      1.0  0.43044  0.91977  0.95774  1.0000
  C   C680      1.0  0.35842  0.88326  0.86690  1.0000
  H   H549      1.0  0.22752  0.70432  0.63928  1.0000
  C   C681      1.0  0.03208  0.66611  0.89887  1.0000
  C   C682      1.0  0.10024  0.91196  0.67191  1.0000
  C   C683      1.0  0.11124  0.92877  0.69033  1.0000
  C   C684      1.0  0.01591  0.88868  0.66333  1.0000
  H   H550      1.0  0.44809  0.98299  0.94773  1.0000
  C   C685      1.0  0.05954  0.93636  0.67340  1.0000
  C   C686      1.0  0.07459  0.91591  0.66320  1.0000
  P   P24       1.0  0.02658  0.94196  0.66206  1.0000
  C   C687      1.0  0.29321  0.68468  0.74934  1.0000
  C   C688      1.0  0.02913  0.96655  0.63689  1.0000
  H   H551      1.0  0.35797  0.81206  0.88581  1.0000
  C   C689      1.0  0.33097  0.83518  0.90872  1.0000
  H   H552      1.0  0.02871  0.67060  0.85715  1.0000
  H   H553      1.0  0.33227  0.83731  0.96374  1.0000
  C   C690      1.0  0.03765  0.95957  0.61185  1.0000
  C   C691      1.0  0.99439  0.91310  0.62895  1.0000
  C   C692      1.0  0.43381  0.85581  0.90706  1.0000
  C   C693      1.0  0.13384  0.72783  0.76737  1.0000
  C   C694      1.0  0.32833  0.92692  0.87958  1.0000
  C   C695      1.0  0.41903  0.70962  0.96317  1.0000
  H   H554      1.0  0.40403  0.88383  0.89809  1.0000
  S   S93       1.0  0.48850  0.82731  0.97355  1.0000
  C   C696      1.0  0.36202  0.89645  0.95606  1.0000
  H   H555      1.0  0.31636  0.94366  0.88438  1.0000
  H   H556      1.0  0.13105  0.92556  0.69721  1.0000
  P   P25       1.0  0.03391  0.66061  0.95319  1.0000
  C   C697      1.0  0.00555  0.95160  0.68852  1.0000
  H   H557      1.0  0.07463  0.66780  0.83785  1.0000
  C   C698      1.0  0.27670  0.67173  0.70687  1.0000
  H   H558      1.0  0.32532  0.77848  0.87438  1.0000
  C   C699      1.0  0.27385  0.67518  0.96531  1.0000
  C   C700      1.0  0.44712  0.96402  0.95705  1.0000
  H   H559      1.0  0.04212  0.93943  0.60739  1.0000
  C   C701      1.0  0.12757  0.71432  0.89513  1.0000
  C   C702      1.0  0.30208  0.71817  0.63451  1.0000
  C   C703      1.0  0.33864  0.92439  0.85448  1.0000
  P   P26       1.0  0.35424  0.86068  0.91611  1.0000
  H   H560      1.0  0.02865  0.67276  0.75264  1.0000
  C   C704      1.0  0.29264  0.70126  0.65382  1.0000
  H   H561      1.0  0.29686  0.66786  0.93089  1.0000
  C   C705      1.0  0.31363  0.66677  0.74719  1.0000
  H   H562      1.0  0.41901  0.90424  0.94913  1.0000
  C   C706      1.0  0.04046  0.97858  0.59240  1.0000
  C   C707      1.0  0.45588  0.74925  0.97112  1.0000
  H   H563      1.0  0.19832  0.66239  0.92031  1.0000
  H   H564      1.0  0.47010  0.76470  0.97428  1.0000
  H   H565      1.0  0.32288  0.72217  0.63315  1.0000
  C   C708      1.0  0.99428  0.95076  0.73455  1.0000
  C   C709      1.0  0.44409  0.91510  0.98085  1.0000
  H   H566      1.0  0.32443  0.90968  0.91753  1.0000
  C   C710      1.0  0.33313  0.90771  0.89840  1.0000
  C   C711      1.0  0.03404  0.67893  0.92295  1.0000
  H   H567      1.0  0.27616  0.69616  0.96372  1.0000
  C   C712      1.0  0.44786  0.74304  0.94585  1.0000
  H   H568      1.0  0.40533  0.69392  0.95953  1.0000
  H   H569      1.0  0.10532  0.96295  0.71390  1.0000
  S   S94       1.0  0.00871  0.84439  0.75007  1.0000
  C   C713      1.0  0.19182  0.71554  0.95538  1.0000
  C   C714      1.0  0.23592  0.66406  0.78021  1.0000
  H   H570      1.0  0.00115  0.94026  0.56169  1.0000
  C   C715      1.0  0.20119  0.67171  0.69772  1.0000
  C   C716      1.0  0.00453  0.96216  0.52582  1.0000
  S   S95       1.0  0.41374  0.84986  0.98562  1.0000
  H   H571      1.0  0.99846  0.94435  0.75426  1.0000
  H   H572      1.0  0.04670  0.97314  0.57301  1.0000
  C   C717      1.0  0.28580  0.65921  0.94680  1.0000
  H   H573      1.0  0.32751  0.66462  0.76303  1.0000
  H   H574      1.0  0.32652  0.69191  0.97451  1.0000
  H   H575      1.0  0.36757  0.71431  0.98514  1.0000
  H   H576      1.0  0.44304  0.89630  0.99033  1.0000
  H   H577      1.0  0.37149  0.92254  0.98772  1.0000
  C   C718      1.0  0.34063  0.68233  0.98708  1.0000
  C   C719      1.0  0.60558  0.20992  0.46343  1.0000
  Fe  Fe47      1.0  0.51854  0.03264  0.16392  1.0000
  C   C720      1.0  0.53920  0.10584  0.18389  1.0000
  S   S96       1.0  0.55127  0.03487  0.19329  1.0000
  C   C721      1.0  0.56470  0.28860  0.37533  1.0000
  C   C722      1.0  0.54837  0.10332  0.26888  1.0000
  C   C723      1.0  0.91044  0.12073  0.47436  1.0000
  C   C724      1.0  0.81378  0.16500  0.44822  1.0000
  Fe  Fe48      1.0  0.78981  0.01730  0.40426  1.0000
  C   C725      1.0  0.62927  0.03096  0.08345  1.0000
  H   H578      1.0  0.73623  0.07175  0.47445  1.0000
  Fe  Fe49      1.0  0.83688  0.04078  0.43340  1.0000
  H   H579      1.0  0.57075  0.23295  0.46704  1.0000
  S   S97       1.0  0.88037  0.04734  0.43330  1.0000
  C   C726      1.0  0.61072  0.18647  0.42294  1.0000
  C   C727      1.0  0.82869  0.17951  0.46611  1.0000
  H   H580      1.0  0.55039  0.32106  0.43124  1.0000
  C   C728      1.0  0.72988  0.09160  0.47761  1.0000
  S   S98       1.0  0.80883  0.05701  0.40416  1.0000
  Fe  Fe50      1.0  0.78340  0.06558  0.43866  1.0000
  Fe  Fe51      1.0  0.50704  0.04073  0.10662  1.0000
  C   C729      1.0  0.96980  0.02040  0.46729  1.0000
  C   C730      1.0  0.55842  0.26320  0.38330  1.0000
  H   H581      1.0  0.53714  0.16961  0.40957  1.0000
  C   C731      1.0  0.53366  0.12877  0.17020  1.0000
  C   C732      1.0  0.49364  0.24159  0.44015  1.0000
  C   C733      1.0  0.92657  0.09893  0.47151  1.0000
  C   C734      1.0  0.91716  0.07658  0.45875  1.0000
  C   C735      1.0  0.89136  0.07554  0.44953  1.0000
  H   H582      1.0  0.67731  0.07109  0.10573  1.0000
  C   C736      1.0  0.65495  0.00446  0.34763  1.0000
  C   C737      1.0  0.57282  0.01384  0.01526  1.0000
  H   H583      1.0  0.92985  0.06000  0.45604  1.0000
  C   C738      1.0  0.82435  0.15801  0.42414  1.0000
  H   H584      1.0  0.96154  0.21706  0.48613  1.0000
  C   C739      1.0  0.56454  0.00382  0.19934  1.0000
  H   H585      1.0  0.53198  0.08313  0.21827  1.0000
  C   C740      1.0  0.52632  0.17964  0.39439  1.0000
  C   C741      1.0  0.51381  0.07711  0.28807  1.0000
  H   H586      1.0  0.67233  0.04578  0.03943  1.0000
  C   C742      1.0  0.74202  0.06176  0.37732  1.0000
  H   H587      1.0  0.85507  0.09651  0.44567  1.0000
  H   H588      1.0  0.51255  0.16510  0.17041  1.0000
  C   C743      1.0  0.55456  0.03072  0.02691  1.0000
  C   C744      1.0  0.54797  0.02804  0.05334  1.0000
  C   C745      1.0  0.51600  0.22615  0.44384  1.0000
  S   S99       1.0  0.76237  0.02708  0.43715  1.0000
  C   C746      1.0  0.69032  0.04548  0.00138  1.0000
  H   H589      1.0  0.54567  0.04605  0.01543  1.0000
  H   H590      1.0  0.58008  0.19135  0.39473  1.0000
  C   C747      1.0  0.88460  0.11971  0.46507  1.0000
  S   S100      1.0  0.76582  0.10593  0.44012  1.0000
  S   S101      1.0  0.52190  0.00665  0.12926  1.0000
  C   C748      1.0  0.84955  0.16621  0.41733  1.0000
  H   H591      1.0  0.63193  0.07253  0.08836  1.0000
  C   C749      1.0  0.53252  0.06296  0.30212  1.0000
  H   H592      1.0  0.92198  0.01088  0.43595  1.0000
  C   C750      1.0  0.64201  0.05404  0.09036  1.0000
  P   P27       1.0  0.67532  0.04037  0.41618  1.0000
  C   C751      1.0  0.69178  0.01929  0.43950  1.0000
  C   C752      1.0  0.70033  0.05966  0.40009  1.0000
  H   H593      1.0  0.94647  0.09941  0.47865  1.0000
  H   H594      1.0  0.52792  0.15076  0.28482  1.0000
  C   C753      1.0  0.50623  0.14327  0.20581  1.0000
  C   C754      1.0  0.71766  0.10133  0.38501  1.0000
  C   C755      1.0  0.69772  0.08680  0.39688  1.0000
  H   H595      1.0  0.64973  0.11279  0.47443  1.0000
  C   C756      1.0  0.50332  0.18394  0.29103  1.0000
  C   C757      1.0  0.51716  0.14747  0.18115  1.0000
  H   H596      1.0  0.70956  0.04952  0.00921  1.0000
  H   H597      1.0  0.60208  0.10488  0.46973  1.0000
  C   C758      1.0  0.65185  0.06110  0.43262  1.0000
  C   C759      1.0  0.62478  0.05698  0.42977  1.0000
  C   C760      1.0  0.60690  0.07275  0.44307  1.0000
  C   C761      1.0  0.61586  0.09278  0.45923  1.0000
  C   C762      1.0  0.64269  0.09725  0.46190  1.0000
  C   C763      1.0  0.66057  0.08159  0.44860  1.0000
  H   H598      1.0  0.60940  0.03171  0.07607  1.0000
  C   C764      1.0  0.97924  0.04440  0.47655  1.0000
  H   H599      1.0  0.86504  0.20077  0.47157  1.0000
  H   H600      1.0  0.72459  0.02632  0.39104  1.0000
  C   C765      1.0  0.51208  0.16497  0.37627  1.0000
  C   C766      1.0  0.87497  0.09709  0.45289  1.0000
  C   C767      1.0  0.66754  0.05319  0.10009  1.0000
  H   H601      1.0  0.69997  0.02913  0.11087  1.0000
  H   H602      1.0  0.71610  0.12234  0.38357  1.0000
  H   H603      1.0  0.68051  0.09697  0.40349  1.0000
  C   C768      1.0  0.51736  0.20948  0.46558  1.0000
  C   C769      1.0  0.55260  0.30488  0.41784  1.0000
  C   C770      1.0  0.58855  0.00127  0.21241  1.0000
  H   H604      1.0  0.79613  0.02038  0.99925  1.0000
  H   H605      1.0  0.57783  0.01636  0.99499  1.0000
  H   H606      1.0  0.61731  0.04172  0.41733  1.0000
  H   H607      1.0  0.58607  0.06935  0.44094  1.0000
  H   H608      1.0  0.95245  0.26448  0.48844  1.0000
  P   P28       1.0  0.49781  0.11463  0.25156  1.0000
  H   H609      1.0  0.68128  0.08564  0.45068  1.0000
  H   H610      1.0  0.85797  0.16024  0.39892  1.0000
  H   H611      1.0  0.58766  0.09341  0.28054  1.0000
  C   C771      1.0  0.55911  0.06888  0.29947  1.0000
  C   C772      1.0  0.58507  0.99441  0.03011  1.0000
  H   H612      1.0  0.88986  0.01308  0.48139  1.0000
  C   C773      1.0  0.97703  0.23110  0.48228  1.0000
  H   H613      1.0  0.56128  0.24718  0.36991  1.0000
  C   C774      1.0  0.72240  0.04725  0.38965  1.0000
  H   H614      1.0  0.53920  0.27634  0.44550  1.0000
  H   H615      1.0  0.51789  0.19432  0.30233  1.0000
  H   H616      1.0  0.62233  0.17402  0.41047  1.0000
  C   C775      1.0  0.73319  0.13767  0.46762  1.0000
  C   C776      1.0  0.50890  0.15917  0.28109  1.0000
  H   H617      1.0  0.67749  0.03791  0.35839  1.0000
  C   C777      1.0  0.54860  0.25860  0.40846  1.0000
  C   C778      1.0  0.66766  0.00589  0.09608  1.0000
  S   S102      1.0  0.81319  0.05247  0.46800  1.0000
  C   C779      1.0  0.73989  0.08883  0.37541  1.0000
  C   C780      1.0  0.54614  0.27954  0.42581  1.0000
  H   H618      1.0  0.79422  0.15834  0.45312  1.0000
  H   H619      1.0  0.57205  0.29217  0.35583  1.0000
  H   H620      1.0  0.65998  0.00603  0.32714  1.0000
  H   H621      1.0  0.88358  0.18805  0.42922  1.0000
  Fe  Fe52      1.0  0.79471  0.01304  0.46370  1.0000
  H   H622      1.0  0.75558  0.10008  0.36665  1.0000
  C   C781      1.0  0.85347  0.18878  0.45860  1.0000
  H   H623      1.0  0.81702  0.12969  0.48724  1.0000
  C   C782      1.0  0.86396  0.18187  0.43440  1.0000
  H   H624      1.0  0.87192  0.13634  0.46738  1.0000
  C   C783      1.0  0.52160  0.09732  0.27118  1.0000
  C   C784      1.0  0.71129  0.01188  0.48224  1.0000
  C   C785      1.0  0.65978  0.01946  0.39230  1.0000
  C   C786      1.0  0.64196  0.00697  0.08634  1.0000
  H   H625      1.0  0.59886  0.01851  0.21892  1.0000
  S   S103      1.0  0.52580  0.05047  0.06761  1.0000
  C   C787      1.0  0.55983  0.00821  0.06795  1.0000
  H   H626      1.0  0.81310  0.14575  0.41103  1.0000
  C   C788      1.0  0.58661  0.19612  0.41421  1.0000
  C   C789      1.0  0.57141  0.21207  0.43045  1.0000
  C   C790      1.0  0.58146  0.21953  0.45480  1.0000
  H   H627      1.0  0.70789  0.16307  0.48953  1.0000
  Fe  Fe53      1.0  0.49514  0.31006  0.48018  1.0000
  H   H628      1.0  0.57362  0.05752  0.30993  1.0000
  C   C791      1.0  0.70030  0.99438  0.43191  1.0000
  H   H629      1.0  0.53404  0.19688  0.46859  1.0000
  H   H630      1.0  0.74201  0.15341  0.45659  1.0000
  H   H631      1.0  0.55171  0.09109  0.17534  1.0000
  C   C792      1.0  0.78917  0.06180  0.99767  1.0000
  H   H632      1.0  0.50809  0.24047  0.37451  1.0000
  C   C793      1.0  0.74125  0.11193  0.46328  1.0000
  C   C794      1.0  0.52576  0.20702  0.39347  1.0000
  P   P29       1.0  0.94677  0.00129  0.48616  1.0000
  S   S104      1.0  0.92219  0.14947  0.48925  1.0000
  C   C795      1.0  0.52797  0.10139  0.20832  1.0000
  P   P30       1.0  0.54097  0.22585  0.41902  1.0000
  H   H633      1.0  0.54187  0.13181  0.15096  1.0000
  H   H634      1.0  0.60932  0.29569  0.49008  1.0000
  H   H635      1.0  0.55547  0.00607  0.08831  1.0000
  C   C796      1.0  0.68035  0.02925  0.10295  1.0000
  H   H636      1.0  0.52643  0.04702  0.31465  1.0000
  H   H637      1.0  0.98723  0.29633  0.47905  1.0000
  C   C797      1.0  0.51156  0.12017  0.21959  1.0000
  C   C798      1.0  0.97193  0.25782  0.48348  1.0000
  H   H638      1.0  0.69124  0.04674  0.47159  1.0000
  C   C799      1.0  0.99185  0.27587  0.47813  1.0000
  H   H639      1.0  0.77707  0.10179  0.99303  1.0000
  C   C800      1.0  0.66503  0.02237  0.36555  1.0000
  H   H640      1.0  0.75910  0.05204  0.36952  1.0000
  H   H641      1.0  0.51243  0.14385  0.37716  1.0000
  C   C801      1.0  0.56702  0.08911  0.28293  1.0000
  H   H642      1.0  0.55489  0.11861  0.25576  1.0000
  C   C802      1.0  0.71397  0.14317  0.48634  1.0000
  H   H643      1.0  0.56200  0.30332  0.48169  1.0000
  H   H644      1.0  0.62793  0.03540  0.02274  1.0000
  H   H645      1.0  0.75972  0.19100  0.48578  1.0000
  H   H646      1.0  0.61323  0.21570  0.48230  1.0000
  H   H647      1.0  0.73053  0.22895  0.48182  1.0000
  C   C803      1.0  0.75120  0.23191  0.48557  1.0000
  S   S105      1.0  0.82055  0.00011  0.43083  1.0000
  C   C804      1.0  0.64374  0.99874  0.40066  1.0000
  H   H648      1.0  0.50622  0.28923  0.36138  1.0000
  H   H649      1.0  0.77685  0.99842  0.11354  1.0000
  S   S106      1.0  0.78094  0.00089  0.36372  1.0000
  C   C805      1.0  0.69720  0.02775  0.46499  1.0000
  C   C806      1.0  0.62012  0.19324  0.44762  1.0000
  C   C807      1.0  0.51004  0.21945  0.37473  1.0000
  C   C808      1.0  0.66925  0.04332  0.01869  1.0000
  C   C809      1.0  0.64422  0.03751  0.00934  1.0000
  H   H650      1.0  0.80684  0.06672  0.00832  1.0000
  S   S107      1.0  0.50644  0.06807  0.14099  1.0000
  C   C810      1.0  0.56167  0.30945  0.39257  1.0000
  H   H651      1.0  0.63887  0.18596  0.45438  1.0000
  C   C811      1.0  0.97959  0.01058  0.44369  1.0000
  H   H652      1.0  0.74811  0.27375  0.48697  1.0000
  C   C812      1.0  0.76114  0.25715  0.48841  1.0000
  H   H653      1.0  0.63975  0.99593  0.42121  1.0000
  C   C813      1.0  0.76782  0.21041  0.48803  1.0000
  C   C814      1.0  0.49661  0.17752  0.35760  1.0000
  C   C815      1.0  0.49554  0.20474  0.35690  1.0000
  C   C816      1.0  0.49697  0.20898  0.48376  1.0000
  H   H654      1.0  0.49389  0.02487  0.03183  1.0000
  C   C817      1.0  0.78314  0.03570  0.99255  1.0000
  C   C818      1.0  0.49353  0.30502  0.35540  1.0000
  H   H655      1.0  0.73673  0.99253  0.08721  1.0000
  H   H656      1.0  0.66464  0.07863  0.82478  1.0000
  C   C819      1.0  0.95039  0.21060  0.63466  1.0000
  S   S108      1.0  0.90393  0.28206  0.69934  1.0000
  Fe  Fe54      1.0  0.83150  0.29092  0.67657  1.0000
  S   S109      1.0  0.85352  0.25386  0.66999  1.0000
  C   C820      1.0  0.58840  0.24159  0.60220  1.0000
  Fe  Fe55      1.0  0.86765  0.25933  0.71097  1.0000
  S   S110      1.0  0.86836  0.22340  0.73678  1.0000
  Fe  Fe56      1.0  0.88706  0.27988  0.65892  1.0000
  S   S111      1.0  0.90865  0.27615  0.62085  1.0000
  S   S112      1.0  0.84326  0.29500  0.71860  1.0000
  Fe  Fe57      1.0  0.72878  0.08313  0.78813  1.0000
  S   S113      1.0  0.73755  0.06112  0.75112  1.0000
  S   S114      1.0  0.71936  0.06014  0.82546  1.0000
  Fe  Fe58      1.0  0.74953  0.13447  0.76451  1.0000
  S   S115      1.0  0.75957  0.11629  0.72626  1.0000
  S   S116      1.0  0.75689  0.17772  0.76903  1.0000
  Fe  Fe59      1.0  0.72088  0.09614  0.73023  1.0000
  S   S117      1.0  0.69729  0.09065  0.69331  1.0000
  Fe  Fe60      1.0  0.77536  0.08332  0.75020  1.0000
  S   S118      1.0  0.81564  0.06723  0.74233  1.0000
  S   S119      1.0  0.70907  0.11664  0.76715  1.0000
  S   S120      1.0  0.76825  0.10306  0.78846  1.0000
  Fe  Fe61      1.0  0.67677  0.16879  0.54190  1.0000
  S   S121      1.0  0.63937  0.18689  0.55643  1.0000
  S   S122      1.0  0.67716  0.12906  0.52295  1.0000
  Fe  Fe62      1.0  0.71126  0.21144  0.56523  1.0000
  S   S123      1.0  0.67695  0.23329  0.58120  1.0000
  S   S124      1.0  0.75411  0.22117  0.57078  1.0000
  Fe  Fe63      1.0  0.66226  0.19369  0.59328  1.0000
  S   S125      1.0  0.64785  0.18784  0.63432  1.0000
  Fe  Fe64      1.0  0.65705  0.22481  0.54284  1.0000
  S   S126      1.0  0.63719  0.25720  0.51947  1.0000
  S   S127      1.0  0.69790  0.17249  0.57996  1.0000
  S   S128      1.0  0.69306  0.20608  0.52564  1.0000
  C   C821      1.0  0.86653  0.11396  0.53481  1.0000
  C   C822      1.0  0.60319  0.26137  0.51366  1.0000
  H   H657      1.0  0.66288  0.02639  0.70045  1.0000
  C   C823      1.0  0.78549  0.11311  0.50910  1.0000
  H   H658      1.0  0.65152  0.29757  0.62523  1.0000
  C   C824      1.0  0.55754  0.24896  0.51945  1.0000
  C   C825      1.0  0.58436  0.24438  0.52399  1.0000
  C   C826      1.0  0.92571  0.13999  0.74487  1.0000
  H   H659      1.0  0.76656  0.16255  0.65126  1.0000
  H   H660      1.0  0.59044  0.22785  0.53565  1.0000
  C   C827      1.0  0.68482  0.11844  0.67720  1.0000
  C   C828      1.0  0.67797  0.11648  0.65083  1.0000
  C   C829      1.0  0.66762  0.13800  0.63733  1.0000
  C   C830      1.0  0.66286  0.16134  0.65050  1.0000
  C   C831      1.0  0.66920  0.16318  0.67705  1.0000
  C   C832      1.0  0.68072  0.14198  0.69027  1.0000
  H   H661      1.0  0.68088  0.09824  0.64082  1.0000
  H   H662      1.0  0.66245  0.13628  0.61697  1.0000
  H   H663      1.0  0.66528  0.18106  0.68734  1.0000
  H   H664      1.0  0.68578  0.14361  0.71067  1.0000
  C   C833      1.0  0.83730  0.21048  0.74517  1.0000
  C   C834      1.0  0.81494  0.22617  0.74457  1.0000
  C   C835      1.0  0.79056  0.21588  0.75220  1.0000
  C   C836      1.0  0.78803  0.18965  0.75955  1.0000
  C   C837      1.0  0.81029  0.17377  0.75976  1.0000
  C   C838      1.0  0.83493  0.18432  0.75311  1.0000
  H   H665      1.0  0.81651  0.24635  0.73867  1.0000
  H   H666      1.0  0.77346  0.22816  0.75220  1.0000
  H   H667      1.0  0.80862  0.15352  0.76554  1.0000
  H   H668      1.0  0.85211  0.17204  0.75373  1.0000
  C   C839      1.0  0.77975  0.27417  0.63810  1.0000
  C   C840      1.0  0.79829  0.26133  0.62275  1.0000
  C   C841      1.0  0.79014  0.24500  0.60232  1.0000
  C   C842      1.0  0.76343  0.24125  0.59712  1.0000
  C   C843      1.0  0.74487  0.25394  0.61256  1.0000
  H   H669      1.0  0.90126  0.04378  0.61761  1.0000
  H   H670      1.0  0.81892  0.26447  0.62619  1.0000
  H   H671      1.0  0.80456  0.23541  0.59036  1.0000
  C   C844      1.0  0.63589  0.21800  0.74447  1.0000
  H   H672      1.0  0.77352  0.02303  0.55573  1.0000
  C   C845      1.0  0.81275  0.02661  0.57016  1.0000
  C   C846      1.0  0.87451  0.29541  0.77763  1.0000
  H   H673      1.0  0.89380  0.09465  0.76354  1.0000
  Fe  Fe65      1.0  0.98191  0.15801  0.56574  1.0000
  H   H674      1.0  0.97248  0.05240  0.49480  1.0000
  P   P31       1.0  0.91429  0.12129  0.71725  1.0000
  H   H675      1.0  0.95303  0.11044  0.75791  1.0000
  C   C847      1.0  0.95862  0.20350  0.60960  1.0000
  C   C848      1.0  0.93441  0.23252  0.63821  1.0000
  C   C849      1.0  0.92740  0.24789  0.61679  1.0000
  C   C850      1.0  0.93619  0.24119  0.59182  1.0000
  C   C851      1.0  0.95154  0.21883  0.58817  1.0000
  H   H676      1.0  0.92774  0.23766  0.65753  1.0000
  H   H677      1.0  0.93089  0.25314  0.57522  1.0000
  H   H678      1.0  0.95806  0.21360  0.56886  1.0000
  C   C852      1.0  0.75305  0.27051  0.63282  1.0000
  C   C853      1.0  0.84231  0.03044  0.71478  1.0000
  C   C854      1.0  0.81789  0.04184  0.71953  1.0000
  C   C855      1.0  0.79576  0.03253  0.70647  1.0000
  H   H679      1.0  0.67310  0.16629  0.76325  1.0000
  H   H680      1.0  0.85940  0.03768  0.72479  1.0000
  H   H681      1.0  0.77685  0.04129  0.70993  1.0000
  H   H682      1.0  0.70486  0.18822  0.73516  1.0000
  H   H683      1.0  0.70431  0.21828  0.64810  1.0000
  C   C856      1.0  0.88825  0.05703  0.62774  1.0000
  H   H684      1.0  0.88282  0.12239  0.52416  1.0000
  C   C857      1.0  0.64665  0.03623  0.87358  1.0000
  C   C858      1.0  0.67073  0.02375  0.87701  1.0000
  C   C859      1.0  0.69243  0.03096  0.86157  1.0000
  C   C860      1.0  0.69055  0.05088  0.84277  1.0000
  C   C861      1.0  0.66641  0.06319  0.83908  1.0000
  C   C862      1.0  0.64464  0.05597  0.85451  1.0000
  H   H685      1.0  0.78785  0.09400  0.50052  1.0000
  H   H686      1.0  0.71087  0.02105  0.86417  1.0000
  H   H687      1.0  0.73302  0.18710  0.62608  1.0000
  C   C863      1.0  0.55902  0.27861  0.60343  1.0000
  C   C864      1.0  0.83050  0.08339  0.53705  1.0000
  C   C865      1.0  0.85083  0.09506  0.52301  1.0000
  C   C866      1.0  0.88016  0.15617  0.69339  1.0000
  C   C867      1.0  0.93926  0.31570  0.56525  1.0000
  H   H688      1.0  0.90710  0.11505  0.66107  1.0000
  H   H689      1.0  0.73569  0.01973  0.90337  1.0000
  H   H690      1.0  0.66629  0.10185  0.89309  1.0000
  H   H691      1.0  0.97893  0.26543  0.62421  1.0000
  H   H692      1.0  0.89380  0.29165  0.76975  1.0000
  H   H693      1.0  0.95617  0.29966  0.59972  1.0000
  H   H694      1.0  0.91032  0.01421  0.74748  1.0000
  C   C868      1.0  0.97700  0.06672  0.59713  1.0000
  H   H695      1.0  0.77461  0.02584  0.80915  1.0000
  H   H696      1.0  0.96896  0.13598  0.79547  1.0000
  C   C869      1.0  0.94479  0.12062  0.64361  1.0000
  C   C870      1.0  0.71685  0.00846  0.93955  1.0000
  H   H697      1.0  0.77423  0.18227  0.53699  1.0000
  C   C871      1.0  0.91600  0.16515  0.74972  1.0000
  C   C872      1.0  0.72792  0.03235  0.65369  1.0000
  H   H698      1.0  0.74814  0.09212  0.87750  1.0000
  H   H699      1.0  0.79550  0.28053  0.49542  1.0000
  C   C873      1.0  0.82551  0.09099  0.56270  1.0000
  C   C874      1.0  0.84110  0.11006  0.57469  1.0000
  C   C875      1.0  0.86173  0.12148  0.56053  1.0000
  P   P32       1.0  0.83732  0.11609  0.60914  1.0000
  C   C876      1.0  0.80269  0.11398  0.61688  1.0000
  C   C877      1.0  0.85681  0.09256  0.62690  1.0000
  C   C878      1.0  0.85580  0.09177  0.65419  1.0000
  C   C879      1.0  0.86972  0.07281  0.66802  1.0000
  C   C880      1.0  0.87384  0.07556  0.61381  1.0000
  C   C881      1.0  0.78465  0.12851  0.60213  1.0000
  C   C882      1.0  0.75803  0.12811  0.60846  1.0000
  C   C883      1.0  0.74909  0.11285  0.62921  1.0000
  C   C884      1.0  0.76667  0.09766  0.64345  1.0000
  C   C885      1.0  0.79329  0.09788  0.63712  1.0000
  C   C886      1.0  0.85032  0.14802  0.61687  1.0000
  C   C887      1.0  0.87751  0.15122  0.61949  1.0000
  C   C888      1.0  0.88820  0.17576  0.62460  1.0000
  C   C889      1.0  0.87187  0.19740  0.62728  1.0000
  C   C890      1.0  0.84476  0.19440  0.62508  1.0000
  C   C891      1.0  0.83397  0.16984  0.61994  1.0000
  H   H700      1.0  0.80981  0.08159  0.57337  1.0000
  H   H701      1.0  0.87455  0.13577  0.56929  1.0000
  H   H702      1.0  0.84375  0.10545  0.66470  1.0000
  H   H703      1.0  0.86799  0.07162  0.68901  1.0000
  H   H704      1.0  0.87608  0.07638  0.59291  1.0000
  H   H705      1.0  0.79129  0.14062  0.58607  1.0000
  H   H706      1.0  0.74433  0.14006  0.59765  1.0000
  H   H707      1.0  0.72855  0.11290  0.63438  1.0000
  H   H708      1.0  0.75969  0.08592  0.65967  1.0000
  H   H709      1.0  0.80607  0.08530  0.64815  1.0000
  H   H710      1.0  0.89059  0.13482  0.61707  1.0000
  H   H711      1.0  0.90922  0.17796  0.62626  1.0000
  H   H712      1.0  0.88019  0.21649  0.63107  1.0000
  H   H713      1.0  0.83207  0.21115  0.62745  1.0000
  H   H714      1.0  0.81296  0.16827  0.61843  1.0000
  C   C892      1.0  0.67892  0.22000  0.72420  1.0000
  C   C893      1.0  0.68522  0.25699  0.67997  1.0000
  C   C894      1.0  0.66363  0.24690  0.66640  1.0000
  C   C895      1.0  0.65146  0.26151  0.64684  1.0000
  H   H715      1.0  0.70545  0.11171  0.86625  1.0000
  S   S129      1.0  0.51533  0.27529  0.49929  1.0000
  C   C896      1.0  0.69397  0.28235  0.67425  1.0000
  C   C897      1.0  0.68574  0.19686  0.73731  1.0000
  C   C898      1.0  0.66766  0.18426  0.75348  1.0000
  C   C899      1.0  0.72196  0.21280  0.68631  1.0000
  C   C900      1.0  0.75703  0.18093  0.68760  1.0000
  C   C901      1.0  0.75410  0.17650  0.66094  1.0000
  C   C902      1.0  0.73515  0.19023  0.64684  1.0000
  C   C903      1.0  0.71892  0.20814  0.65948  1.0000
  H   H716      1.0  0.65669  0.22734  0.67049  1.0000
  H   H717      1.0  0.63543  0.25301  0.63590  1.0000
  C   C904      1.0  0.93633  0.12498  0.69000  1.0000
  H   H718      1.0  0.93194  0.07260  0.69170  1.0000
  C   C905      1.0  0.88571  0.05525  0.65477  1.0000
  H   H719      1.0  0.61105  0.29015  0.56331  1.0000
  C   C906      1.0  0.84083  0.19286  0.52209  1.0000
  C   C907      1.0  0.78551  0.02617  0.57290  1.0000
  C   C908      1.0  0.71024  0.09706  0.49599  1.0000
  H   H720      1.0  0.81411  0.16268  0.69255  1.0000
  C   C909      1.0  0.91616  0.04656  0.54382  1.0000
  H   H721      1.0  0.71946  0.10803  0.56241  1.0000
  H   H722      1.0  0.54122  0.28738  0.61073  1.0000
  H   H723      1.0  0.93800  0.11654  0.62401  1.0000
  H   H724      1.0  0.95588  0.19872  0.65126  1.0000
  H   H725      1.0  0.71069  0.29060  0.68422  1.0000
  H   H726      1.0  0.75207  0.06252  0.91531  1.0000
  H   H727      1.0  0.81869  0.06835  0.52801  1.0000
  C   C910      1.0  0.92448  0.02144  0.50460  1.0000
  C   C911      1.0  0.79723  0.15892  0.51052  1.0000
  C   C912      1.0  0.79807  0.01138  0.68931  1.0000
  C   C913      1.0  0.74264  0.00207  0.79547  1.0000
  H   H728      1.0  0.85146  0.22794  0.57757  1.0000
  H   H729      1.0  0.72155  0.04130  0.69418  1.0000
  S   S130      1.0  0.95651  0.12516  0.55178  1.0000
  C   C914      1.0  0.98024  0.13145  0.67298  1.0000
  P   P33       1.0  0.70221  0.23657  0.70324  1.0000
  C   C915      1.0  0.98582  0.30731  0.57038  1.0000
  C   C916      1.0  0.64024  0.03386  0.98268  1.0000
  H   H730      1.0  0.52919  0.28903  0.55517  1.0000
  H   H731      1.0  0.73678  0.09073  0.96874  1.0000
  C   C917      1.0  0.74151  0.19939  0.70004  1.0000
  C   C918      1.0  0.65396  0.23072  0.72833  1.0000
  C   C919      1.0  0.66904  0.04910  0.76227  1.0000
  H   H732      1.0  0.89624  0.04030  0.66542  1.0000
  C   C920      1.0  0.64270  0.19471  0.75695  1.0000
  H   H733      1.0  0.77535  0.29093  0.76673  1.0000
  H   H734      1.0  0.77122  0.17014  0.69891  1.0000
  H   H735      1.0  0.62196  0.24590  0.57729  1.0000
  C   C921      1.0  0.88941  0.04637  0.53833  1.0000
  C   C922      1.0  0.71103  0.06474  0.92582  1.0000
  C   C923      1.0  0.72507  0.02606  0.68003  1.0000
  H   H736      1.0  0.95114  0.18018  0.80401  1.0000
  C   C924      1.0  0.88440  0.18495  0.53952  1.0000
  H   H737      1.0  0.85414  0.18549  0.67827  1.0000
  H   H738      1.0  0.64839  0.24888  0.71910  1.0000
  C   C925      1.0  0.52687  0.02759  0.92934  1.0000
  C   C926      1.0  0.86468  0.32085  0.77796  1.0000
  H   H739      1.0  0.74475  0.20311  0.72051  1.0000
  H   H740      1.0  0.83005  0.03319  0.63382  1.0000
  H   H741      1.0  0.62614  0.06584  0.85176  1.0000
  H   H742      1.0  0.61656  0.22616  0.74726  1.0000
  C   C927      1.0  0.96026  0.30696  0.58039  1.0000
  H   H743      1.0  0.70075  0.25350  0.75823  1.0000
  H   H744      1.0  0.72987  0.00798  0.81119  1.0000
  H   H745      1.0  0.89751  0.16660  0.68704  1.0000
  H   H746      1.0  0.89213  0.04828  0.77656  1.0000
  H   H747      1.0  0.59351  0.22190  0.60820  1.0000
  H   H748      1.0  0.62869  0.18475  0.76934  1.0000
  C   C928      1.0  0.72442  0.25529  0.72319  1.0000
  H   H749      1.0  0.78229  0.03264  0.63901  1.0000
  C   C929      1.0  0.76080  0.28177  0.75448  1.0000
  H   H750      1.0  0.67348  0.10743  0.57627  1.0000
  C   C930      1.0  0.67635  0.07006  0.59538  1.0000
  C   C931      1.0  0.77770  0.16297  0.52926  1.0000
  S   S131      1.0  0.86397  0.31671  0.66262  1.0000
  C   C932      1.0  0.94416  0.16900  0.78751  1.0000
  S   S132      1.0  0.94523  0.01636  0.64958  1.0000
  H   H751      1.0  0.65792  0.03178  0.94486  1.0000
  Fe  Fe66      1.0  0.87843  0.31747  0.70404  1.0000
  C   C933      1.0  0.71231  0.09147  0.57340  1.0000
  C   C934      1.0  0.95925  0.02939  0.62096  1.0000
  C   C935      1.0  0.96512  0.01335  0.59980  1.0000
  C   C936      1.0  0.71879  0.26032  0.74949  1.0000
  H   H752      1.0  0.75307  0.26016  0.69245  1.0000
  C   C937      1.0  0.68699  0.07656  0.91960  1.0000
  H   H753      1.0  0.54311  0.23585  0.52770  1.0000
  P   P34       1.0  0.71398  0.04125  0.95221  1.0000
  C   C938      1.0  0.82396  0.30484  0.79614  1.0000
  H   H754      1.0  0.96100  0.06843  0.63607  1.0000
  C   C939      1.0  0.60465  0.25520  0.58503  1.0000
  C   C940      1.0  0.51894  0.30682  0.56013  1.0000
  C   C941      1.0  0.83484  0.13106  0.71091  1.0000
  C   C942      1.0  0.92738  0.11999  0.66459  1.0000
  C   C943      1.0  0.74818  0.26412  0.71262  1.0000
  C   C944      1.0  0.92243  0.04165  0.71797  1.0000
  C   C945      1.0  0.96534  0.05606  0.61963  1.0000
  H   H755      1.0  0.70132  0.08133  0.50696  1.0000
  H   H756      1.0  0.66946  0.07255  0.93056  1.0000
  S   S133      1.0  0.61887  0.02840  0.89312  1.0000
  C   C946      1.0  0.95415  0.14411  0.78270  1.0000
  H   H757      1.0  0.72425  0.25129  0.60873  1.0000
  C   C947      1.0  0.66128  0.03571  0.96536  1.0000
  C   C948      1.0  0.73701  0.27342  0.76509  1.0000
  H   H758      1.0  0.65558  0.06634  0.72634  1.0000
  S   S134      1.0  0.78942  0.29523  0.66359  1.0000
  C   C949      1.0  0.89765  0.02239  0.49861  1.0000
  S   S135      1.0  0.98131  0.17948  0.52775  1.0000
  C   C950      1.0  0.50645  0.02785  0.97197  1.0000
  C   C951      1.0  0.98826  0.28055  0.63565  1.0000
  C   C952      1.0  0.68648  0.04178  0.97448  1.0000
  C   C953      1.0  0.69276  0.04925  0.60184  1.0000
  C   C954      1.0  0.68616  0.09119  0.58122  1.0000
  C   C955      1.0  0.94502  0.12967  0.76144  1.0000
  H   H759      1.0  0.91955  0.31482  0.57315  1.0000
  C   C956      1.0  0.76623  0.27740  0.72819  1.0000
  H   H760      1.0  0.87585  0.05519  0.55175  1.0000
  H   H761      1.0  0.68911  0.31624  0.64978  1.0000
  H   H762      1.0  0.67268  0.00863  0.89163  1.0000
  H   H763      1.0  0.92351  0.05578  0.56136  1.0000
  H   H764      1.0  0.90320  0.17522  0.53818  1.0000
  H   H765      1.0  0.93010  0.02681  0.70508  1.0000
  C   C957      1.0  0.76176  0.14232  0.53734  1.0000
  S   S136      1.0  0.97753  0.17527  0.60584  1.0000
  C   C958      1.0  0.70715  0.09933  0.88333  1.0000
  H   H766      1.0  0.62090  0.02893  0.97546  1.0000
  H   H767      1.0  0.86893  0.16595  0.50570  1.0000
  H   H768      1.0  0.82149  0.02400  0.55110  1.0000
  H   H769      1.0  0.84987  0.02826  0.58997  1.0000
  H   H770      1.0  0.82146  0.26306  0.80140  1.0000
  C   C959      1.0  0.81760  0.03188  0.61673  1.0000
  C   C960      1.0  0.59828  0.28051  0.57709  1.0000
  C   C961      1.0  0.68510  0.09366  0.89839  1.0000
  H   H771      1.0  0.98155  0.08732  0.59619  1.0000
  H   H772      1.0  0.85947  0.03462  0.51105  1.0000
  H   H773      1.0  0.68485  0.02767  0.79450  1.0000
  C   C962      1.0  0.87962  0.20247  0.55973  1.0000
  H   H774      1.0  0.73869  0.28059  0.64436  1.0000
  C   C963      1.0  0.96288  0.13090  0.69403  1.0000
  C   C964      1.0  0.66057  0.28653  0.64085  1.0000
  C   C965      1.0  0.72747  0.00027  0.68832  1.0000
  C   C966      1.0  0.85897  0.27465  0.78627  1.0000
  H   H775      1.0  0.78479  0.28351  0.71994  1.0000
  H   H776      1.0  0.98914  0.30360  0.69773  1.0000
  C   C967      1.0  0.84467  0.00957  0.69731  1.0000
  C   C968      1.0  0.54928  0.27040  0.50440  1.0000
  C   C969      1.0  0.85561  0.16684  0.68807  1.0000
  H   H777      1.0  0.52690  0.06063  0.95513  1.0000
  C   C970      1.0  0.80450  0.23947  0.49571  1.0000
  C   C971      1.0  0.72887  0.07059  0.57966  1.0000
  H   H778      1.0  0.74911  0.07117  0.57348  1.0000
  H   H779      1.0  0.85481  0.08899  0.50320  1.0000
  C   C972      1.0  0.90118  0.05379  0.75825  1.0000
  H   H780      1.0  0.73298  0.27644  0.78557  1.0000
  C   C973      1.0  0.98352  0.05051  0.57622  1.0000
  C   C974      1.0  0.56554  0.25328  0.61138  1.0000
  C   C975      1.0  0.82878  0.02911  0.59206  1.0000
  H   H781      1.0  0.49839  0.19665  0.50088  1.0000
  C   C976      1.0  0.67941  0.02685  0.77417  1.0000
  C   C977      1.0  0.91295  0.08727  0.72664  1.0000
  H   H782      1.0  0.65609  0.07003  0.60163  1.0000
  H   H783      1.0  0.68485  0.03304  0.61294  1.0000
  C   C978      1.0  0.76573  0.11736  0.52729  1.0000
  C   C979      1.0  0.71911  0.04929  0.59391  1.0000
  C   C980      1.0  0.73325  0.07118  0.91094  1.0000
  C   C981      1.0  0.57544  0.29252  0.58630  1.0000
  C   C982      1.0  0.68172  0.29701  0.65467  1.0000
  H   H784      1.0  0.55281  0.24263  0.62454  1.0000
  C   C983      1.0  0.97125  0.12601  0.64786  1.0000
  C   C984      1.0  0.83368  0.27935  0.79544  1.0000
  C   C985      1.0  0.51912  0.00167  0.92599  1.0000
  C   C986      1.0  0.79037  0.03142  0.61959  1.0000
  C   C987      1.0  0.93356  0.03416  0.52698  1.0000
  C   C988      1.0  0.94360  0.32511  0.54004  1.0000
  H   H785      1.0  0.86626  0.25482  0.78517  1.0000
  H   H786      1.0  0.81731  0.12146  0.71802  1.0000
  Fe  Fe67      1.0  0.95936  0.14454  0.51264  1.0000
  C   C989      1.0  0.91139  0.03459  0.74188  1.0000
  C   C990      1.0  0.66288  0.04882  0.73575  1.0000
  H   H787      1.0  0.98309  0.01106  0.56190  1.0000
  C   C991      1.0  0.70234  0.12287  0.50044  1.0000
  C   C992      1.0  0.76808  0.01216  0.79442  1.0000
  H   H788      1.0  0.53829  0.03731  0.91436  1.0000
  H   H789      1.0  0.66650  0.06678  0.77350  1.0000
  C   C993      1.0  0.99000  0.31671  0.54493  1.0000
  C   C994      1.0  0.83298  0.15412  0.69649  1.0000
  H   H790      1.0  0.75306  0.10137  0.53280  1.0000
  C   C995      1.0  0.92511  0.17950  0.77099  1.0000
  C   C996      1.0  0.56810  0.28701  0.49361  1.0000
  C   C997      1.0  0.77410  0.02798  0.59775  1.0000
  C   C998      1.0  0.97777  0.02378  0.57779  1.0000
  H   H791      1.0  0.86355  0.00074  0.69393  1.0000
  C   C999      1.0  0.73134  0.99488  0.58016  1.0000
  C   C1000     1.0  0.92331  0.06784  0.71038  1.0000
  H   H792      1.0  0.57728  0.31812  0.63346  1.0000
  H   H793      1.0  0.91721  0.19879  0.77458  1.0000
  H   H794      1.0  0.72613  0.99581  0.70883  1.0000
  C   C1001     1.0  0.88020  0.03469  0.51552  1.0000
  C   C1002     1.0  0.86498  0.17991  0.52097  1.0000
  C   C1003     1.0  0.88228  0.13309  0.70809  1.0000
  H   H795      1.0  0.97034  0.13477  0.71335  1.0000
  C   C1004     1.0  0.59490  0.28257  0.49832  1.0000
  P   P35       1.0  0.73948  0.02159  0.60176  1.0000
  C   C1005     1.0  0.85523  0.21460  0.56168  1.0000
  C   C1006     1.0  0.83570  0.20945  0.54322  1.0000
  C   C1007     1.0  0.85939  0.12065  0.71690  1.0000
  H   H796      1.0  0.86017  0.10306  0.72852  1.0000
  H   H797      1.0  0.89474  0.20643  0.57403  1.0000
  C   C1008     1.0  0.72841  0.00386  0.91518  1.0000
  C   C1009     1.0  0.66697  0.02622  0.72117  1.0000
  H   H798      1.0  0.72641  0.05261  0.64785  1.0000
  C   C1010     1.0  0.73124  0.08819  0.88968  1.0000
  C   C1011     1.0  0.73315  0.01274  0.63532  1.0000
  H   H799      1.0  0.90126  0.17391  0.73738  1.0000
  H   H800      1.0  0.74585  0.14600  0.55071  1.0000
  H   H801      1.0  0.81666  0.21848  0.54545  1.0000
  C   C1012     1.0  0.90202  0.08003  0.75072  1.0000
  C   C1013     1.0  0.74966  0.07523  0.97522  1.0000
  H   H802      1.0  0.71629  0.01895  0.50151  1.0000
  C   C1014     1.0  0.52054  0.04066  0.95234  1.0000
  C   C1015     1.0  0.49865  0.00174  0.96881  1.0000
  H   H803      1.0  0.80410  0.30797  0.80268  1.0000
  C   C1016     1.0  0.78465  0.00552  0.77384  1.0000
  C   C1017     1.0  0.80163  0.13363  0.50116  1.0000
  P   P36       1.0  0.81572  0.18625  0.49815  1.0000
  H   H804      1.0  0.69618  0.01243  0.56399  1.0000
  H   H805      1.0  0.95407  0.03367  0.53182  1.0000
  C   C1018     1.0  0.74359  0.04907  0.96980  1.0000
  H   H806      1.0  0.96777  0.26961  0.67067  1.0000
  C   C1019     1.0  0.98207  0.28273  0.66207  1.0000
  H   H807      1.0  0.78102  0.00388  0.67947  1.0000
  H   H808      1.0  0.98478  0.12617  0.63158  1.0000
  C   C1020     1.0  0.67717  0.00384  0.73312  1.0000
  C   C1021     1.0  0.68336  0.00397  0.75980  1.0000
  C   C1022     1.0  0.82242  0.99970  0.68489  1.0000
  H   H809      1.0  0.75612  0.00896  0.97505  1.0000
  C   C1023     1.0  0.76042  0.02931  0.97871  1.0000
  C   C1024     1.0  0.79447  0.21403  0.49383  1.0000
  H   H810      1.0  0.82511  0.24272  0.49944  1.0000
  H   H811      1.0  0.80413  0.01393  0.77262  1.0000
  C   C1025     1.0  0.70931  0.99595  0.56371  1.0000
  C   C1026     1.0  0.77241  0.08155  0.98905  1.0000
  C   C1027     1.0  0.83952  0.32585  0.78760  1.0000
  C   C1028     1.0  0.78781  0.26095  0.49325  1.0000
  C   C1029     1.0  0.96899  0.32571  0.52990  1.0000
  H   H812      1.0  0.50213  0.03839  0.98959  1.0000
  H   H813      1.0  0.96074  0.99273  0.60069  1.0000
  P   P37       1.0  0.56721  0.32563  0.57700  1.0000
  C   C1030     1.0  0.49836  0.45659  0.37371  1.0000
  H   H814      1.0  0.53460  0.60479  0.27447  1.0000
  H   H815      1.0  0.82500  0.62438  0.00302  1.0000
  C   C1031     1.0  0.94809  0.54037  0.02730  1.0000
  S   S137      1.0  0.52150  0.38265  0.41941  1.0000
  H   H816      1.0  0.56637  0.32919  0.38644  1.0000
  S   S138      1.0  0.50433  0.35218  0.48797  1.0000
  S   S139      1.0  0.54326  0.64247  0.23386  1.0000
  H   H817      1.0  0.52681  0.45176  0.44343  1.0000
  C   C1032     1.0  0.52431  0.44816  0.37551  1.0000
  C   C1033     1.0  0.53071  0.42549  0.38941  1.0000
  C   C1034     1.0  0.51137  0.41100  0.40226  1.0000
  H   H818      1.0  0.93162  0.57842  0.09041  1.0000
  H   H819      1.0  0.53963  0.45913  0.36583  1.0000
  H   H820      1.0  0.55091  0.41922  0.39030  1.0000
  C   C1035     1.0  0.51219  0.44821  0.45835  1.0000
  H   H821      1.0  0.66373  0.58776  0.06672  1.0000
  H   H822      1.0  0.84195  0.44790  0.04595  1.0000
  C   C1036     1.0  0.51541  0.62301  0.24171  1.0000
  H   H823      1.0  0.53208  0.41462  0.47398  1.0000
  H   H824      1.0  0.49692  0.44202  0.26743  1.0000
  H   H825      1.0  0.63291  0.64385  0.12070  1.0000
  H   H826      1.0  0.50777  0.33159  0.38475  1.0000
  C   C1037     1.0  0.86469  0.61248  0.01001  1.0000
  H   H827      1.0  0.90267  0.59554  0.01476  1.0000
  C   C1038     1.0  0.93617  0.56748  0.07297  1.0000
  H   H828      1.0  0.62018  0.36171  0.48595  1.0000
  H   H829      1.0  0.96215  0.62943  0.01289  1.0000
  C   C1039     1.0  0.86526  0.48119  0.05700  1.0000
  C   C1040     1.0  0.96796  0.54702  0.04489  1.0000
  C   C1041     1.0  0.88210  0.59152  0.01156  1.0000
  C   C1042     1.0  0.64623  0.61365  0.09464  1.0000
  H   H830      1.0  0.86508  0.47634  0.07757  1.0000
  C   C1043     1.0  0.66346  0.60740  0.07445  1.0000
  C   C1044     1.0  0.96208  0.56085  0.06750  1.0000
  H   H831      1.0  0.69377  0.62093  0.04901  1.0000
  C   C1045     1.0  0.98692  0.47513  0.00276  1.0000
  H   H832      1.0  0.97771  0.56686  0.08047  1.0000
  H   H833      1.0  0.63311  0.59898  0.10253  1.0000
  H   H834      1.0  0.57196  0.35580  0.48526  1.0000
  H   H835      1.0  0.95345  0.53086  0.00938  1.0000
  Fe  Fe68      1.0  0.49523  0.35853  0.44542  1.0000
  C   C1046     1.0  0.51675  0.60585  0.26316  1.0000
  C   C1047     1.0  0.68041  0.62639  0.06432  1.0000
  H   H836      1.0  0.88843  0.51558  0.06246  1.0000
  C   C1048     1.0  0.92199  0.54719  0.03244  1.0000
  H   H837      1.0  0.97466  0.43629  0.01312  1.0000
  C   C1049     1.0  0.49524  0.58991  0.27005  1.0000
  C   C1050     1.0  0.91619  0.56051  0.05565  1.0000
  C   C1051     1.0  0.64605  0.63886  0.10484  1.0000
  H   H838      1.0  0.89622  0.56596  0.06013  1.0000
  H   H839      1.0  0.99346  0.37229  0.45764  1.0000
  H   H840      1.0  0.70034  0.65089  0.01105  1.0000
  H   H841      1.0  0.80862  0.57915  0.99702  1.0000
  C   C1052     1.0  0.87851  0.50350  0.04832  1.0000
  C   C1053     1.0  0.83823  0.60799  0.00489  1.0000
  C   C1054     1.0  0.84641  0.56146  0.00321  1.0000
  H   H842      1.0  0.50075  0.44447  0.31553  1.0000
  C   C1055     1.0  0.49421  0.32872  0.36875  1.0000
  C   C1056     1.0  0.87882  0.50995  0.02169  1.0000
  H   H843      1.0  0.50669  0.63235  0.35292  1.0000
  C   C1057     1.0  0.97611  0.61390  0.00993  1.0000
  H   H844      1.0  0.98813  0.54237  0.04050  1.0000
  C   C1058     1.0  0.76659  0.64915  0.00546  1.0000
  C   C1059     1.0  0.68012  0.65191  0.07423  1.0000
  H   H845      1.0  0.87185  0.63231  0.01194  1.0000
  H   H846      1.0  0.49663  0.63399  0.05025  1.0000
  C   C1060     1.0  0.51525  0.42735  0.47567  1.0000
  C   C1061     1.0  0.87307  0.56579  0.00843  1.0000
  P   P38       1.0  0.89576  0.53874  0.01012  1.0000
  H   H847      1.0  0.49662  0.57681  0.28656  1.0000
  C   C1062     1.0  0.98743  0.45247  0.01797  1.0000
  C   C1063     1.0  0.85221  0.46518  0.03920  1.0000
  C   C1064     1.0  0.74024  0.64546  0.99912  1.0000
  C   C1065     1.0  0.72069  0.65288  0.01667  1.0000
  C   C1066     1.0  0.66292  0.65783  0.09477  1.0000
  C   C1067     1.0  0.85235  0.47149  0.01269  1.0000
  H   H848      1.0  0.84222  0.45911  0.99885  1.0000
  C   C1068     1.0  0.86554  0.49379  0.00395  1.0000
  C   C1069     1.0  0.82908  0.58252  0.00145  1.0000
  H   H849      1.0  0.83901  0.54195  0.00010  1.0000
  C   C1070     1.0  0.97090  0.59444  0.99162  1.0000
  C   C1071     1.0  0.90998  0.54111  0.93137  1.0000
  Fe  Fe69      1.0  0.88886  0.63433  0.90586  1.0000
  S   S140      1.0  0.86982  0.61828  0.86962  1.0000
  C   C1072     1.0  0.53227  0.32774  0.57179  1.0000
  Fe  Fe70      1.0  0.93660  0.49057  0.82707  1.0000
  C   C1073     1.0  0.84927  0.38356  0.79393  1.0000
  S   S141      1.0  0.89596  0.50680  0.82313  1.0000
  H   H850      1.0  0.92522  0.54005  0.85979  1.0000
  C   C1074     1.0  0.95783  0.44058  0.71439  1.0000
  S   S142      1.0  0.95689  0.47379  0.79220  1.0000
  C   C1075     1.0  0.93193  0.50300  0.94849  1.0000
  S   S143      1.0  0.89123  0.35815  0.71681  1.0000
  C   C1076     1.0  0.97722  0.62032  0.84508  1.0000
  H   H851      1.0  0.91509  0.58396  0.87789  1.0000
  C   C1077     1.0  0.88862  0.39781  0.81661  1.0000
  C   C1078     1.0  0.91232  0.36855  0.74218  1.0000
  C   C1079     1.0  0.92736  0.35112  0.75691  1.0000
  C   C1080     1.0  0.94382  0.36055  0.77688  1.0000
  C   C1081     1.0  0.94546  0.38741  0.78221  1.0000
  C   C1082     1.0  0.93078  0.40479  0.76712  1.0000
  C   C1083     1.0  0.91422  0.39538  0.74732  1.0000
  C   C1084     1.0  0.95447  0.35639  0.68509  1.0000
  C   C1085     1.0  0.96876  0.37391  0.70038  1.0000
  H   H852      1.0  0.93177  0.42546  0.77102  1.0000
  H   H853      1.0  0.90264  0.40900  0.73605  1.0000
  C   C1086     1.0  0.87855  0.58751  0.85718  1.0000
  C   C1087     1.0  0.86163  0.57572  0.83927  1.0000
  C   C1088     1.0  0.86729  0.55105  0.82912  1.0000
  C   C1089     1.0  0.89020  0.53803  0.83637  1.0000
  C   C1090     1.0  0.90757  0.55000  0.85391  1.0000
  C   C1091     1.0  0.90173  0.57476  0.86436  1.0000
  H   H854      1.0  0.84382  0.58555  0.83349  1.0000
  H   H855      1.0  0.85383  0.54203  0.81557  1.0000
  H   H856      1.0  0.94799  0.42255  0.70947  1.0000
  H   H857      1.0  0.90688  0.61767  0.77040  1.0000
  H   H858      1.0  0.87638  0.33655  0.76999  1.0000
  H   H859      1.0  0.77081  0.33357  0.71036  1.0000
  H   H860      1.0  0.85703  0.44972  0.78999  1.0000
  H   H861      1.0  0.96531  0.56228  0.79605  1.0000
  C   C1092     1.0  0.77652  0.37610  0.79986  1.0000
  H   H862      1.0  0.93602  0.52652  0.78413  1.0000
  Fe  Fe71      1.0  0.98181  0.47884  0.86382  1.0000
  H   H863      1.0  0.74239  0.37342  0.85680  1.0000
  C   C1093     1.0  0.78715  0.34539  0.71694  1.0000
  H   H864      1.0  0.97866  0.37234  0.62548  1.0000
  C   C1094     1.0  0.80276  0.35824  0.69862  1.0000
  H   H865      1.0  0.82658  0.41463  0.77638  1.0000
  H   H866      1.0  0.92147  0.46102  0.71991  1.0000
  H   H867      1.0  0.87755  0.58114  0.75927  1.0000
  C   C1095     1.0  0.75821  0.37042  0.84307  1.0000
  H   H868      1.0  0.84814  0.38463  0.73914  1.0000
  H   H869      1.0  0.96124  0.63322  0.84966  1.0000
  C   C1096     1.0  0.98885  0.57401  0.98838  1.0000
  H   H870      1.0  0.95519  0.34698  0.78842  1.0000
  C   C1097     1.0  0.88339  0.42366  0.80968  1.0000
  H   H871      1.0  0.94292  0.50262  0.73260  1.0000
  C   C1098     1.0  0.90098  0.54717  0.95634  1.0000
  S   S144      1.0  0.94091  0.59310  0.97469  1.0000
  H   H872      1.0  0.78278  0.35050  0.87088  1.0000
  S   S145      1.0  0.96544  0.39840  0.80825  1.0000
  H   H873      1.0  0.88933  0.56455  0.95884  1.0000
  H   H874      1.0  0.52861  0.36782  0.58471  1.0000
  C   C1099     1.0  0.49644  0.42278  0.49491  1.0000
  H   H875      1.0  0.86528  0.49845  0.98332  1.0000
  S   S146      1.0  0.87758  0.62041  0.94554  1.0000
  H   H876      1.0  0.64531  0.35157  0.52614  1.0000
  C   C1100     1.0  0.78094  0.35747  0.85100  1.0000
  C   C1101     1.0  0.83060  0.37426  0.73336  1.0000
  H   H877      1.0  0.89195  0.53542  0.76637  1.0000
  C   C1102     1.0  0.84396  0.40967  0.78739  1.0000
  H   H878      1.0  0.91708  0.62551  0.83142  1.0000
  H   H879      1.0  0.93293  0.51471  0.90811  1.0000
  C   C1103     1.0  0.56994  0.34211  0.52497  1.0000
  H   H880      1.0  0.77474  0.38400  0.78034  1.0000
  H   H881      1.0  0.73499  0.63752  0.98028  1.0000
  H   H882      1.0  0.94670  0.34231  0.64638  1.0000
  Fe  Fe72      1.0  0.91995  0.62716  0.95577  1.0000
  H   H883      1.0  0.96536  0.37438  0.72122  1.0000
  C   C1104     1.0  0.98700  0.39092  0.68884  1.0000
  H   H884      1.0  0.92721  0.33176  0.52836  1.0000
  C   C1105     1.0  0.92280  0.50891  0.97350  1.0000
  H   H885      1.0  0.81914  0.34406  0.83985  1.0000
  Fe  Fe73      1.0  0.96845  0.44134  0.81920  1.0000
  S   S147      1.0  0.94531  0.45663  0.85310  1.0000
  H   H886      1.0  0.73861  0.39020  0.81152  1.0000
  C   C1106     1.0  0.87157  0.37783  0.80895  1.0000
  C   C1107     1.0  0.98165  0.61387  0.74372  1.0000
  H   H887      1.0  0.90504  0.55367  0.91510  1.0000
  H   H888      1.0  0.98458  0.55860  0.97465  1.0000
  C   C1108     1.0  0.92995  0.54643  0.78072  1.0000
  C   C1109     1.0  0.90510  0.55149  0.77057  1.0000
  C   C1110     1.0  0.89696  0.57720  0.76680  1.0000
  C   C1111     1.0  0.91358  0.59786  0.77343  1.0000
  C   C1112     1.0  0.93829  0.59292  0.78446  1.0000
  C   C1113     1.0  0.94648  0.56698  0.78772  1.0000
  P   P39       1.0  0.95936  0.61986  0.79326  1.0000
  H   H889      1.0  0.97401  0.47649  0.98604  1.0000
  H   H890      1.0  0.57873  0.38153  0.57776  1.0000
  H   H891      1.0  0.83706  0.38207  0.69262  1.0000
  H   H892      1.0  0.79855  0.35622  0.67799  1.0000
  C   C1114     1.0  0.94264  0.46246  0.72026  1.0000
  C   C1115     1.0  0.51872  0.35107  0.57655  1.0000
  C   C1116     1.0  0.58132  0.37402  0.59736  1.0000
  C   C1117     1.0  0.97604  0.37277  0.64641  1.0000
  S   S148      1.0  0.93160  0.63810  0.91485  1.0000
  H   H893      1.0  0.97285  0.59124  0.92563  1.0000
  S   S149      1.0  0.97114  0.51380  0.83984  1.0000
  C   C1118     1.0  0.79342  0.34672  0.74346  1.0000
  H   H894      1.0  0.94036  0.34338  0.69413  1.0000
  C   C1119     1.0  0.59253  0.38188  0.64255  1.0000
  C   C1120     1.0  0.98197  0.48739  0.72875  1.0000
  C   C1121     1.0  0.92562  0.51917  0.92745  1.0000
  H   H895      1.0  0.94405  0.48600  0.94522  1.0000
  C   C1122     1.0  0.80144  0.35375  0.83336  1.0000
  C   C1123     1.0  0.58294  0.35157  0.50287  1.0000
  C   C1124     1.0  0.86105  0.42959  0.79513  1.0000
  C   C1125     1.0  0.79917  0.36262  0.80755  1.0000
  C   C1126     1.0  0.98077  0.61052  0.81983  1.0000
  C   C1127     1.0  0.58040  0.33839  0.62852  1.0000
  H   H896      1.0  0.49873  0.40675  0.50853  1.0000
  P   P40       1.0  0.82605  0.35832  0.78528  1.0000
  C   C1128     1.0  0.75605  0.37981  0.81755  1.0000
  C   C1129     1.0  0.93852  0.64713  0.80192  1.0000
  C   C1130     1.0  0.95470  0.48588  0.72735  1.0000
  H   H897      1.0  0.80626  0.65282  0.88278  1.0000
  H   H898      1.0  0.59859  0.39513  0.65785  1.0000
  C   C1131     1.0  0.82436  0.37283  0.70685  1.0000
  C   C1132     1.0  0.61122  0.34020  0.54817  1.0000
  C   C1133     1.0  0.58400  0.33619  0.54777  1.0000
  H   H899      1.0  0.96855  0.59751  0.74090  1.0000
  C   C1134     1.0  0.58909  0.39111  0.61713  1.0000
  C   C1135     1.0  0.90775  0.53142  0.97774  1.0000
  C   C1136     1.0  0.95800  0.35587  0.65812  1.0000
  S   S150      1.0  0.98854  0.48876  0.90633  1.0000
  C   C1137     1.0  0.61009  0.35491  0.50326  1.0000
  C   C1138     1.0  0.81527  0.36110  0.75187  1.0000
  H   H900      1.0  0.59248  0.41153  0.61269  1.0000
  H   H901      1.0  0.62243  0.33614  0.56565  1.0000
  H   H902      1.0  0.89671  0.43911  0.81553  1.0000
  C   C1139     1.0  0.98116  0.62832  0.76693  1.0000
  H   H903      1.0  0.92759  0.49604  0.98955  1.0000
  C   C1140     1.0  0.58819  0.35554  0.64823  1.0000
  H   H904      1.0  0.90616  0.39328  0.82767  1.0000
  H   H905      1.0  0.59092  0.34837  0.66794  1.0000
  C   C1141     1.0  0.91961  0.64412  0.82160  1.0000
  C   C1142     1.0  0.57690  0.34750  0.60289  1.0000
  H   H906      1.0  0.97235  0.33294  0.51034  1.0000
  C   C1143     1.0  0.99053  0.39023  0.66168  1.0000
  H   H907      1.0  0.78170  0.33592  0.75732  1.0000
  H   H908      1.0  0.87590  0.35806  0.81492  1.0000
  H   H909      1.0  0.54900  0.33913  0.52394  1.0000
  C   C1144     1.0  0.62422  0.34920  0.52590  1.0000
  H   H910      1.0  0.92625  0.33043  0.75299  1.0000
  H   H911      1.0  0.98415  0.63551  0.94075  1.0000
  C   C1145     1.0  0.98528  0.44205  0.71539  1.0000
  H   H912      1.0  0.99153  0.62157  0.88424  1.0000
  H   H913      1.0  0.99132  0.50521  0.73527  1.0000
  C   C1146     1.0  0.99299  0.59597  0.93050  1.0000
  Fe  Fe74      1.0  0.99269  0.49437  0.80723  1.0000
  H   H914      1.0  0.78174  0.64437  0.99147  1.0000
  Fe  Fe75      1.0  0.69636  0.91039  0.22397  1.0000
  S   S151      1.0  0.70213  0.89201  0.26336  1.0000
  S   S152      1.0  0.73147  0.91611  0.19787  1.0000
  Fe  Fe76      1.0  0.63803  0.91714  0.23215  1.0000
  S   S153      1.0  0.63922  0.89931  0.27211  1.0000
  S   S154      1.0  0.59912  0.92275  0.21228  1.0000
  Fe  Fe77      1.0  0.67569  0.92365  0.27813  1.0000
  S   S155      1.0  0.68018  0.94263  0.31823  1.0000
  Fe  Fe78      1.0  0.66549  0.86964  0.25398  1.0000
  S   S156      1.0  0.66249  0.82606  0.25984  1.0000
  S   S157      1.0  0.67229  0.94396  0.23916  1.0000
  S   S158      1.0  0.66199  0.88568  0.21362  1.0000
  Fe  Fe79      1.0  0.72535  0.81367  0.00931  1.0000
  S   S159      1.0  0.76195  0.82107  0.03229  1.0000
  C   C1147     1.0  0.72115  0.93309  0.04328  1.0000
  Fe  Fe80      1.0  0.69568  0.79339  0.05626  1.0000
  S   S160      1.0  0.72999  0.79847  0.08316  1.0000
  S   S161      1.0  0.65400  0.78336  0.06682  1.0000
  Fe  Fe81      1.0  0.73491  0.83700  0.06304  1.0000
  S   S162      1.0  0.74363  0.87613  0.08137  1.0000
  Fe  Fe82      1.0  0.75413  0.78179  0.05016  1.0000
  S   S163      1.0  0.78779  0.75337  0.05705  1.0000
  S   S164      1.0  0.69920  0.83303  0.03809  1.0000
  S   S165      1.0  0.71910  0.77340  0.02521  1.0000
  Fe  Fe83      1.0  0.53424  0.70575  0.15503  1.0000
  C   C1148     1.0  0.69406  0.71113  0.01958  1.0000
  H   H915      1.0  0.73233  0.68430  0.15291  1.0000
  Fe  Fe84      1.0  0.55678  0.73502  0.20168  1.0000
  S   S166      1.0  0.58360  0.70218  0.21217  1.0000
  S   S167      1.0  0.55609  0.77432  0.22159  1.0000
  Fe  Fe85      1.0  0.59158  0.69999  0.16922  1.0000
  S   S168      1.0  0.63293  0.69759  0.15342  1.0000
  H   H916      1.0  0.49611  0.75537  0.22706  1.0000
  S   S169      1.0  0.56686  0.73463  0.15936  1.0000
  S   S170      1.0  0.52119  0.70926  0.19681  1.0000
  H   H917      1.0  0.75025  0.74941  0.10320  1.0000
  C   C1149     1.0  0.69258  0.96076  0.06916  1.0000
  C   C1150     1.0  0.80071  0.73323  0.03199  1.0000
  C   C1151     1.0  0.67922  0.72792  0.00393  1.0000
  S   S171      1.0  0.51074  0.70616  0.11759  1.0000
  C   C1152     1.0  0.50424  0.85150  0.22004  1.0000
  P   P41       1.0  0.68382  0.97473  0.10037  1.0000
  C   C1153     1.0  0.82504  0.72093  0.03575  1.0000
  P   P42       1.0  0.70189  0.67694  0.06160  1.0000
  C   C1154     1.0  0.75256  0.98493  0.35156  1.0000
  H   H918      1.0  0.75517  0.90656  0.44961  1.0000
  H   H919      1.0  0.83590  0.72452  0.05349  1.0000
  C   C1155     1.0  0.64882  0.75944  0.09085  1.0000
  C   C1156     1.0  0.66957  0.74895  0.10521  1.0000
  C   C1157     1.0  0.66468  0.72981  0.12430  1.0000
  C   C1158     1.0  0.63903  0.72120  0.12911  1.0000
  C   C1159     1.0  0.61847  0.73126  0.11419  1.0000
  C   C1160     1.0  0.62330  0.75053  0.09535  1.0000
  H   H920      1.0  0.68929  0.75575  0.10175  1.0000
  H   H921      1.0  0.68072  0.72183  0.13547  1.0000
  H   H922      1.0  0.59886  0.72382  0.11678  1.0000
  H   H923      1.0  0.60722  0.75831  0.08402  1.0000
  C   C1161     1.0  0.70830  0.95892  0.33052  1.0000
  H   H924      1.0  0.73169  0.97553  0.48742  1.0000
  H   H925      1.0  0.52805  0.86566  0.15965  1.0000
  C   C1162     1.0  0.52500  0.91253  0.12572  1.0000
  C   C1163     1.0  0.55127  0.98151  0.19094  1.0000
  C   C1164     1.0  0.72835  0.96765  0.31412  1.0000
  H   H926      1.0  0.61801  0.97450  0.22662  1.0000
  C   C1165     1.0  0.57677  0.92071  0.10997  1.0000
  H   H927      1.0  0.72684  0.96461  0.29332  1.0000
  C   C1166     1.0  0.73325  0.90367  0.16580  1.0000
  C   C1167     1.0  0.71631  0.88433  0.15612  1.0000
  C   C1168     1.0  0.71929  0.87509  0.13029  1.0000
  C   C1169     1.0  0.73908  0.88535  0.11423  1.0000
  C   C1170     1.0  0.75560  0.90476  0.12401  1.0000
  C   C1171     1.0  0.75299  0.91350  0.14966  1.0000
  H   H928      1.0  0.70119  0.87634  0.16856  1.0000
  H   H929      1.0  0.70638  0.86010  0.12293  1.0000
  H   H930      1.0  0.77080  0.91294  0.11177  1.0000
  H   H931      1.0  0.76633  0.92817  0.15699  1.0000
  C   C1172     1.0  0.63325  0.81203  0.24788  1.0000
  C   C1173     1.0  0.63223  0.78521  0.24258  1.0000
  C   C1174     1.0  0.60884  0.77353  0.23390  1.0000
  C   C1175     1.0  0.58614  0.78851  0.23113  1.0000
  C   C1176     1.0  0.58722  0.81537  0.23623  1.0000
  C   C1177     1.0  0.61078  0.82718  0.24419  1.0000
  H   H932      1.0  0.64958  0.77342  0.24518  1.0000
  H   H933      1.0  0.60830  0.75286  0.22983  1.0000
  H   H934      1.0  0.56979  0.82711  0.23392  1.0000
  H   H935      1.0  0.61137  0.84791  0.24808  1.0000
  H   H936      1.0  0.66114  0.88822  0.13667  1.0000
  C   C1178     1.0  0.92122  0.95492  0.47202  1.0000
  C   C1179     1.0  0.66962  0.92559  0.11916  1.0000
  C   C1180     1.0  0.58605  0.95415  0.20825  1.0000
  C   C1181     1.0  0.56199  0.95676  0.19539  1.0000
  H   H937      1.0  0.56271  0.68651  0.26845  1.0000
  H   H938      1.0  0.55156  0.93963  0.18881  1.0000
  H   H939      1.0  0.58805  0.84535  0.18609  1.0000
  C   C1182     1.0  0.72737  0.66393  0.04083  1.0000
  H   H940      1.0  0.57006  0.73445  0.26701  1.0000
  Fe  Fe86      1.0  0.54886  0.67583  0.20448  1.0000
  H   H941      1.0  0.50951  0.79621  0.20574  1.0000
  C   C1183     1.0  0.66351  0.89298  0.06010  1.0000
  H   H942      1.0  0.59087  0.78106  0.13295  1.0000
  C   C1184     1.0  0.71698  0.69355  0.08878  1.0000
  P   P43       1.0  0.58293  0.86914  0.09256  1.0000
  C   C1185     1.0  0.72832  0.71828  0.08530  1.0000
  C   C1186     1.0  0.56737  0.85448  0.06447  1.0000
  H   H943      1.0  0.52645  0.95167  0.14037  1.0000
  H   H944      1.0  0.95759  0.70722  0.01931  1.0000
  H   H945      1.0  0.51286  0.85820  0.02601  1.0000
  H   H946      1.0  0.69515  0.95649  0.37035  1.0000
  H   H947      1.0  0.52080  0.79284  0.16176  1.0000
  C   C1187     1.0  0.71323  0.97884  0.11960  1.0000
  C   C1188     1.0  0.52625  0.86552  0.18060  1.0000
  H   H948      1.0  0.63807  0.85260  0.03087  1.0000
  C   C1189     1.0  0.89388  0.95083  0.43359  1.0000
  C   C1190     1.0  0.66160  0.87259  0.07810  1.0000
  C   C1191     1.0  0.55090  0.72669  0.27192  1.0000
  C   C1192     1.0  0.54199  0.88007  0.22267  1.0000
  H   H949      1.0  0.72477  0.93777  0.08459  1.0000
  C   C1193     1.0  0.71386  0.94350  0.06737  1.0000
  H   H950      1.0  0.92828  0.94652  0.49006  1.0000
  H   H951      1.0  0.85367  0.69393  0.02043  1.0000
  C   C1194     1.0  0.63235  0.84621  0.01164  1.0000
  H   H952      1.0  0.68629  0.91817  0.10854  1.0000
  H   H953      1.0  0.57787  0.80558  0.02084  1.0000
  C   C1195     1.0  0.71428  0.97851  0.44921  1.0000
  H   H954      1.0  0.67905  0.86207  0.08392  1.0000
  H   H955      1.0  0.62369  0.73004  0.04023  1.0000
  C   C1196     1.0  0.52012  0.80512  0.09682  1.0000
  C   C1197     1.0  0.53874  0.89261  0.11333  1.0000
  C   C1198     1.0  0.63731  0.82058  0.00408  1.0000
  C   C1199     1.0  0.64309  0.72423  0.03407  1.0000
  H   H956      1.0  0.71228  0.68872  0.21582  1.0000
  C   C1200     1.0  0.70692  0.93930  0.02084  1.0000
  H   H957      1.0  0.88027  0.93965  0.42188  1.0000
  H   H958      1.0  0.64242  0.92217  0.03816  1.0000
  H   H959      1.0  0.75097  0.71232  0.23341  1.0000
  H   H960      1.0  0.51896  0.66885  0.27790  1.0000
  C   C1201     1.0  0.51718  0.95165  0.05798  1.0000
  H   H961      1.0  0.55902  0.89154  0.18612  1.0000
  C   C1202     1.0  0.71051  0.96326  0.35751  1.0000
  H   H962      1.0  0.64896  0.69999  0.06734  1.0000
  H   H963      1.0  0.76794  0.73735  0.00594  1.0000
  H   H964      1.0  0.53396  0.81997  0.00579  1.0000
  C   C1203     1.0  0.52186  0.68980  0.27813  1.0000
  H   H965      1.0  0.68239  0.89786  0.05192  1.0000
  C   C1204     1.0  0.69898  0.72134  0.19294  1.0000
  C   C1205     1.0  0.71608  0.70874  0.21007  1.0000
  C   C1206     1.0  0.73782  0.72207  0.21999  1.0000
  C   C1207     1.0  0.74238  0.74807  0.21289  1.0000
  C   C1208     1.0  0.72522  0.76092  0.19577  1.0000
  C   C1209     1.0  0.70355  0.74726  0.18570  1.0000
  P   P44       1.0  0.73127  0.79453  0.18667  1.0000
  C   C1210     1.0  0.70157  0.80736  0.17271  1.0000
  C   C1211     1.0  0.73900  0.81376  0.21512  1.0000
  C   C1212     1.0  0.72887  0.80665  0.23959  1.0000
  C   C1213     1.0  0.73383  0.82210  0.26146  1.0000
  C   C1214     1.0  0.74874  0.84485  0.25905  1.0000
  C   C1215     1.0  0.75829  0.85245  0.23467  1.0000
  C   C1216     1.0  0.75346  0.83700  0.21277  1.0000
  C   C1217     1.0  0.69627  0.80364  0.14615  1.0000
  C   C1218     1.0  0.67304  0.81289  0.13524  1.0000
  C   C1219     1.0  0.65463  0.82523  0.15098  1.0000
  C   C1220     1.0  0.65922  0.82809  0.17762  1.0000
  C   C1221     1.0  0.68274  0.81944  0.18846  1.0000
  C   C1222     1.0  0.75717  0.79685  0.16267  1.0000
  C   C1223     1.0  0.75885  0.81892  0.14651  1.0000
  C   C1224     1.0  0.77716  0.82008  0.12632  1.0000
  C   C1225     1.0  0.79397  0.79909  0.12202  1.0000
  C   C1226     1.0  0.79305  0.77735  0.13851  1.0000
  C   C1227     1.0  0.77494  0.77634  0.15897  1.0000
  H   H966      1.0  0.68191  0.71114  0.18542  1.0000
  H   H967      1.0  0.75916  0.75827  0.22087  1.0000
  H   H968      1.0  0.68981  0.75649  0.17253  1.0000
  H   H969      1.0  0.71623  0.78977  0.24167  1.0000
  H   H970      1.0  0.72515  0.81691  0.28003  1.0000
  H   H971      1.0  0.75202  0.85713  0.27586  1.0000
  H   H972      1.0  0.76868  0.87080  0.23251  1.0000
  H   H973      1.0  0.76044  0.84373  0.19402  1.0000
  H   H974      1.0  0.70986  0.79310  0.13404  1.0000
  H   H975      1.0  0.66911  0.81004  0.11470  1.0000
  H   H976      1.0  0.63661  0.83215  0.14267  1.0000
  H   H977      1.0  0.64445  0.83676  0.19000  1.0000
  H   H978      1.0  0.68589  0.82189  0.20914  1.0000
  H   H979      1.0  0.74563  0.83506  0.14925  1.0000
  H   H980      1.0  0.77780  0.83701  0.11356  1.0000
  H   H981      1.0  0.80754  0.79958  0.10577  1.0000
  H   H982      1.0  0.80615  0.76112  0.13508  1.0000
  H   H983      1.0  0.77464  0.75939  0.17149  1.0000
  C   C1228     1.0  0.76011  0.91148  0.42965  1.0000
  C   C1229     1.0  0.77490  0.93385  0.42443  1.0000
  C   C1230     1.0  0.78151  0.94009  0.39875  1.0000
  C   C1231     1.0  0.77315  0.92424  0.37818  1.0000
  C   C1232     1.0  0.75854  0.90156  0.38329  1.0000
  C   C1233     1.0  0.75205  0.89532  0.40920  1.0000
  P   P45       1.0  0.74942  0.87948  0.35738  1.0000
  C   C1234     1.0  0.76091  0.84747  0.36701  1.0000
  C   C1235     1.0  0.71441  0.87940  0.35185  1.0000
  C   C1236     1.0  0.69738  0.89295  0.36846  1.0000
  C   C1237     1.0  0.67042  0.89298  0.36361  1.0000
  C   C1238     1.0  0.66028  0.87963  0.34213  1.0000
  C   C1239     1.0  0.67708  0.86631  0.32540  1.0000
  C   C1240     1.0  0.70404  0.86643  0.33004  1.0000
  C   C1241     1.0  0.78475  0.84507  0.38053  1.0000
  C   C1242     1.0  0.79386  0.82054  0.38829  1.0000
  C   C1243     1.0  0.77925  0.79818  0.38267  1.0000
  C   C1244     1.0  0.75550  0.80035  0.36932  1.0000
  C   C1245     1.0  0.74631  0.82486  0.36155  1.0000
  C   C1246     1.0  0.76536  0.88899  0.32733  1.0000
  C   C1247     1.0  0.79071  0.88027  0.32138  1.0000
  C   C1248     1.0  0.80287  0.88804  0.29816  1.0000
  C   C1249     1.0  0.78989  0.90465  0.28080  1.0000
  C   C1250     1.0  0.76476  0.91351  0.28666  1.0000
  C   C1251     1.0  0.75257  0.90577  0.30982  1.0000
  C   C1252     1.0  0.52637  0.79323  0.12052  1.0000
  C   C1253     1.0  0.73262  0.97604  0.36799  1.0000
  H   H984      1.0  0.79309  0.95737  0.39472  1.0000
  H   H985      1.0  0.77822  0.92985  0.35844  1.0000
  H   H986      1.0  0.74092  0.87782  0.41356  1.0000
  H   H987      1.0  0.70478  0.90417  0.38467  1.0000
  H   H988      1.0  0.65746  0.90412  0.37596  1.0000
  H   H989      1.0  0.63949  0.88023  0.33795  1.0000
  H   H990      1.0  0.66924  0.85638  0.30846  1.0000
  H   H991      1.0  0.71680  0.85664  0.31639  1.0000
  H   H992      1.0  0.79637  0.86219  0.38507  1.0000
  H   H993      1.0  0.81225  0.81889  0.39873  1.0000
  H   H994      1.0  0.78630  0.77917  0.38872  1.0000
  H   H995      1.0  0.74410  0.78301  0.36504  1.0000
  H   H996      1.0  0.72776  0.82588  0.35150  1.0000
  H   H997      1.0  0.80123  0.86762  0.33459  1.0000
  H   H998      1.0  0.82244  0.88133  0.29367  1.0000
  H   H999      1.0  0.79927  0.91076  0.26284  1.0000
  H   H1000     1.0  0.75464  0.92641  0.27322  1.0000
  H   H1001     1.0  0.73310  0.91290  0.31398  1.0000
  H   H1002     1.0  0.76581  0.98712  0.31175  1.0000
  H   H1003     1.0  0.64694  0.80729  0.01742  1.0000
  C   C1254     1.0  0.64106  0.90648  0.05232  1.0000
  H   H1004     1.0  0.89203  0.98491  0.40883  1.0000
  H   H1005     1.0  0.69669  0.98734  0.41239  1.0000
  C   C1255     1.0  0.75874  0.98624  0.14945  1.0000
  H   H1006     1.0  0.52811  0.79760  0.07881  1.0000
  H   H1007     1.0  0.59034  0.79775  0.17804  1.0000
  C   C1256     1.0  0.54676  0.69977  0.27272  1.0000
  C   C1257     1.0  0.50304  0.82632  0.09632  1.0000
  H   H1008     1.0  0.62426  0.90479  0.16323  1.0000
  H   H1009     1.0  0.55586  0.89127  0.23414  1.0000
  H   H1010     1.0  0.72144  0.95971  0.44286  1.0000
  H   H1011     1.0  0.89876  0.92065  0.46253  1.0000
  C   C1258     1.0  0.58565  0.84615  0.11945  1.0000
  C   C1259     1.0  0.63475  0.91782  0.15021  1.0000
  C   C1260     1.0  0.67854  0.96705  0.04640  1.0000
  H   H1012     1.0  0.75155  0.72814  0.14666  1.0000
  C   C1261     1.0  0.53014  0.74367  0.27674  1.0000
  H   H1013     1.0  0.55310  0.92992  0.05957  1.0000
  C   C1262     1.0  0.58767  0.83807  0.16627  1.0000
  H   H1014     1.0  0.58716  0.81086  0.09601  1.0000
  C   C1263     1.0  0.58732  0.81908  0.11527  1.0000
  C   C1264     1.0  0.58902  0.81126  0.16181  1.0000
  H   H1015     1.0  0.50501  0.90941  0.13215  1.0000
  C   C1265     1.0  0.58626  0.85546  0.14522  1.0000
  H   H1016     1.0  0.52936  0.87390  0.11065  1.0000
  C   C1266     1.0  0.54330  0.86358  0.05475  1.0000
  C   C1267     1.0  0.54385  0.88012  0.19552  1.0000
  C   C1268     1.0  0.58924  0.80184  0.13635  1.0000
  C   C1269     1.0  0.64215  0.96133  0.13318  1.0000
  C   C1270     1.0  0.90432  0.94014  0.45644  1.0000
  H   H1017     1.0  0.58566  0.87617  0.14920  1.0000
  C   C1271     1.0  0.50520  0.73378  0.28224  1.0000
  C   C1272     1.0  0.56290  0.94068  0.12231  1.0000
  C   C1273     1.0  0.54352  0.82986  0.02179  1.0000
  C   C1274     1.0  0.99275  0.68412  0.01776  1.0000
  C   C1275     1.0  0.56808  0.82164  0.03037  1.0000
  C   C1276     1.0  0.53710  0.93649  0.13031  1.0000
  H   H1018     1.0  0.71160  0.66161  0.11623  1.0000
  H   H1019     1.0  0.77638  0.98858  0.16096  1.0000
  C   C1277     1.0  0.66298  0.95214  0.11789  1.0000
  C   C1278     1.0  0.65550  0.90853  0.13523  1.0000
  C   C1279     1.0  0.58017  0.83419  0.05129  1.0000
  H   H1020     1.0  0.71216  0.93055  0.00236  1.0000
  C   C1280     1.0  0.53146  0.85123  0.03350  1.0000
  C   C1281     1.0  0.53957  0.94040  0.04723  1.0000
  C   C1282     1.0  0.71916  0.68110  0.11316  1.0000
  H   H1021     1.0  0.53917  0.77640  0.12090  1.0000
  H   H1022     1.0  0.50386  0.67431  0.32934  1.0000
  C   C1283     1.0  0.65771  0.70714  0.04957  1.0000
  H   H1023     1.0  0.72780  0.72790  0.06647  1.0000
  C   C1284     1.0  0.74100  0.73059  0.10611  1.0000
  H   H1024     1.0  0.57222  0.95930  0.12617  1.0000
  C   C1285     1.0  0.73128  0.69375  0.13403  1.0000
  C   C1286     1.0  0.68559  0.95623  0.02242  1.0000
  C   C1287     1.0  0.74210  0.71850  0.13051  1.0000
  C   C1288     1.0  0.54467  0.94303  0.02059  1.0000
  H   H1025     1.0  0.59953  0.82787  0.05723  1.0000
  C   C1289     1.0  0.56465  0.89653  0.10514  1.0000
  C   C1290     1.0  0.73576  0.97741  0.16133  1.0000
  H   H1026     1.0  0.53340  0.76456  0.27555  1.0000
  C   C1291     1.0  0.90058  0.97622  0.42615  1.0000
  C   C1292     1.0  0.59938  0.97642  0.21678  1.0000
  H   H1027     1.0  0.63606  0.84892  0.10118  1.0000
  H   H1028     1.0  0.59703  0.92413  0.10492  1.0000
  H   H1029     1.0  0.53354  0.88018  0.06322  1.0000
  C   C1293     1.0  0.61465  0.87915  0.08085  1.0000
  H   H1030     1.0  0.61231  0.95146  0.16117  1.0000
  C   C1294     1.0  0.62805  0.94418  0.14910  1.0000
  C   C1295     1.0  0.83528  0.70374  0.01691  1.0000
  C   C1296     1.0  0.51551  0.80245  0.14374  1.0000
  H   H1031     1.0  0.66274  0.67709  0.10339  1.0000
  H   H1032     1.0  0.73463  0.97860  0.38876  1.0000
  C   C1297     1.0  0.78676  0.72822  0.00904  1.0000
  C   C1298     1.0  0.61666  0.89948  0.06252  1.0000
  C   C1299     1.0  0.63722  0.86544  0.08817  1.0000
  C   C1300     1.0  0.75039  0.98049  0.32462  1.0000
  H   H1033     1.0  0.73738  0.91950  0.04224  1.0000
  C   C1301     1.0  0.68328  0.70017  0.04237  1.0000
  C   C1302     1.0  0.63351  0.98101  0.38262  1.0000
  H   H1034     1.0  0.59938  0.90981  0.05593  1.0000
  H   H1035     1.0  0.56216  0.93453  0.01228  1.0000
  C   C1303     1.0  0.71307  0.97376  0.14654  1.0000
  C   C1304     1.0  0.71994  0.98734  0.47433  1.0000
  H   H1036     1.0  0.49659  0.73080  0.06941  1.0000
  H   H1037     1.0  0.67411  0.96071  0.00518  1.0000
  C   C1305     1.0  0.92777  0.98058  0.46482  1.0000
  C   C1306     1.0  0.50084  0.70670  0.28297  1.0000
  C   C1307     1.0  0.63929  0.98376  0.35615  1.0000
  H   H1038     1.0  0.75994  0.67625  0.06527  1.0000
  H   H1039     1.0  0.66189  0.97997  0.04688  1.0000
  S   S172      1.0  0.61001  0.97453  0.01692  1.0000
  H   H1040     1.0  0.78136  0.94635  0.44024  1.0000
  C   C1308     1.0  0.52222  0.86572  0.23494  1.0000
  H   H1041     1.0  0.71409  0.70719  0.01398  1.0000
  C   C1309     1.0  0.91758  0.99096  0.44160  1.0000
  S   S173      1.0  0.55968  0.67061  0.16224  1.0000
  C   C1310     1.0  0.97203  0.69814  0.00686  1.0000
  H   H1042     1.0  0.53254  0.98327  0.18128  1.0000
  H   H1043     1.0  0.61626  0.88336  0.00032  1.0000
  C   C1311     1.0  0.50633  0.85110  0.19274  1.0000
  H   H1044     1.0  0.63727  0.98185  0.13375  1.0000
  C   C1312     1.0  0.62010  0.86346  0.99441  1.0000
  C   C1313     1.0  0.65381  0.73461  0.01127  1.0000
  H   H1045     1.0  0.52079  0.86577  0.25599  1.0000
  H   H1046     1.0  0.69566  0.96661  0.15628  1.0000
  H   H1047     1.0  0.51308  0.94962  0.07862  1.0000
  C   C1314     1.0  0.52747  0.95706  0.00467  1.0000
  H   H1048     1.0  0.63218  0.96954  0.34218  1.0000
  H   H1049     1.0  0.64268  0.74836  0.99970  1.0000
  H   H1050     1.0  0.73563  0.97273  0.18197  1.0000
  H   H1051     1.0  0.62159  0.96477  0.38916  1.0000
  C   C1315     1.0  0.57833  0.99157  0.05644  1.0000
  H   H1052     1.0  0.63166  0.98923  0.08115  1.0000
  C   C1316     1.0  0.75398  0.66721  0.04718  1.0000
  C   C1317     1.0  0.50511  0.96878  0.01537  1.0000
  H   H1053     1.0  0.79388  0.66330  0.03414  1.0000
  H   H1054     1.0  0.58745  0.97647  0.06805  1.0000
  C   C1318     1.0  0.73628  0.98816  0.10787  1.0000
  H   H1055     1.0  0.49765  0.83519  0.07791  1.0000
  C   C1319     1.0  0.75899  0.99168  0.12274  1.0000
  C   C1320     1.0  0.49762  0.82324  0.14337  1.0000
  H   H1056     1.0  0.84162  0.98430  0.48335  1.0000
  C   C1321     1.0  0.49992  0.96564  0.04210  1.0000
  C   C1322     1.0  0.82106  0.69832  0.99423  1.0000
  H   H1057     1.0  0.97316  0.99183  0.43643  1.0000
  C   C1323     1.0  0.77344  0.65983  0.02953  1.0000
  Fe  Fe87      1.0  0.57570  0.94612  0.93072  1.0000
  H   H1058     1.0  0.75664  0.93703  0.55933  1.0000
  S   S174      1.0  0.53495  0.93065  0.92237  1.0000
  C   C1324     1.0  0.67784  0.88257  0.95516  1.0000
  C   C1325     1.0  0.71010  0.96172  0.94470  1.0000
  Fe  Fe88      1.0  0.63439  0.93741  0.92941  1.0000
  H   H1059     1.0  0.72448  0.83888  0.91468  1.0000
  C   C1326     1.0  0.96418  0.95640  0.54983  1.0000
  S   S175      1.0  0.60600  0.95281  0.89969  1.0000
  C   C1327     1.0  0.72114  0.95741  0.92023  1.0000
  Fe  Fe89      1.0  0.86497  0.96122  0.65151  1.0000
  S   S176      1.0  0.87224  0.92383  0.62997  1.0000
  S   S177      1.0  0.82426  0.97230  0.66449  1.0000
  H   H1060     1.0  0.79290  0.67904  0.92118  1.0000
  S   S178      1.0  0.93214  0.94493  0.62065  1.0000
  S   S179      1.0  0.83082  0.67359  0.97207  1.0000
  Fe  Fe90      1.0  0.89298  0.94912  0.60088  1.0000
  S   S180      1.0  0.88969  0.94658  0.55700  1.0000
  Fe  Fe91      1.0  0.91071  0.92237  0.65188  1.0000
  S   S181      1.0  0.92422  0.88187  0.66541  1.0000
  H   H1061     1.0  0.68768  0.85734  0.98756  1.0000
  S   S182      1.0  0.90147  0.95802  0.67588  1.0000
  H   H1062     1.0  0.78534  0.70625  0.97325  1.0000
  S   S183      1.0  0.60350  0.92746  0.95891  1.0000
  C   C1328     1.0  0.83649  0.72167  0.89403  1.0000
  S   S184      1.0  0.94433  0.71496  0.91530  1.0000
  H   H1063     1.0  0.81158  0.72271  0.92822  1.0000
  H   H1064     1.0  0.56789  0.85547  0.91585  1.0000
  H   H1065     1.0  0.69939  0.98999  0.97343  1.0000
  H   H1066     1.0  0.66469  0.89469  0.96631  1.0000
  H   H1067     1.0  0.94202  0.83109  0.68101  1.0000
  C   C1329     1.0  0.86134  0.95946  0.54203  1.0000
  C   C1330     1.0  0.77584  0.98858  0.75442  1.0000
  H   H1068     1.0  0.70220  0.87612  0.89383  1.0000
  H   H1069     1.0  0.97694  0.97023  0.66350  1.0000
  C   C1331     1.0  0.82656  0.77522  0.90947  1.0000
  C   C1332     1.0  0.60650  0.88929  0.87388  1.0000
  H   H1070     1.0  0.74057  0.97137  0.63051  1.0000
  C   C1333     1.0  0.95890  0.71552  0.88410  1.0000
  C   C1334     1.0  0.97161  0.96504  0.72930  1.0000
  H   H1071     1.0  0.98554  0.68956  0.94276  1.0000
  C   C1335     1.0  0.50528  0.98877  0.94568  1.0000
  C   C1336     1.0  0.98806  0.68811  0.96366  1.0000
  Fe  Fe92      1.0  0.92026  0.98054  0.64295  1.0000
  H   H1072     1.0  0.70244  0.94532  0.95573  1.0000
  H   H1073     1.0  0.60628  0.76886  0.89996  1.0000
  C   C1337     1.0  0.52248  0.90305  0.93906  1.0000
  C   C1338     1.0  0.52865  0.86136  0.96099  1.0000
  C   C1339     1.0  0.78264  0.79200  0.90221  1.0000
  C   C1340     1.0  0.80328  0.77569  0.89488  1.0000
  H   H1074     1.0  0.63419  0.79219  0.97379  1.0000
  C   C1341     1.0  0.86257  0.96785  0.51602  1.0000
  S   S185      1.0  0.64360  0.97648  0.94637  1.0000
  C   C1342     1.0  0.87452  0.75019  0.92836  1.0000
  H   H1075     1.0  0.89533  0.70587  0.82304  1.0000
  H   H1076     1.0  0.68747  0.97688  0.53323  1.0000
  C   C1343     1.0  0.75026  0.97879  0.75521  1.0000
  C   C1344     1.0  0.84315  0.70711  0.87181  1.0000
  H   H1077     1.0  0.52462  0.99118  0.90852  1.0000
  C   C1345     1.0  0.90845  0.75889  0.84447  1.0000
  C   C1346     1.0  0.68721  0.97120  0.80780  1.0000
  C   C1347     1.0  0.70813  0.98709  0.95445  1.0000
  H   H1078     1.0  0.50024  0.96844  0.94301  1.0000
  H   H1079     1.0  0.64698  0.88095  0.86592  1.0000
  H   H1080     1.0  0.91090  0.78588  0.81231  1.0000
  H   H1081     1.0  0.64887  0.84309  0.89532  1.0000
  H   H1082     1.0  0.95834  0.97000  0.74496  1.0000
  C   C1348     1.0  0.90802  0.74854  0.97184  1.0000
  H   H1083     1.0  0.99014  0.89480  0.73518  1.0000
  C   C1349     1.0  0.99127  0.97705  0.50709  1.0000
  H   H1084     1.0  0.69956  0.78504  0.92220  1.0000
  H   H1085     1.0  0.64011  0.73742  0.88650  1.0000
  C   C1350     1.0  0.96433  0.98174  0.50971  1.0000
  C   C1351     1.0  0.95098  0.97147  0.53132  1.0000
  C   C1352     1.0  0.98233  0.96521  0.68332  1.0000
  C   C1353     1.0  0.65269  0.97474  0.84016  1.0000
  H   H1086     1.0  0.66084  0.95747  0.87757  1.0000
  Fe  Fe93      1.0  0.61379  0.99165  0.91805  1.0000
  S   S186      1.0  0.72381  0.81845  0.96581  1.0000
  C   C1354     1.0  0.98161  0.89036  0.62086  1.0000
  C   C1355     1.0  0.68202  0.88784  0.92867  1.0000
  C   C1356     1.0  0.64567  0.75477  0.89718  1.0000
  C   C1357     1.0  0.63365  0.79516  0.91872  1.0000
  C   C1358     1.0  0.78507  0.80786  0.92419  1.0000
  C   C1359     1.0  0.91374  0.76507  0.95092  1.0000
  H   H1087     1.0  0.73887  0.97516  0.88647  1.0000
  H   H1088     1.0  0.95345  0.94845  0.56626  1.0000
  H   H1089     1.0  0.50599  0.77661  0.93403  1.0000
  C   C1360     1.0  0.74822  0.97336  0.57849  1.0000
  S   S187      1.0  0.66723  0.91402  0.91235  1.0000
  C   C1361     1.0  0.67199  0.75916  0.90339  1.0000
  H   H1090     1.0  0.93028  0.97517  0.53387  1.0000
  C   C1362     1.0  0.66014  0.79947  0.92468  1.0000
  C   C1363     1.0  0.66802  0.96094  0.85801  1.0000
  C   C1364     1.0  0.70236  0.95705  0.82576  1.0000
  H   H1091     1.0  0.72154  0.94990  0.82040  1.0000
  C   C1365     1.0  0.95254  0.84511  0.69277  1.0000
  C   C1366     1.0  0.63054  0.85336  0.89315  1.0000
  C   C1367     1.0  0.97155  0.69388  0.84407  1.0000
  C   C1368     1.0  0.70430  0.97579  0.54606  1.0000
  H   H1092     1.0  0.80098  0.76319  0.87804  1.0000
  C   C1369     1.0  0.69096  0.86154  0.96720  1.0000
  C   C1370     1.0  0.94044  0.67127  0.78889  1.0000
  C   C1371     1.0  0.81742  0.71177  0.91117  1.0000
  C   C1372     1.0  0.86174  0.78425  0.85722  1.0000
  C   C1373     1.0  0.79675  0.71063  0.99046  1.0000
  H   H1093     1.0  0.92743  0.71114  0.78711  1.0000
  C   C1374     1.0  0.69271  0.95187  0.85076  1.0000
  H   H1094     1.0  0.83623  0.95413  0.57530  1.0000
  C   C1375     1.0  0.73342  0.98551  0.77576  1.0000
  C   C1376     1.0  0.62652  0.77268  0.90483  1.0000
  C   C1377     1.0  0.53904  0.88464  0.95056  1.0000
  C   C1378     1.0  0.52603  0.78348  0.93297  1.0000
  H   H1095     1.0  0.70423  0.94078  0.86461  1.0000
  C   C1379     1.0  0.89700  0.76606  0.92935  1.0000
  C   C1380     1.0  0.88556  0.73299  0.97121  1.0000
  Fe  Fe94      1.0  0.60969  0.96845  0.97323  1.0000
  C   C1381     1.0  0.96130  0.88982  0.70473  1.0000
  H   H1096     1.0  0.92656  0.74908  0.83954  1.0000
  H   H1097     1.0  0.90142  0.73492  0.87815  1.0000
  H   H1098     1.0  0.76572  0.97236  0.59045  1.0000
  C   C1382     1.0  0.61830  0.82947  0.96156  1.0000
  C   C1383     1.0  0.73566  0.98680  0.64389  1.0000
  H   H1099     1.0  0.90180  0.77916  0.91347  1.0000
  C   C1384     1.0  0.73041  0.97846  0.90553  1.0000
  H   H1100     1.0  0.86949  0.80839  0.82354  1.0000
  C   C1385     1.0  0.69896  0.87211  0.91429  1.0000
  C   C1386     1.0  0.74315  0.95326  0.56082  1.0000
  H   H1101     1.0  0.56668  0.89385  0.88695  1.0000
  H   H1102     1.0  0.95160  0.67503  0.87601  1.0000
  Fe  Fe95      1.0  0.87121  0.66254  0.95600  1.0000
  C   C1387     1.0  0.66378  0.91700  0.73528  1.0000
  C   C1388     1.0  0.68317  0.89783  0.73464  1.0000
  C   C1389     1.0  0.70740  0.90241  0.74646  1.0000
  C   C1390     1.0  0.71239  0.92631  0.75860  1.0000
  C   C1391     1.0  0.69344  0.94612  0.75826  1.0000
  C   C1392     1.0  0.66876  0.94094  0.74736  1.0000
  P   P46       1.0  0.69922  0.97642  0.77514  1.0000
  C   C1393     1.0  0.80648  0.68709  0.90706  1.0000
  C   C1394     1.0  0.71166  0.85109  0.92612  1.0000
  C   C1395     1.0  0.92494  0.69234  0.79654  1.0000
  C   C1396     1.0  0.96978  0.73881  0.87442  1.0000
  S   S188      1.0  0.87996  0.67594  0.91526  1.0000
  H   H1103     1.0  0.88097  0.96708  0.50577  1.0000
  C   C1397     1.0  0.84021  0.97759  0.50329  1.0000
  H   H1104     1.0  0.60397  0.86884  0.95621  1.0000
  C   C1398     1.0  0.99097  0.95179  0.54716  1.0000
  C   C1399     1.0  0.63019  0.81216  0.97923  1.0000
  C   C1400     1.0  0.53682  0.79085  0.90903  1.0000
  C   C1401     1.0  0.81396  0.67235  0.88547  1.0000
  H   H1105     1.0  0.72217  0.93773  0.91262  1.0000
  H   H1106     1.0  0.96728  0.89118  0.60529  1.0000
  H   H1107     1.0  0.85165  0.72164  0.94974  1.0000
  S   S189      1.0  0.58035  0.98674  0.94648  1.0000
  H   H1108     1.0  0.64477  0.91323  0.72665  1.0000
  H   H1109     1.0  0.67930  0.87926  0.72532  1.0000
  H   H1110     1.0  0.72227  0.88736  0.74645  1.0000
  H   H1111     1.0  0.73098  0.92918  0.76838  1.0000
  H   H1112     1.0  0.63366  0.98200  0.84602  1.0000
  H   H1113     1.0  0.60603  0.90635  0.86137  1.0000
  H   H1114     1.0  0.55992  0.88791  0.95053  1.0000
  H   H1115     1.0  0.95416  0.67436  0.77319  1.0000
  S   S190      1.0  0.88304  0.98648  0.62076  1.0000
  H   H1116     1.0  0.84651  0.79143  0.94318  1.0000
  C   C1402     1.0  0.90420  0.66529  0.82922  1.0000
  C   C1403     1.0  0.83200  0.68250  0.86767  1.0000
  C   C1404     1.0  0.70792  0.84581  0.95259  1.0000
  C   C1405     1.0  0.72124  0.95449  0.54458  1.0000
  C   C1406     1.0  0.62952  0.87483  0.87629  1.0000
  C   C1407     1.0  0.58521  0.86055  0.90483  1.0000
  H   H1117     1.0  0.73526  0.96066  0.67686  1.0000
  C   C1408     1.0  0.95982  0.69306  0.86880  1.0000
  C   C1409     1.0  0.82893  0.79145  0.93138  1.0000
  C   C1410     1.0  0.89958  0.77959  0.82909  1.0000
  H   H1118     1.0  0.52521  0.78941  0.89142  1.0000
  H   H1119     1.0  0.85750  0.71412  0.85804  1.0000
  C   C1411     1.0  0.87624  0.79226  0.83545  1.0000
  C   C1412     1.0  0.81615  0.97816  0.51626  1.0000
  Fe  Fe96      1.0  0.92178  0.67879  0.92755  1.0000
  H   H1120     1.0  0.54179  0.84676  0.96860  1.0000
  C   C1413     1.0  0.87062  0.76354  0.87284  1.0000
  H   H1121     1.0  0.68681  0.74526  0.89758  1.0000
  H   H1122     1.0  0.78871  0.98364  0.73837  1.0000
  P   P47       1.0  0.85225  0.75259  0.90095  1.0000
  H   H1123     1.0  0.84382  0.79442  0.86185  1.0000
  C   C1414     1.0  0.90698  0.68942  0.81683  1.0000
  H   H1124     1.0  0.57730  0.79741  0.97264  1.0000
  C   C1415     1.0  0.94753  0.87194  0.68935  1.0000
  H   H1125     1.0  0.53229  0.78021  0.97430  1.0000
  C   C1416     1.0  0.58437  0.88223  0.88826  1.0000
  C   C1417     1.0  0.80820  0.80761  0.93872  1.0000
  H   H1126     1.0  0.92107  0.74766  0.98845  1.0000
  C   C1418     1.0  0.89413  0.75092  0.86630  1.0000
  C   C1419     1.0  0.86886  0.73383  0.94962  1.0000
  H   H1127     1.0  0.95771  0.91046  0.70236  1.0000
  C   C1420     1.0  0.66210  0.97965  0.81503  1.0000
  C   C1421     1.0  0.54090  0.78556  0.95573  1.0000
  C   C1422     1.0  0.67920  0.78152  0.91715  1.0000
  H   H1128     1.0  0.65328  0.95531  0.74836  1.0000
  H   H1129     1.0  0.53160  0.95854  0.98402  1.0000
  C   C1423     1.0  0.83742  0.96060  0.55523  1.0000
  H   H1130     1.0  0.74362  0.96649  0.73945  1.0000
  H   H1131     1.0  0.98914  0.75781  0.84193  1.0000
  H   H1132     1.0  0.66607  0.81668  0.93535  1.0000
  C   C1424     1.0  0.56640  0.79549  0.95469  1.0000
  C   C1425     1.0  0.60829  0.84592  0.90742  1.0000
  C   C1426     1.0  0.56235  0.80072  0.90790  1.0000
  C   C1427     1.0  0.57715  0.80360  0.93081  1.0000
  H   H1133     1.0  0.71762  0.93908  0.53062  1.0000
  H   H1134     1.0  0.96921  0.75627  0.88619  1.0000
  H   H1135     1.0  0.57030  0.80677  0.88926  1.0000
  C   C1428     1.0  0.61314  0.85515  0.96939  1.0000
  C   C1429     1.0  0.81484  0.96943  0.54219  1.0000
  H   H1136     1.0  0.80986  0.81970  0.95595  1.0000
  P   P48       1.0  0.60933  0.81831  0.92941  1.0000
  H   H1137     1.0  0.93138  0.77684  0.95117  1.0000
  C   C1430     1.0  0.96567  0.97224  0.70369  1.0000
  H   H1138     1.0  0.76459  0.79214  0.89111  1.0000
  H   H1139     1.0  0.76893  0.82018  0.93018  1.0000
  H   H1140     1.0  0.94792  0.98292  0.69945  1.0000
  S   S191      1.0  0.91288  0.66826  0.96958  1.0000
  H   H1141     1.0  0.79644  0.96994  0.55238  1.0000
  C   C1431     1.0  0.98185  0.71720  0.83405  1.0000
  C   C1432     1.0  0.98109  0.73973  0.84937  1.0000
  C   C1433     1.0  0.97118  0.83623  0.71113  1.0000
  H   H1142     1.0  0.83812  0.67077  0.85123  1.0000
  H   H1143     1.0  0.95379  0.71111  0.97122  1.0000
  H   H1144     1.0  0.97279  0.67635  0.83264  1.0000
  H   H1145     1.0  0.68083  0.98682  0.72131  1.0000
  C   C1434     1.0  0.73261  0.98059  0.67029  1.0000
  C   C1435     1.0  0.96982  0.70026  0.97983  1.0000
  H   H1146     1.0  0.88107  0.72012  0.98737  1.0000
  C   C1436     1.0  0.50146  0.85707  0.96146  1.0000
  H   H1147     1.0  0.97486  0.81558  0.71343  1.0000
  C   C1437     1.0  0.97976  0.88091  0.72323  1.0000
  H   H1148     1.0  0.64975  0.99012  0.80144  1.0000
  C   C1438     1.0  0.98494  0.85413  0.72650  1.0000
  H   H1149     1.0  0.89030  0.66305  0.84499  1.0000
  H   H1150     1.0  0.97546  0.84940  0.62823  1.0000
  H   H1151     1.0  0.68781  0.73653  0.98660  1.0000
  H   H1152     1.0  0.98985  0.93135  0.61934  1.0000
  C   C1439     1.0  0.98620  0.86677  0.63378  1.0000
  S   S192      1.0  0.78755  0.98971  0.50056  1.0000
  C   C1440     1.0  0.49537  0.89864  0.93931  1.0000
