data_image0
_chemical_formula_structural       C2SFeC3SFeSFeS2FeHS2FeS2H3C3FeSHFeS2FeS2FeHFeS3C6H4CHC8H4C2H2C2HC3H3C7HCSCHC3H2C6H2C7H2CH6C4PC18H4C2H12CHC2HCHC6HC4H7CSH6CH2PH3C2H2SC2PH3CH3CH2CSH6C3SH2C2SC2H2SHCH2C3PCH2C4HCH3C2Fe2HCHC4H3CHC7PC3H2C5HC8H2CHCPC2HCH2C4HC4HCH2CH2C2SCHCH2C2H2CHC2HCH2CH3CH6SCH2CHFeCPC4FeSCHSHC2SFeS2HSCHFeSHFeS2FeS2FeSFeS3C7H7C7H4CHC3H2C3HC2HSC3HCH2PC2H5CHC2H3CHCHC4H3CFeH2C3HSCHCSPC14HCHCHCH8FeSCHCHCHC4PC10H2C2HCHC2H3PH7C2H2CH2C8H2CH4CH3CH4C2SH2CHC3HC9HCH4CHFeCH2C3SC2HCH2CHC2PH2CSC5H4C2HCHCH2CHSCFeS2FeS2FeSFeS3FeS2CSHFeSHFeS2FeS2FeSFeS3C6H4CH3C7H3CHC6H4C6H4C4H2C6H5CHCHPHCHC9HCH5C2H3CH3C2H3C4HCHC4H2C6PC18H6C2H13CPHC4HCH3PH3CSC8H3C2HCH2SCH2CH2C5H2C3H4CH2C4HCHC6HCHCFeHC2H6CH2CHCPC3H2C4H5C2HC2HC2H3C2HC2H7CHC3H2C5H3C4H3C3SCHC2HCPC5H2CHCH2C2HCH2CH2C5HCH5C5HC5HCPCHC2H4C3H2CH2CHCHC3H2C4HCH12C2HC4HC2SCH2CH2C2HC2HC5SHSFeSFeS2FeS2FeSFeS3FeCSC2HFeSCFeS2C2FeSC4HC3H2CH2CH3C7H4C6H4C3HC2H4C6HCHC7HCH3FeSHCH4C3SPCHC7PC13H3CH10CH3C2H2C2H2CHC3H2SHCFeC6PC18H19CH3C3PC18H3CSH15SCH2FeHCH2CFeC7H2C4HCH2C2H2C3HCSC2H3CH3C2H4PCHC2HC2SCH5CH3C2H2CH3C3S2H4C4HC2HC2FeC4H3C5SH2CH3C3H2CH2CHC2FeS2FeH2CHC2H2FeSCFeSHFeS2C4HSFeS2CH3CHC6H4C4HCS2H2C5SC3H2C5H2C2PC2HC3HC4H2SCH2CH2C2H4CHCHC2HSHCSHSHC3FeHCHC3HCSH2C5H2C3FeHC2H2CH3C2H5CH3C3PC2SHC3H3CHCHCHCFeH2SH2FePH5FeS5H2CH2C6HC2PC2FeSHFeS2FeS2FeS2Fe2SFeS4CFeSCSC2HC3H2C6H5C6H4C6H5CHCHC6PC18HCH20CPHC5H2CH2C3HCH2C2H4CFeCHCHC8HCH5C3HC2H4SHSC3H2SH6C2H2C2H3CHCHC8PC18H18CHC3H2C2HCHC6FeCHC2FeHSCHSCHCH2CHFeHC5HC3FeH3CHC5HC4H5CSCH7CHCH2CHPC3FeHSCHC4HC5HCHFeCH2CH2SC2HCH2CHC3HC2HCHFeCHCHCH3C2H2SC4SHC2H5CH2C2SCH2CHC2H4CHCH2CH2CHCH3FeS2FeS2FeSFeS3FeS2FeS2FeHFeS3HCSHFeSHCHPFeCHC6H4CHCHC7H4C6H4C6H3C2H4C2PCSC2HC6H6C3HC3H2CHSH2C2HCH2CSHC7HCH3CH4CH4C3HC2HCH2C9H2C2PH2C6PC8H2C5H2CH10CH3C2H2SH3CHC2H2CHFeHCPCHCFeH2CHC2HCHC4HCHCH2CH3CHCHSC7H2C2HC3SH2C2HFeHC4H2CHCHFeHFeCSC2HSC2HC5H3PH2C4H4CHC4SC5HFeC2H4C6H3CHCHCHC6HC3HSCHCPC2H2CH3CH2CSCH2C3H2CH3CHCH3FeS2FeHSCFeS2FeS2FeSFeS3FeSHFeS2FeSFeSFeS2Fe2SFeS3FeS2FeS2FeSFeS3C7H4C4H3C7H4C6H4C6H4C6H2C4HCH2C2SC7H5C2H4SCHC3H2C2HCH3C4HC2SC3HC6H3C4H4C7PC18H16C2HCHCHC3H3C3H2SCH5C2H2CH2CHC2H4C4H2SCHC3HC6H2SC2HCH3CH3PHC2HC2HC6SPCPC3H2C2HCH6CH4CH4C3PCHPH4CH2CHCHC4HC2H2C2HC2H4C3H3CH2C5FeSHCHC2H4C7PCHC2HC2H3CH3CH3CHC4H5CHC3H2C2H2C2HC2HC3H2SCHC2HC2HCHC2H2C3HCH4CH2C3HCHC2H3CH2C2HCSCHC3H2C2HC2PCHC3HC2PC2HFeS2FeS2FeSFeS3Fe2SHC3FeS2FeHSHCFeS2FeS2FeSFeS3C2SC3H5C8H6C8H4C6H4C6H4C2HCH2C2HCHC5HCH3CHC5HC6PCHCH2CHC3HC3HC2H6CHPFeC3H8CHPC3HC5HC6H5CH6C2HC3SCHC2HCH3CHC6PC18H11CH8C7HCHC2H2CH2CH4SC3H2CHC4HCH2C2HC3H2C2HSPH2CHCHC2HCHCH3C2PH2C4H2PC9HC2H2C2H2CHCH2C7H2C2H4C3H4CH3C3H3C2H4CH2CH2CPHCSC2SCHC3HC2SCHCH2C2H5C2H2C2HCH2CHC2PCSC3HCHC3HFeS2FeS2CSCSFeSH2FeSCHC3HC6H4FeC4H5C4HCPHC3FeH2C2H4C2PCHCHCHC2HC2HCH4SC2H2C3HC2HCH2C2HCHCFeHC3H2PH2CHCHC4HSHCH3C2H2SC2HC4FeH2C2SHC2H2C2H4C6HCHC5H2CH2CHC3PH6SH2CHC3HC4HC4HC2H2CH3C4SC2HCHCHC3H4SC4SHCPFeHSCSCFeS2FeS2FeSFeS3FeS2FeS2FeSFeS3C6H4C6H4C6H5C4HC3HCHC3H2C2H5C2HCHC3HCHPC3H2CHC3HCH2CPSHCHC4PC18H21C3PC4HC4H3CHC2H4C4HC8H2CH3CH4C6HCH4C2HCPC5HCHC4H2C2HC2HC3HC2H4CHCHC2HCH3C2H2CHC2H2C2H3C2H2CH2C2SH2C3HFeHSCH5C2HCHCHC5HC2HC2H2CHC4HC3HC2HCHSC2H3C2H2C2HCH3C2H3C2PCH2FeCHCHSC4HC5HCHC2H7CHC2HC2HCPCH4SHC3HCHSCFeSFeSCSC6HC3HCH2CHSH3C4H3CH3C2HCHC3HC2H2C2HC2H2CHCHCH2C3H2CHCH2CPCHC2FeC2H2C2HCHC3HC2HC6FeH3FeS2FeS2FeSFeS3FeCSHCSFeCFeCSFeS2FeHSCH3CHC6H4CHC3HCHCH3C6HCH2C6H4C6H5C3H2PC3HCH2C2HC7H3C2HCH5C3H3C2HCHC2HC2H2CH2C2H3S2H2C4HC7PC18H22PH2C2HCH2C5HCHCH3CHC3HCH2CSC3PHC3HCH2CHCHC3SC5HCHCHS2HCHCH2C4H2C2HCHCHCHCH2C3HCHC3H5CSCSC3HSHCHC2H2CFeS2CH2C2HC2H4FeSH5C4HC2H2C2FeH3C7H5C2HC4PCHC2HC7H6CSCHPH4C2PCPHC6PC2H4C2H8CHC10H3CHC2SCH2CHSH2CHC2H3C2HCHCH3C2HC11HCSCH2CH2CHCHC3HC3H2C3HCHC2HCSH3C2H3CHCHSC2SCHC2HCFeH2CH5FeS2FeSHFeS2Fe2S2HCH2FeS2HFeS2FeS2FeSFeS3HC6H4C6H2C6H4C4H2C6H4C13HC7H2CH2C6PC18H19C2H2SC2HSHC2H3C2FeCHCHC2H2CHC3H2C9PC3SHC9H2C4H4CHCHCHC3H5C4SHC2PC2SC3HCHSH2FeHSCHC2H2C3HFeH2CHCHCPHCH3C3H3C2HCH6C3HCH3PC4HCHCHC2HCHCHC2H2C2HSC2HC2HC2HC2HC2H2CHCH2CH3C3HPHC2HC4H4PH3C3H4CH4CH2C3HCSC3H2CHC2H5SHCPC2SFeS2CS2FeSHFeSFeS2FeCS2C2HCHC3SC3H2C4H2CH2CHCH4C2HCHCH2C2H2CHPCHCH3C3HCH3CHCHCFeHCH4CFeHSCHCH3C2HC3HC3HC5H3C2HCSC8HCH2CHCHCH2CHPCH3C4H2CH2CH3SC3PH4CHFeSHCSCFeS2FeS2Fe2S3FeS2FeS2CFeCFeS2FeS2FeSFeS3C6H5CH2C7H5C7H2CHC6H3C7H4C3H3PH2C2HCHCHC3HCHC2HCHCHCHCHCHFeHSCHCSHC3H2CH3C2H2C6H2FeHC3SC4H2C2PC8SC6H11C2H6C2H2CH6C2H2SC2H2CHC6PC15H2CH6C2HCH6C2H2CHC2H3C2HC3HCHC2HC2PC4SC3H2PCH2C2HCH3FeHCHC4H2C4H2FeC2H2C2HC3HC2HC4HCHCHCHCH3CH5FeS2H2FeS2FeS2FeS2FeSFeS3CHC3SCH2C4HCHC5H3C6H4CH2C6H4CHC3HC2H2CH2C2H2PHCHCH3C2HCHC2H3C3PHC6HCH5FeCHCH2C3HC8H3CHCPC3H2C13H4C2H12CH4CHC5H3PC8H2CHC6HC4HCH4CHC2H8C2HCHCHC4H5C6H2C4HCHC2HCHCH4C3HPCH2C2HC2SH3C4HCHCHCHCH6CHSHCPC2H3C2HPC7H2C4H4C3SHC2HC3H3C6HCHCPHC4HC4H2CHSHCFeS2FeCSFeSFeS2CSFeSHCFeS2CFeCSFeCSHC2HC2HCH2CHC6H2CHC6H4C4PHCFeC8H2C2H2C2HC2H2C3HC2SCH2C4H2C2H2CHCH2FeHC2H4CSH2CH3CSFeC3HC2FeC2S2H3C2HC2H2CH3C3HC2HCH4C2HC3S2H2CHCHPHC3PH2PC2HC2HCH3C2HC2SCHCHCHC2H7C10FeH2C4HC4HC4HCHC4SHPHCHC2H2FeCH3CH2SH4C6H4SH2CHSH3CHC2HC2H
_chemical_formula_sum              "C3240 S432 Fe216 H2592 P108"
_cell_length_a       56.3794
_cell_length_b       55.4983
_cell_length_c       94.6795
_cell_angle_alpha    89.6825
_cell_angle_beta     90.8615
_cell_angle_gamma    113.265

_space_group_name_H-M_alt    "P 1"
_space_group_IT_number       1

loop_
  _space_group_symop_operation_xyz
  'x, y, z'

loop_
  _atom_site_type_symbol
  _atom_site_label
  _atom_site_symmetry_multiplicity
  _atom_site_fract_x
  _atom_site_fract_y
  _atom_site_fract_z
  _atom_site_occupancy
  C   C1        1.0  0.20468  0.46559  0.16299  1.0000
  C   C2        1.0  0.07191  0.41840  0.05711  1.0000
  S   S1        1.0  0.19801  0.03968  0.01750  1.0000
  Fe  Fe1       1.0  0.02457  0.21889  0.01616  1.0000
  C   C3        1.0  0.01897  0.42006  0.16126  1.0000
  C   C4        1.0  0.08920  0.28769  0.06996  1.0000
  C   C5        1.0  0.28132  0.49297  0.15753  1.0000
  S   S2        1.0  0.02305  0.25805  0.02087  1.0000
  Fe  Fe2       1.0  0.24364  0.20306  0.02106  1.0000
  S   S3        1.0  0.24722  0.16455  0.02822  1.0000
  Fe  Fe3       1.0  0.25628  0.26129  0.03004  1.0000
  S   S4        1.0  0.25058  0.27247  0.00765  1.0000
  S   S5        1.0  0.25850  0.29141  0.04726  1.0000
  Fe  Fe4       1.0  0.21477  0.23484  0.00751  1.0000
  H   H1        1.0  0.04614  0.33496  0.00872  1.0000
  S   S6        1.0  0.21982  0.22418  0.02991  1.0000
  S   S7        1.0  0.28058  0.23947  0.02326  1.0000
  Fe  Fe5       1.0  0.29976  0.43427  0.10296  1.0000
  S   S8        1.0  0.26722  0.44036  0.09121  1.0000
  S   S9        1.0  0.29465  0.39496  0.11158  1.0000
  H   H2        1.0  0.02088  0.35950  0.08687  1.0000
  H   H3        1.0  0.26008  0.42254  0.16149  1.0000
  H   H4        1.0  0.14803  0.41518  0.18209  1.0000
  C   C6        1.0  0.02798  0.39775  0.06567  1.0000
  C   C7        1.0  0.10393  0.13184  0.02513  1.0000
  C   C8        1.0  0.05731  0.13907  0.02522  1.0000
  Fe  Fe6       1.0  0.07451  0.41758  0.23616  1.0000
  S   S10       1.0  0.07239  0.42854  0.21309  1.0000
  H   H5        1.0  0.09845  0.35001  0.04921  1.0000
  Fe  Fe7       1.0  0.08160  0.38724  0.10216  1.0000
  S   S11       1.0  0.11447  0.42731  0.10157  1.0000
  S   S12       1.0  0.07252  0.36754  0.08037  1.0000
  Fe  Fe8       1.0  0.07596  0.39096  0.13453  1.0000
  S   S13       1.0  0.10830  0.43046  0.13583  1.0000
  S   S14       1.0  0.05522  0.37006  0.15432  1.0000
  Fe  Fe9       1.0  0.09071  0.44032  0.11634  1.0000
  H   H6        1.0  0.20087  0.12945  0.01240  1.0000
  Fe  Fe10      1.0  0.12873  0.41368  0.12109  1.0000
  S   S15       1.0  0.16757  0.41448  0.12788  1.0000
  S   S16       1.0  0.05682  0.40113  0.11565  1.0000
  S   S17       1.0  0.09736  0.37328  0.12100  1.0000
  C   C9        1.0  0.07173  0.40932  0.19810  1.0000
  C   C10       1.0  0.05342  0.38362  0.19651  1.0000
  C   C11       1.0  0.04927  0.37130  0.18316  1.0000
  C   C12       1.0  0.06328  0.38462  0.17133  1.0000
  C   C13       1.0  0.08260  0.40968  0.17321  1.0000
  C   C14       1.0  0.08697  0.42178  0.18654  1.0000
  H   H7        1.0  0.04137  0.37383  0.20531  1.0000
  H   H8        1.0  0.03436  0.35183  0.18185  1.0000
  H   H9        1.0  0.09373  0.42011  0.16433  1.0000
  H   H10       1.0  0.10172  0.44127  0.18779  1.0000
  C   C15       1.0  0.07578  0.15138  0.01501  1.0000
  H   H11       1.0  0.14267  0.28336  0.04084  1.0000
  C   C16       1.0  0.16258  0.16379  0.00504  1.0000
  C   C17       1.0  0.06194  0.12297  0.03535  1.0000
  C   C18       1.0  0.23779  0.42990  0.10028  1.0000
  C   C19       1.0  0.21749  0.43626  0.09510  1.0000
  C   C20       1.0  0.19494  0.43030  0.10306  1.0000
  C   C21       1.0  0.19265  0.41777  0.11614  1.0000
  C   C22       1.0  0.21228  0.41001  0.12079  1.0000
  C   C23       1.0  0.23490  0.41633  0.11300  1.0000
  H   H12       1.0  0.29308  0.48542  0.07039  1.0000
  H   H13       1.0  0.17989  0.43637  0.09939  1.0000
  H   H14       1.0  0.21066  0.40027  0.13082  1.0000
  H   H15       1.0  0.25043  0.41143  0.11711  1.0000
  C   C24       1.0  0.09527  0.31612  0.01762  1.0000
  C   C25       1.0  0.19779  0.47280  0.14979  1.0000
  H   H16       1.0  0.99930  0.37639  0.03285  1.0000
  H   H17       1.0  0.14915  0.33572  0.00594  1.0000
  C   C26       1.0  0.28253  0.31418  0.05858  1.0000
  C   C27       1.0  0.30693  0.31369  0.06089  1.0000
  H   H18       1.0  0.22989  0.36214  0.12695  1.0000
  C   C28       1.0  0.13276  0.35295  0.03820  1.0000
  C   C29       1.0  0.29397  0.35067  0.07548  1.0000
  C   C30       1.0  0.27636  0.33294  0.06588  1.0000
  H   H19       1.0  0.14168  0.09720  0.00275  1.0000
  H   H20       1.0  0.28871  0.36482  0.08100  1.0000
  H   H21       1.0  0.25783  0.33387  0.06405  1.0000
  C   C31       1.0  0.02028  0.28386  0.06557  1.0000
  C   C32       1.0  0.02353  0.28986  0.08009  1.0000
  C   C33       1.0  0.03961  0.31524  0.08487  1.0000
  C   C34       1.0  0.05218  0.33508  0.07512  1.0000
  C   C35       1.0  0.04853  0.32917  0.06062  1.0000
  C   C36       1.0  0.03326  0.30362  0.05587  1.0000
  C   C37       1.0  0.31663  0.09652  0.99981  1.0000
  H   H22       1.0  0.04205  0.31949  0.09605  1.0000
  C   C38       1.0  0.31615  0.19348  0.99412  1.0000
  S   S18       1.0  0.07844  0.47492  0.11720  1.0000
  C   C39       1.0  0.09471  0.22085  0.01399  1.0000
  H   H23       1.0  0.05714  0.34456  0.05298  1.0000
  C   C40       1.0  0.14591  0.23089  0.00498  1.0000
  C   C41       1.0  0.13740  0.21937  0.01816  1.0000
  C   C42       1.0  0.11199  0.21434  0.02258  1.0000
  H   H24       1.0  0.15019  0.21389  0.02483  1.0000
  H   H25       1.0  0.10548  0.20483  0.03262  1.0000
  C   C43       1.0  0.21344  0.07471  0.01937  1.0000
  C   C44       1.0  0.23738  0.08725  0.02621  1.0000
  C   C45       1.0  0.24747  0.11468  0.02862  1.0000
  C   C46       1.0  0.23439  0.13027  0.02380  1.0000
  C   C47       1.0  0.21106  0.11789  0.01637  1.0000
  C   C48       1.0  0.20039  0.09032  0.01452  1.0000
  H   H26       1.0  0.12030  0.36974  0.09461  1.0000
  H   H27       1.0  0.32469  0.00196  0.14006  1.0000
  C   C49       1.0  0.18717  0.37928  0.15654  1.0000
  C   C50       1.0  0.20531  0.36804  0.15575  1.0000
  C   C51       1.0  0.23151  0.38368  0.15763  1.0000
  C   C52       1.0  0.23963  0.41056  0.16030  1.0000
  C   C53       1.0  0.22149  0.42192  0.16137  1.0000
  C   C54       1.0  0.27280  0.48209  0.12866  1.0000
  C   C55       1.0  0.10796  0.07467  0.02559  1.0000
  H   H28       1.0  0.04178  0.38702  0.04642  1.0000
  H   H29       1.0  0.22578  0.36233  0.18696  1.0000
  C   C56       1.0  0.15530  0.32205  0.01152  1.0000
  H   H30       1.0  0.16693  0.36747  0.15453  1.0000
  H   H31       1.0  0.19911  0.34736  0.15338  1.0000
  H   H32       1.0  0.24563  0.37504  0.15682  1.0000
  H   H33       1.0  0.31127  0.04049  0.01708  1.0000
  H   H34       1.0  0.26508  0.43911  0.21135  1.0000
  H   H35       1.0  0.24688  0.42678  0.18739  1.0000
  C   C57       1.0  0.13380  0.33876  0.09771  1.0000
  C   C58       1.0  0.17129  0.36544  0.07782  1.0000
  C   C59       1.0  0.17066  0.34185  0.08365  1.0000
  C   C60       1.0  0.15215  0.32895  0.09390  1.0000
  P   P1        1.0  0.19503  0.32965  0.07928  1.0000
  C   C61       1.0  0.21685  0.35162  0.06670  1.0000
  C   C62       1.0  0.21385  0.33072  0.09513  1.0000
  C   C63       1.0  0.21390  0.34699  0.10649  1.0000
  C   C64       1.0  0.22954  0.34909  0.11840  1.0000
  C   C65       1.0  0.24552  0.33525  0.11905  1.0000
  C   C66       1.0  0.24594  0.31936  0.10774  1.0000
  C   C67       1.0  0.23019  0.31708  0.09584  1.0000
  C   C68       1.0  0.21301  0.34657  0.05213  1.0000
  C   C69       1.0  0.23031  0.36332  0.04246  1.0000
  C   C70       1.0  0.25124  0.38550  0.04724  1.0000
  C   C71       1.0  0.25473  0.39109  0.06169  1.0000
  C   C72       1.0  0.23760  0.37428  0.07139  1.0000
  C   C73       1.0  0.18118  0.29687  0.07169  1.0000
  C   C74       1.0  0.19718  0.28662  0.06490  1.0000
  C   C75       1.0  0.18681  0.26180  0.05864  1.0000
  C   C76       1.0  0.16022  0.24702  0.05885  1.0000
  C   C77       1.0  0.14404  0.25700  0.06547  1.0000
  C   C78       1.0  0.15442  0.28180  0.07182  1.0000
  H   H36       1.0  0.11936  0.32868  0.10550  1.0000
  H   H37       1.0  0.18585  0.37650  0.07032  1.0000
  H   H38       1.0  0.15207  0.31142  0.09903  1.0000
  H   H39       1.0  0.20249  0.35875  0.10607  1.0000
  C   C79       1.0  0.01714  0.46284  0.15918  1.0000
  C   C80       1.0  0.10574  0.04878  0.02713  1.0000
  H   H40       1.0  0.25891  0.30925  0.10803  1.0000
  H   H41       1.0  0.23144  0.30517  0.08713  1.0000
  H   H42       1.0  0.19693  0.32952  0.04821  1.0000
  H   H43       1.0  0.22771  0.35883  0.03128  1.0000
  H   H44       1.0  0.26484  0.39829  0.03977  1.0000
  H   H45       1.0  0.27085  0.40834  0.06546  1.0000
  H   H46       1.0  0.24074  0.37905  0.08253  1.0000
  H   H47       1.0  0.21770  0.29800  0.06408  1.0000
  H   H48       1.0  0.19948  0.25441  0.05329  1.0000
  H   H49       1.0  0.15213  0.22814  0.05359  1.0000
  H   H50       1.0  0.12332  0.24577  0.06537  1.0000
  H   H51       1.0  0.14129  0.28914  0.07649  1.0000
  C   C81       1.0  0.30956  0.00606  0.08674  1.0000
  H   H52       1.0  0.20851  0.47837  0.21618  1.0000
  C   C82       1.0  0.10347  0.23300  0.00099  1.0000
  C   C83       1.0  0.13977  0.39473  0.17927  1.0000
  H   H53       1.0  0.01352  0.27477  0.08769  1.0000
  C   C84       1.0  0.09167  0.48433  0.18136  1.0000
  H   H54       1.0  0.18345  0.36542  0.18577  1.0000
  C   C85       1.0  0.15494  0.15123  0.03952  1.0000
  C   C86       1.0  0.14415  0.16189  0.04982  1.0000
  C   C87       1.0  0.15974  0.17804  0.06050  1.0000
  C   C88       1.0  0.18616  0.18358  0.06104  1.0000
  C   C89       1.0  0.19703  0.17315  0.05083  1.0000
  C   C90       1.0  0.18162  0.15752  0.03997  1.0000
  H   H55       1.0  0.19542  0.39631  0.22821  1.0000
  C   C91       1.0  0.09148  0.29773  0.00674  1.0000
  C   C92       1.0  0.29927  0.14769  0.00084  1.0000
  C   C93       1.0  0.02256  0.44626  0.18221  1.0000
  C   C94       1.0  0.02159  0.42315  0.17590  1.0000
  H   H56       1.0  0.01511  0.43766  0.14150  1.0000
  H   H57       1.0  0.25302  0.37595  0.20864  1.0000
  H   H58       1.0  0.27310  0.48298  0.22091  1.0000
  H   H59       1.0  0.28546  0.49704  0.16864  1.0000
  H   H60       1.0  0.99873  0.47161  0.20858  1.0000
  H   H61       1.0  0.04767  0.11365  0.04335  1.0000
  H   H62       1.0  0.23762  0.39283  0.22924  1.0000
  C   C95       1.0  0.25739  0.47427  0.15279  1.0000
  S   S19       1.0  0.23646  0.21160  0.99855  1.0000
  H   H63       1.0  0.12378  0.15792  0.04968  1.0000
  H   H64       1.0  0.15133  0.18619  0.06840  1.0000
  H   H65       1.0  0.19831  0.19613  0.06927  1.0000
  H   H66       1.0  0.21760  0.17762  0.05111  1.0000
  H   H67       1.0  0.19061  0.15028  0.03197  1.0000
  H   H68       1.0  0.18080  0.41435  0.15950  1.0000
  C   C96       1.0  0.08583  0.47389  0.16774  1.0000
  H   H69       1.0  0.11973  0.41043  0.21067  1.0000
  H   H70       1.0  0.29452  0.34458  0.14942  1.0000
  P   P2        1.0  0.13489  0.12912  0.02609  1.0000
  H   H71       1.0  0.08114  0.47300  0.19031  1.0000
  H   H72       1.0  0.09436  0.48033  0.14565  1.0000
  H   H73       1.0  0.01674  0.47314  0.23266  1.0000
  C   C97       1.0  0.02044  0.46644  0.17390  1.0000
  C   C98       1.0  0.07896  0.43480  0.06895  1.0000
  H   H74       1.0  0.12991  0.33400  0.19197  1.0000
  H   H75       1.0  0.17058  0.48998  0.21919  1.0000
  S   S20       1.0  0.99888  0.25191  0.06004  1.0000
  C   C99       1.0  0.26030  0.45290  0.20496  1.0000
  C   C100      1.0  0.11790  0.36262  0.04640  1.0000
  P   P3        1.0  0.23212  0.45656  0.16508  1.0000
  H   H76       1.0  0.29583  0.01966  0.06818  1.0000
  H   H77       1.0  0.10742  0.32126  0.16885  1.0000
  H   H78       1.0  0.21963  0.44671  0.08522  1.0000
  C   C101      1.0  0.25358  0.46867  0.13832  1.0000
  H   H79       1.0  0.00600  0.33773  0.10965  1.0000
  H   H80       1.0  0.05775  0.25056  0.07395  1.0000
  H   H81       1.0  0.03083  0.29943  0.04467  1.0000
  C   C102      1.0  0.25883  0.49566  0.20226  1.0000
  H   H82       1.0  0.08621  0.41976  0.04930  1.0000
  H   H83       1.0  0.16908  0.10578  0.03894  1.0000
  C   C103      1.0  0.19518  0.40605  0.15941  1.0000
  S   S21       1.0  0.99608  0.19747  0.03308  1.0000
  H   H84       1.0  0.26550  0.12386  0.03441  1.0000
  H   H85       1.0  0.26963  0.47731  0.11750  1.0000
  H   H86       1.0  0.08017  0.34287  0.02675  1.0000
  H   H87       1.0  0.12643  0.45600  0.21600  1.0000
  H   H88       1.0  0.29227  0.05527  0.99708  1.0000
  H   H89       1.0  0.06642  0.33332  0.22206  1.0000
  C   C104      1.0  0.01679  0.43993  0.15290  1.0000
  C   C105      1.0  0.08340  0.27187  0.04170  1.0000
  C   C106      1.0  0.13062  0.09568  0.02999  1.0000
  S   S22       1.0  0.06205  0.21162  0.01960  1.0000
  H   H90       1.0  0.09089  0.29408  0.08085  1.0000
  H   H91       1.0  0.16917  0.48117  0.13780  1.0000
  C   C107      1.0  0.15863  0.36940  0.03558  1.0000
  C   C108      1.0  0.14883  0.06434  0.03724  1.0000
  S   S23       1.0  0.29822  0.40359  0.15227  1.0000
  C   C109      1.0  0.06799  0.25511  0.05202  1.0000
  C   C110      1.0  0.24998  0.44604  0.19133  1.0000
  H   H92       1.0  0.01905  0.40240  0.15640  1.0000
  H   H93       1.0  0.09875  0.36288  0.20598  1.0000
  S   S24       1.0  0.31851  0.45569  0.12272  1.0000
  H   H94       1.0  0.28932  0.13257  0.00848  1.0000
  C   C111      1.0  0.00094  0.35406  0.08972  1.0000
  H   H95       1.0  0.29599  0.17844  0.01345  1.0000
  H   H96       1.0  0.10555  0.35538  0.15234  1.0000
  C   C112      1.0  0.07869  0.32949  0.01825  1.0000
  C   C113      1.0  0.04656  0.39987  0.05548  1.0000
  C   C114      1.0  0.15337  0.37554  0.08198  1.0000
  P   P4        1.0  0.02178  0.49656  0.18198  1.0000
  C   C115      1.0  0.17467  0.31548  0.00577  1.0000
  H   H97       1.0  0.24768  0.07570  0.03010  1.0000
  H   H98       1.0  0.19727  0.29209  0.00817  1.0000
  C   C116      1.0  0.12823  0.38837  0.05144  1.0000
  C   C117      1.0  0.13436  0.36197  0.09167  1.0000
  C   C118      1.0  0.31444  0.41164  0.16883  1.0000
  C   C119      1.0  0.16903  0.39516  0.04070  1.0000
  H   H99       1.0  0.15936  0.35954  0.23349  1.0000
  C   C120      1.0  0.07060  0.26315  0.06610  1.0000
  H   H100      1.0  0.18184  0.08098  0.00926  1.0000
  H   H101      1.0  0.09865  0.44896  0.07030  1.0000
  H   H102      1.0  0.12494  0.02365  0.03366  1.0000
  C   C121      1.0  0.14379  0.31085  0.02434  1.0000
  C   C122      1.0  0.15170  0.29275  0.03119  1.0000
  Fe  Fe11      1.0  0.31641  0.41698  0.13080  1.0000
  Fe  Fe12      1.0  0.27277  0.24845  0.00079  1.0000
  H   H103      1.0  0.30874  0.34358  0.12476  1.0000
  C   C123      1.0  0.02884  0.48504  0.22436  1.0000
  H   H104      1.0  0.05341  0.23616  0.04897  1.0000
  C   C124      1.0  0.24419  0.46411  0.18301  1.0000
  C   C125      1.0  0.18831  0.46265  0.17448  1.0000
  C   C126      1.0  0.15058  0.11770  0.99991  1.0000
  C   C127      1.0  0.99409  0.35624  0.03614  1.0000
  H   H105      1.0  0.16289  0.17942  0.01195  1.0000
  H   H106      1.0  0.20248  0.43361  0.21000  1.0000
  H   H107      1.0  0.12690  0.40221  0.15876  1.0000
  C   C128      1.0  0.15102  0.09023  0.03587  1.0000
  H   H108      1.0  0.16507  0.06038  0.04125  1.0000
  C   C129      1.0  0.30757  0.06974  0.00319  1.0000
  C   C130      1.0  0.21889  0.36944  0.19600  1.0000
  C   C131      1.0  0.23427  0.37710  0.20820  1.0000
  C   C132      1.0  0.22554  0.38649  0.21982  1.0000
  C   C133      1.0  0.20148  0.38825  0.21925  1.0000
  C   C134      1.0  0.18581  0.38058  0.20705  1.0000
  C   C135      1.0  0.19479  0.37118  0.19540  1.0000
  P   P5        1.0  0.15539  0.38460  0.20610  1.0000
  C   C136      1.0  0.13180  0.36324  0.21826  1.0000
  C   C137      1.0  0.16052  0.41822  0.21002  1.0000
  C   C138      1.0  0.13925  0.42507  0.21163  1.0000
  H   H109      1.0  0.10292  0.28600  0.00635  1.0000
  H   H110      1.0  0.15438  0.39414  0.07789  1.0000
  C   C139      1.0  0.10491  0.30439  0.05968  1.0000
  C   C140      1.0  0.18556  0.43788  0.21137  1.0000
  C   C141      1.0  0.10528  0.35568  0.21529  1.0000
  C   C142      1.0  0.08677  0.33879  0.22438  1.0000
  C   C143      1.0  0.09448  0.32964  0.23665  1.0000
  H   H111      1.0  0.06621  0.44523  0.08846  1.0000
  C   C144      1.0  0.13932  0.35387  0.23063  1.0000
  C   C145      1.0  0.14087  0.37566  0.18871  1.0000
  C   C146      1.0  0.12947  0.34909  0.18478  1.0000
  C   C147      1.0  0.11678  0.34179  0.17171  1.0000
  C   C148      1.0  0.11573  0.36096  0.16239  1.0000
  C   C149      1.0  0.12756  0.38742  0.16609  1.0000
  C   C150      1.0  0.12879  0.23784  0.99652  1.0000
  C   C151      1.0  0.30315  0.17365  0.00374  1.0000
  H   H112      1.0  0.17688  0.27187  0.03047  1.0000
  H   H113      1.0  0.18902  0.40767  0.03869  1.0000
  C   C152      1.0  0.03536  0.41413  0.07763  1.0000
  H   H114      1.0  0.11913  0.32327  0.06295  1.0000
  C   C153      1.0  0.05925  0.32507  0.00801  1.0000
  P   P6        1.0  0.11874  0.31951  0.03160  1.0000
  C   C154      1.0  0.08516  0.11939  0.03534  1.0000
  C   C155      1.0  0.18262  0.29766  0.01275  1.0000
  H   H115      1.0  0.18326  0.32381  0.99579  1.0000
  C   C156      1.0  0.17486  0.47668  0.14816  1.0000
  H   H116      1.0  0.02154  0.41265  0.08576  1.0000
  H   H117      1.0  0.08063  0.26539  0.03081  1.0000
  C   C157      1.0  0.10153  0.29692  0.04537  1.0000
  C   C158      1.0  0.16786  0.47017  0.21633  1.0000
  C   C159      1.0  0.14296  0.45097  0.21463  1.0000
  C   C160      1.0  0.15064  0.13744  0.00919  1.0000
  H   H118      1.0  0.17103  0.36253  0.02972  1.0000
  C   C161      1.0  0.18915  0.46364  0.21464  1.0000
  C   C162      1.0  0.15377  0.40473  0.04851  1.0000
  C   C163      1.0  0.29060  0.00654  0.07719  1.0000
  C   C164      1.0  0.09916  0.48843  0.15621  1.0000
  H   H119      1.0  0.08873  0.10737  0.04347  1.0000
  C   C165      1.0  0.16544  0.46660  0.17283  1.0000
  H   H120      1.0  0.25811  0.33748  0.12814  1.0000
  H   H121      1.0  0.07099  0.45451  0.16607  1.0000
  C   C166      1.0  0.15865  0.47341  0.15964  1.0000
  H   H122      1.0  0.16188  0.42462  0.05255  1.0000
  H   H123      1.0  0.11652  0.39531  0.05794  1.0000
  C   C167      1.0  0.17111  0.28627  0.02541  1.0000
  C   C168      1.0  0.29988  0.40643  0.18126  1.0000
  S   S25       1.0  0.17720  0.23634  0.99828  1.0000
  C   C169      1.0  0.06069  0.43265  0.07921  1.0000
  H   H124      1.0  0.11325  0.15847  0.00720  1.0000
  C   C170      1.0  0.12625  0.04363  0.03287  1.0000
  H   H125      1.0  0.02342  0.40780  0.18237  1.0000
  H   H126      1.0  0.27905  0.39881  0.18054  1.0000
  C   C171      1.0  0.01870  0.48430  0.21071  1.0000
  C   C172      1.0  0.31820  0.34996  0.07795  1.0000
  H   H127      1.0  0.07233  0.16426  0.00732  1.0000
  H   H128      1.0  0.21817  0.46201  0.23997  1.0000
  C   C173      1.0  0.09907  0.14799  0.01500  1.0000
  H   H129      1.0  0.30075  0.40613  0.20414  1.0000
  C   C174      1.0  0.31211  0.41054  0.19465  1.0000
  C   C175      1.0  0.24851  0.48890  0.18863  1.0000
  H   H130      1.0  0.02534  0.44819  0.19353  1.0000
  C   C176      1.0  0.26480  0.47769  0.21039  1.0000
  H   H131      1.0  0.08840  0.03269  0.02353  1.0000
  H   H132      1.0  0.03963  0.14247  0.02539  1.0000
  C   C177      1.0  0.12072  0.33721  0.23977  1.0000
  H   H133      1.0  0.19269  0.45619  0.18458  1.0000
  H   H134      1.0  0.09232  0.07826  0.02052  1.0000
  H   H135      1.0  0.20927  0.47442  0.14056  1.0000
  C   C178      1.0  0.05602  0.30716  0.99711  1.0000
  H   H136      1.0  0.14047  0.47536  0.15819  1.0000
  H   H137      1.0  0.23569  0.45383  0.13451  1.0000
  H   H138      1.0  0.31916  0.21359  0.99644  1.0000
  H   H139      1.0  0.31203  0.29940  0.05541  1.0000
  H   H140      1.0  0.15250  0.46343  0.18165  1.0000
  H   H141      1.0  0.31411  0.03176  0.11686  1.0000
  S   S26       1.0  0.25360  0.01042  0.01490  1.0000
  C   C179      1.0  0.07213  0.29348  0.99648  1.0000
  H   H142      1.0  0.01523  0.47791  0.15250  1.0000
  H   H143      1.0  0.00046  0.42985  0.06592  1.0000
  C   C180      1.0  0.31836  0.06121  0.01457  1.0000
  H   H144      1.0  0.09051  0.23799  0.99419  1.0000
  Fe  Fe13      1.0  0.21217  0.00573  0.01641  1.0000
  C   C181      1.0  0.31487  0.35110  0.14713  1.0000
  P   P7        1.0  0.99485  0.37448  0.06363  1.0000
  C   C182      1.0  0.31283  0.49363  0.07434  1.0000
  C   C183      1.0  0.99251  0.34164  0.10266  1.0000
  C   C184      1.0  0.03447  0.49917  0.19982  1.0000
  C   C185      1.0  0.32287  0.35069  0.13327  1.0000
  Fe  Fe14      1.0  0.99437  0.23668  0.03731  1.0000
  S   S27       1.0  0.99244  0.20874  0.99957  1.0000
  C   C186      1.0  0.32461  0.33144  0.07054  1.0000
  H   H145      1.0  0.99238  0.34204  0.01477  1.0000
  S   S28       1.0  0.26026  0.44630  0.24345  1.0000
  H   H146      1.0  0.00563  0.27932  0.42222  1.0000
  C   C187      1.0  0.01233  0.37506  0.31882  1.0000
  C   C188      1.0  0.21099  0.44376  0.24576  1.0000
  S   S29       1.0  0.14249  0.39337  0.26191  1.0000
  Fe  Fe15      1.0  0.05118  0.38780  0.26369  1.0000
  S   S30       1.0  0.02012  0.35244  0.27467  1.0000
  S   S31       1.0  0.08683  0.41207  0.27614  1.0000
  H   H147      1.0  0.11246  0.26914  0.47038  1.0000
  S   S32       1.0  0.16437  0.02359  0.44454  1.0000
  C   C189      1.0  0.07779  0.40818  0.36726  1.0000
  H   H148      1.0  0.06050  0.29350  0.33630  1.0000
  Fe  Fe16      1.0  0.00518  0.20716  0.43891  1.0000
  S   S33       1.0  0.04787  0.22588  0.43298  1.0000
  H   H149      1.0  0.17185  0.44170  0.24652  1.0000
  Fe  Fe17      1.0  0.23276  0.22544  0.42652  1.0000
  S   S34       1.0  0.20378  0.18339  0.42500  1.0000
  S   S35       1.0  0.25288  0.24104  0.40527  1.0000
  Fe  Fe18      1.0  0.22171  0.22703  0.45839  1.0000
  S   S36       1.0  0.19308  0.18536  0.45877  1.0000
  S   S37       1.0  0.22716  0.25186  0.47823  1.0000
  Fe  Fe19      1.0  0.22143  0.17713  0.44528  1.0000
  S   S38       1.0  0.23634  0.14515  0.44900  1.0000
  Fe  Fe20      1.0  0.17752  0.19534  0.43850  1.0000
  S   S39       1.0  0.13338  0.17684  0.43616  1.0000
  S   S40       1.0  0.25165  0.21841  0.44634  1.0000
  S   S41       1.0  0.20486  0.23781  0.43861  1.0000
  C   C190      1.0  0.99392  0.43666  0.27798  1.0000
  C   C191      1.0  0.07148  0.21213  0.43484  1.0000
  C   C192      1.0  0.06484  0.18561  0.43801  1.0000
  C   C193      1.0  0.08405  0.17524  0.43847  1.0000
  C   C194      1.0  0.11016  0.19127  0.43603  1.0000
  C   C195      1.0  0.11689  0.21793  0.43328  1.0000
  C   C196      1.0  0.09764  0.22822  0.43261  1.0000
  H   H150      1.0  0.04485  0.17294  0.43972  1.0000
  H   H151      1.0  0.07862  0.15460  0.44063  1.0000
  H   H152      1.0  0.13682  0.23044  0.43128  1.0000
  H   H153      1.0  0.10301  0.24873  0.43011  1.0000
  H   H154      1.0  0.11675  0.37931  0.32746  1.0000
  H   H155      1.0  0.18527  0.37865  0.26666  1.0000
  H   H156      1.0  0.14083  0.39252  0.35000  1.0000
  C   C197      1.0  0.99804  0.11988  0.46447  1.0000
  C   C198      1.0  0.18451  0.05741  0.44571  1.0000
  C   C199      1.0  0.21046  0.06589  0.44984  1.0000
  C   C200      1.0  0.22606  0.09280  0.45075  1.0000
  C   C201      1.0  0.21590  0.11158  0.44757  1.0000
  C   C202      1.0  0.18995  0.10324  0.44345  1.0000
  C   C203      1.0  0.17430  0.07623  0.44258  1.0000
  H   H157      1.0  0.21846  0.05174  0.45259  1.0000
  H   H158      1.0  0.24601  0.09905  0.45410  1.0000
  H   H159      1.0  0.18192  0.11756  0.44096  1.0000
  H   H160      1.0  0.15423  0.06987  0.43942  1.0000
  C   C204      1.0  0.10752  0.37023  0.33719  1.0000
  H   H161      1.0  0.08011  0.31713  0.24388  1.0000
  C   C205      1.0  0.29667  0.04261  0.43567  1.0000
  C   C206      1.0  0.29298  0.26011  0.38633  1.0000
  C   C207      1.0  0.28530  0.26096  0.40037  1.0000
  H   H162      1.0  0.11159  0.33010  0.31947  1.0000
  H   H163      1.0  0.27941  0.24679  0.37890  1.0000
  C   C208      1.0  0.05223  0.40654  0.30935  1.0000
  C   C209      1.0  0.04904  0.23749  0.47073  1.0000
  C   C210      1.0  0.10956  0.36667  0.36264  1.0000
  H   H164      1.0  0.18143  0.01078  0.40354  1.0000
  C   C211      1.0  0.18476  0.43234  0.24949  1.0000
  C   C212      1.0  0.20363  0.04055  0.38877  1.0000
  H   H165      1.0  0.32153  0.12007  0.40088  1.0000
  S   S42       1.0  0.08890  0.48310  0.27604  1.0000
  C   C213      1.0  0.21866  0.40832  0.25707  1.0000
  C   C214      1.0  0.19241  0.39687  0.26082  1.0000
  C   C215      1.0  0.17534  0.40881  0.25705  1.0000
  H   H166      1.0  0.32074  0.09755  0.34829  1.0000
  C   C216      1.0  0.30782  0.01711  0.38261  1.0000
  H   H167      1.0  0.05028  0.32683  0.35001  1.0000
  H   H168      1.0  0.06301  0.42542  0.30451  1.0000
  P   P8        1.0  0.06485  0.34107  0.32045  1.0000
  C   C217      1.0  0.01920  0.14970  0.48388  1.0000
  C   C218      1.0  0.02047  0.13787  0.47094  1.0000
  H   H169      1.0  0.05962  0.27693  0.47826  1.0000
  H   H170      1.0  0.00340  0.23611  0.49102  1.0000
  H   H171      1.0  0.03684  0.28957  0.40268  1.0000
  H   H172      1.0  0.30467  0.05888  0.32715  1.0000
  H   H173      1.0  0.17256  0.24145  0.46370  1.0000
  C   C219      1.0  0.16233  0.24330  0.48535  1.0000
  H   H174      1.0  0.31055  0.06561  0.36798  1.0000
  C   C220      1.0  0.02636  0.39956  0.31287  1.0000
  C   C221      1.0  0.07485  0.14124  0.48604  1.0000
  H   H175      1.0  0.99586  0.38896  0.28081  1.0000
  H   H176      1.0  0.28586  0.22569  0.34368  1.0000
  H   H177      1.0  0.03955  0.19693  0.46600  1.0000
  C   C222      1.0  0.05766  0.25724  0.48094  1.0000
  H   H178      1.0  0.28288  0.05204  0.41600  1.0000
  C   C223      1.0  0.00632  0.25511  0.31824  1.0000
  H   H179      1.0  0.04295  0.37050  0.39414  1.0000
  C   C224      1.0  0.06401  0.38886  0.31168  1.0000
  C   C225      1.0  0.18885  0.12424  0.48218  1.0000
  C   C226      1.0  0.09394  0.13534  0.47943  1.0000
  C   C227      1.0  0.07498  0.16659  0.48508  1.0000
  H   H180      1.0  0.27096  0.04011  0.34535  1.0000
  H   H181      1.0  0.05954  0.12586  0.49156  1.0000
  H   H182      1.0  0.03864  0.14278  0.46560  1.0000
  C   C228      1.0  0.27403  0.00261  0.34577  1.0000
  Fe  Fe21      1.0  0.10994  0.40738  0.25794  1.0000
  H   H183      1.0  0.06461  0.40616  0.34563  1.0000
  H   H184      1.0  0.12021  0.37252  0.37253  1.0000
  C   C229      1.0  0.07025  0.34062  0.34983  1.0000
  C   C230      1.0  0.04983  0.36396  0.31737  1.0000
  C   C231      1.0  0.08220  0.35099  0.33700  1.0000
  H   H185      1.0  0.12674  0.33067  0.24945  1.0000
  S   S43       1.0  0.32142  0.45299  0.26777  1.0000
  C   C232      1.0  0.05991  0.39823  0.35621  1.0000
  H   H186      1.0  0.19776  0.09033  0.47925  1.0000
  C   C233      1.0  0.30488  0.29164  0.33857  1.0000
  S   S44       1.0  0.04828  0.42271  0.25265  1.0000
  P   P9        1.0  0.29555  0.31856  0.34259  1.0000
  C   C234      1.0  0.27258  0.30809  0.35684  1.0000
  C   C235      1.0  0.19613  0.10417  0.48683  1.0000
  C   C236      1.0  0.30133  0.12001  0.35764  1.0000
  C   C237      1.0  0.24658  0.29205  0.35391  1.0000
  C   C238      1.0  0.22925  0.28144  0.36492  1.0000
  C   C239      1.0  0.23773  0.28666  0.37895  1.0000
  C   C240      1.0  0.26342  0.30281  0.38197  1.0000
  C   C241      1.0  0.28081  0.31345  0.37100  1.0000
  C   C242      1.0  0.28187  0.32796  0.32714  1.0000
  C   C243      1.0  0.26250  0.33772  0.32866  1.0000
  C   C244      1.0  0.25407  0.34800  0.31701  1.0000
  C   C245      1.0  0.26522  0.34910  0.30381  1.0000
  C   C246      1.0  0.28459  0.33968  0.30222  1.0000
  C   C247      1.0  0.29287  0.32913  0.31379  1.0000
  H   H187      1.0  0.18094  0.15763  0.48827  1.0000
  C   C248      1.0  0.04758  0.37781  0.38347  1.0000
  H   H188      1.0  0.27415  0.26207  0.35037  1.0000
  C   C249      1.0  0.29699  0.24522  0.33974  1.0000
  H   H189      1.0  0.29719  0.28024  0.42043  1.0000
  C   C250      1.0  0.00386  0.27392  0.30913  1.0000
  H   H190      1.0  0.23993  0.28697  0.34311  1.0000
  H   H191      1.0  0.20939  0.26860  0.36263  1.0000
  H   H192      1.0  0.22461  0.27772  0.38754  1.0000
  H   H193      1.0  0.27010  0.30627  0.39287  1.0000
  H   H194      1.0  0.30075  0.32504  0.37376  1.0000
  H   H195      1.0  0.25453  0.33831  0.33891  1.0000
  H   H196      1.0  0.23941  0.35583  0.31827  1.0000
  H   H197      1.0  0.25933  0.35783  0.29486  1.0000
  Fe  Fe22      1.0  0.29687  0.43920  0.24820  1.0000
  S   S45       1.0  0.30545  0.40287  0.24607  1.0000
  C   C251      1.0  0.30979  0.09952  0.35723  1.0000
  H   H198      1.0  0.27864  0.18489  0.42505  1.0000
  C   C252      1.0  0.07162  0.39800  0.38089  1.0000
  H   H199      1.0  0.18524  0.12610  0.47102  1.0000
  C   C253      1.0  0.00040  0.32234  0.39062  1.0000
  H   H200      1.0  0.19198  0.03058  0.37973  1.0000
  C   C254      1.0  0.31790  0.27668  0.38173  1.0000
  C   C255      1.0  0.29101  0.08468  0.38016  1.0000
  C   C256      1.0  0.28294  0.10557  0.38081  1.0000
  C   C257      1.0  0.28058  0.02836  0.34105  1.0000
  P   P10       1.0  0.26599  0.10896  0.39625  1.0000
  C   C258      1.0  0.28733  0.11933  0.41145  1.0000
  C   C259      1.0  0.25324  0.13397  0.39413  1.0000
  C   C260      1.0  0.22674  0.12799  0.39565  1.0000
  C   C261      1.0  0.21748  0.14793  0.39504  1.0000
  C   C262      1.0  0.23454  0.17394  0.39303  1.0000
  C   C263      1.0  0.26094  0.18012  0.39170  1.0000
  C   C264      1.0  0.27028  0.16023  0.39231  1.0000
  C   C265      1.0  0.27799  0.12503  0.42412  1.0000
  C   C266      1.0  0.29428  0.13376  0.43592  1.0000
  C   C267      1.0  0.28778  0.12296  0.36933  1.0000
  H   H201      1.0  0.30855  0.32294  0.31225  1.0000
  H   H202      1.0  0.20795  0.03325  0.42422  1.0000
  C   C268      1.0  0.23969  0.07753  0.39880  1.0000
  C   C269      1.0  0.22451  0.06459  0.38708  1.0000
  H   H203      1.0  0.12773  0.15009  0.46632  1.0000
  C   C270      1.0  0.04607  0.21189  0.47412  1.0000
  H   H204      1.0  0.09640  0.42383  0.36526  1.0000
  C   C271      1.0  0.23372  0.06597  0.41223  1.0000
  C   C272      1.0  0.30425  0.08165  0.36839  1.0000
  H   H205      1.0  0.31276  0.02487  0.37207  1.0000
  H   H206      1.0  0.00558  0.39604  0.38453  1.0000
  H   H207      1.0  0.28698  0.07066  0.38875  1.0000
  P   P11       1.0  0.04843  0.17297  0.49223  1.0000
  H   H208      1.0  0.21317  0.10815  0.39769  1.0000
  H   H209      1.0  0.19711  0.14333  0.39650  1.0000
  H   H210      1.0  0.22735  0.18942  0.39283  1.0000
  H   H211      1.0  0.27412  0.20045  0.39054  1.0000
  H   H212      1.0  0.29083  0.16532  0.39156  1.0000
  H   H213      1.0  0.25804  0.12280  0.42491  1.0000
  H   H214      1.0  0.28670  0.13791  0.44566  1.0000
  C   C273      1.0  0.02665  0.26236  0.32810  1.0000
  C   C274      1.0  0.18645  0.14198  0.49189  1.0000
  H   H215      1.0  0.01558  0.49749  0.25700  1.0000
  H   H216      1.0  0.22870  0.07317  0.37664  1.0000
  C   C275      1.0  0.19767  0.02934  0.40217  1.0000
  H   H217      1.0  0.27750  0.03269  0.43986  1.0000
  H   H218      1.0  0.24495  0.07514  0.42150  1.0000
  C   C276      1.0  0.09666  0.34687  0.28146  1.0000
  C   C277      1.0  0.11823  0.34102  0.28416  1.0000
  C   C278      1.0  0.12358  0.33508  0.29789  1.0000
  C   C279      1.0  0.10754  0.33535  0.30896  1.0000
  C   C280      1.0  0.08648  0.34236  0.30639  1.0000
  C   C281      1.0  0.08075  0.34742  0.29251  1.0000
  C   C282      1.0  0.04145  0.30761  0.32018  1.0000
  C   C283      1.0  0.21270  0.04203  0.41386  1.0000
  H   H219      1.0  0.28917  0.19062  0.45055  1.0000
  H   H220      1.0  0.04514  0.49847  0.27655  1.0000
  C   C284      1.0  0.04435  0.28847  0.32898  1.0000
  H   H221      1.0  0.09251  0.35144  0.27079  1.0000
  H   H222      1.0  0.13093  0.34138  0.27561  1.0000
  H   H223      1.0  0.14019  0.33032  0.29991  1.0000
  H   H224      1.0  0.06401  0.35177  0.29015  1.0000
  C   C285      1.0  0.02406  0.35737  0.32112  1.0000
  H   H225      1.0  0.23154  0.39886  0.25993  1.0000
  H   H226      1.0  0.29388  0.34139  0.29208  1.0000
  H   H227      1.0  0.01697  0.41287  0.31073  1.0000
  C   C286      1.0  0.08408  0.34817  0.36258  1.0000
  H   H228      1.0  0.07503  0.33990  0.37246  1.0000
  H   H229      1.0  0.08540  0.40591  0.38949  1.0000
  H   H230      1.0  0.17599  0.23553  0.48926  1.0000
  H   H231      1.0  0.08400  0.39446  0.30877  1.0000
  C   C287      1.0  0.12118  0.37789  0.34996  1.0000
  C   C288      1.0  0.05182  0.20591  0.48783  1.0000
  S   S46       1.0  0.22494  0.00494  0.44698  1.0000
  H   H232      1.0  0.28113  0.13874  0.36927  1.0000
  H   H233      1.0  0.01295  0.33846  0.32567  1.0000
  C   C289      1.0  0.02152  0.30000  0.31000  1.0000
  H   H234      1.0  0.03849  0.46919  0.30319  1.0000
  C   C290      1.0  0.02197  0.29735  0.40246  1.0000
  C   C291      1.0  0.30288  0.27888  0.40970  1.0000
  C   C292      1.0  0.11354  0.17989  0.47086  1.0000
  H   H235      1.0  0.02220  0.37114  0.35010  1.0000
  C   C293      1.0  0.12657  0.26218  0.47461  1.0000
  C   C294      1.0  0.29950  0.03893  0.33081  1.0000
  C   C295      1.0  0.11327  0.15468  0.47182  1.0000
  C   C296      1.0  0.03585  0.37813  0.35877  1.0000
  C   C297      1.0  0.31355  0.12359  0.41059  1.0000
  C   C298      1.0  0.16027  0.24645  0.47080  1.0000
  C   C299      1.0  0.02957  0.36756  0.37239  1.0000
  C   C300      1.0  0.29040  0.26610  0.34351  1.0000
  C   C301      1.0  0.01784  0.44794  0.28489  1.0000
  H   H236      1.0  0.03372  0.31701  0.38262  1.0000
  C   C302      1.0  0.01977  0.46003  0.29801  1.0000
  H   H237      1.0  0.12826  0.19461  0.46468  1.0000
  H   H238      1.0  0.26923  0.01645  0.38163  1.0000
  H   H239      1.0  0.14066  0.25805  0.45412  1.0000
  H   H240      1.0  0.04464  0.24208  0.46016  1.0000
  C   C303      1.0  0.27606  0.00119  0.40158  1.0000
  H   H241      1.0  0.09471  0.20533  0.47601  1.0000
  Fe  Fe23      1.0  0.08538  0.44654  0.26408  1.0000
  C   C304      1.0  0.02009  0.31282  0.39111  1.0000
  H   H242      1.0  0.02891  0.24765  0.33494  1.0000
  H   H243      1.0  0.01995  0.31423  0.30256  1.0000
  C   C305      1.0  0.32025  0.13776  0.43505  1.0000
  C   C306      1.0  0.14234  0.25581  0.46541  1.0000
  C   C307      1.0  0.09442  0.18586  0.47734  1.0000
  S   S47       1.0  0.11147  0.44396  0.24705  1.0000
  C   C308      1.0  0.28312  0.01212  0.38803  1.0000
  C   C309      1.0  0.31215  0.02389  0.32544  1.0000
  H   H244      1.0  0.99939  0.46978  0.31455  1.0000
  C   C310      1.0  0.22804  0.43181  0.24946  1.0000
  H   H245      1.0  0.99919  0.11111  0.45444  1.0000
  H   H246      1.0  0.03496  0.44746  0.28003  1.0000
  C   C311      1.0  0.29869  0.19392  0.42851  1.0000
  H   H247      1.0  0.09347  0.11565  0.47991  1.0000
  C   C312      1.0  0.29978  0.05368  0.42221  1.0000
  C   C313      1.0  0.00446  0.29162  0.41351  1.0000
  P   P12       1.0  0.99813  0.34224  0.37584  1.0000
  H   H248      1.0  0.31307  0.37522  0.33646  1.0000
  H   H249      1.0  0.30541  0.13367  0.34889  1.0000
  C   C314      1.0  0.99766  0.46036  0.30437  1.0000
  S   S48       1.0  0.07442  0.38067  0.24607  1.0000
  C   C315      1.0  0.12898  0.25954  0.48921  1.0000
  C   C316      1.0  0.32358  0.34694  0.34810  1.0000
  C   C317      1.0  0.31821  0.04392  0.44361  1.0000
  C   C318      1.0  0.32445  0.06590  0.41657  1.0000
  C   C319      1.0  0.99486  0.14409  0.48976  1.0000
  H   H250      1.0  0.99820  0.29123  0.36647  1.0000
  H   H251      1.0  0.31560  0.03514  0.45404  1.0000
  H   H252      1.0  0.32332  0.27591  0.37090  1.0000
  H   H253      1.0  0.27706  0.27565  0.49124  1.0000
  C   C320      1.0  0.30461  0.19729  0.44292  1.0000
  C   C321      1.0  0.31776  0.24950  0.33083  1.0000
  H   H254      1.0  0.31330  0.20053  0.40753  1.0000
  C   C322      1.0  0.31847  0.20249  0.41861  1.0000
  H   H255      1.0  0.32286  0.23336  0.32781  1.0000
  C   C323      1.0  0.31876  0.00028  0.40420  1.0000
  H   H256      1.0  0.99250  0.42719  0.26783  1.0000
  H   H257      1.0  0.99272  0.23486  0.31748  1.0000
  C   C324      1.0  0.99226  0.34965  0.28442  1.0000
  H   H258      1.0  0.27989  0.11522  0.73193  1.0000
  S   S49       1.0  0.16861  0.03067  0.58326  1.0000
  C   C325      1.0  0.23531  0.14848  0.53470  1.0000
  Fe  Fe24      1.0  0.22011  0.19237  0.58043  1.0000
  S   S50       1.0  0.25714  0.22865  0.58058  1.0000
  S   S51       1.0  0.22850  0.15554  0.58372  1.0000
  Fe  Fe25      1.0  0.18841  0.22487  0.57374  1.0000
  S   S52       1.0  0.22330  0.26288  0.57322  1.0000
  S   S53       1.0  0.15289  0.23225  0.56769  1.0000
  Fe  Fe26      1.0  0.24109  0.23995  0.56087  1.0000
  S   S54       1.0  0.26601  0.25667  0.54168  1.0000
  Fe  Fe27      1.0  0.23614  0.24864  0.59289  1.0000
  S   S55       1.0  0.24785  0.27183  0.61374  1.0000
  S   S56       1.0  0.20554  0.20300  0.56000  1.0000
  S   S57       1.0  0.19998  0.21140  0.59421  1.0000
  Fe  Fe28      1.0  0.01256  0.19278  0.58475  1.0000
  S   S58       1.0  0.02652  0.23646  0.58309  1.0000
  S   S59       1.0  0.03873  0.17145  0.58928  1.0000
  C   C326      1.0  0.26681  0.40921  0.71993  1.0000
  S   S60       1.0  0.30636  0.38434  0.67394  1.0000
  H   H259      1.0  0.28155  0.25105  0.62662  1.0000
  Fe  Fe29      1.0  0.30755  0.42458  0.67855  1.0000
  S   S61       1.0  0.27485  0.43850  0.68267  1.0000
  H   H260      1.0  0.31934  0.10617  0.73373  1.0000
  Fe  Fe30      1.0  0.06900  0.38974  0.66032  1.0000
  S   S62       1.0  0.07966  0.36737  0.67719  1.0000
  S   S63       1.0  0.05236  0.37181  0.63870  1.0000
  Fe  Fe31      1.0  0.09058  0.44155  0.67763  1.0000
  S   S64       1.0  0.10346  0.42144  0.69529  1.0000
  S   S65       1.0  0.09474  0.48366  0.68355  1.0000
  Fe  Fe32      1.0  0.11789  0.40216  0.67848  1.0000
  S   S66       1.0  0.15105  0.38772  0.67864  1.0000
  Fe  Fe33      1.0  0.06442  0.38830  0.69268  1.0000
  S   S67       1.0  0.04378  0.36896  0.71310  1.0000
  S   S68       1.0  0.10776  0.42424  0.66088  1.0000
  S   S69       1.0  0.05103  0.40868  0.67568  1.0000
  C   C327      1.0  0.24049  0.42392  0.68120  1.0000
  C   C328      1.0  0.22658  0.44006  0.68228  1.0000
  C   C329      1.0  0.19931  0.42949  0.68148  1.0000
  C   C330      1.0  0.18550  0.40246  0.67984  1.0000
  C   C331      1.0  0.19943  0.38630  0.67890  1.0000
  C   C332      1.0  0.22670  0.39692  0.67938  1.0000
  H   H261      1.0  0.23700  0.46097  0.68369  1.0000
  H   H262      1.0  0.18899  0.44223  0.68221  1.0000
  H   H263      1.0  0.18900  0.36538  0.67773  1.0000
  H   H264      1.0  0.23703  0.38421  0.67855  1.0000
  C   C333      1.0  0.31408  0.01841  0.74005  1.0000
  H   H265      1.0  0.24341  0.30322  0.51051  1.0000
  H   H266      1.0  0.01060  0.27496  0.64350  1.0000
  H   H267      1.0  0.00472  0.43961  0.63470  1.0000
  C   C334      1.0  0.21240  0.31427  0.60095  1.0000
  C   C335      1.0  0.01134  0.28684  0.62173  1.0000
  C   C336      1.0  0.01963  0.30837  0.61258  1.0000
  C   C337      1.0  0.03264  0.33405  0.61795  1.0000
  C   C338      1.0  0.03802  0.33865  0.63250  1.0000
  C   C339      1.0  0.03073  0.31699  0.64160  1.0000
  C   C340      1.0  0.02581  0.27172  0.67861  1.0000
  H   H268      1.0  0.03814  0.35056  0.61079  1.0000
  H   H269      1.0  0.03508  0.32000  0.65278  1.0000
  H   H270      1.0  0.32204  0.25974  0.64283  1.0000
  C   C341      1.0  0.22200  0.23150  0.50550  1.0000
  H   H271      1.0  0.02436  0.26056  0.51294  1.0000
  C   C342      1.0  0.30173  0.35550  0.62812  1.0000
  C   C343      1.0  0.28762  0.33638  0.63790  1.0000
  C   C344      1.0  0.27111  0.31107  0.63326  1.0000
  C   C345      1.0  0.26825  0.30452  0.61880  1.0000
  C   C346      1.0  0.28159  0.32394  0.60899  1.0000
  C   C347      1.0  0.26407  0.26324  0.49906  1.0000
  H   H272      1.0  0.29004  0.34085  0.64906  1.0000
  H   H273      1.0  0.26081  0.29632  0.64096  1.0000
  H   H274      1.0  0.27932  0.31944  0.59783  1.0000
  H   H275      1.0  0.21037  0.29582  0.55168  1.0000
  C   C348      1.0  0.12132  0.21400  0.57348  1.0000
  C   C349      1.0  0.11516  0.19184  0.58209  1.0000
  C   C350      1.0  0.08969  0.17870  0.58686  1.0000
  C   C351      1.0  0.07043  0.18770  0.58305  1.0000
  C   C352      1.0  0.07666  0.20964  0.57430  1.0000
  C   C353      1.0  0.10199  0.22271  0.56957  1.0000
  H   H276      1.0  0.13000  0.18501  0.58517  1.0000
  H   H277      1.0  0.08497  0.16169  0.59362  1.0000
  H   H278      1.0  0.06198  0.21657  0.57114  1.0000
  H   H279      1.0  0.10678  0.23994  0.56302  1.0000
  C   C354      1.0  0.25499  0.25108  0.52382  1.0000
  C   C355      1.0  0.22998  0.23372  0.51986  1.0000
  C   C356      1.0  0.12699  0.27880  0.52353  1.0000
  C   C357      1.0  0.27211  0.26516  0.51327  1.0000
  H   H280      1.0  0.21658  0.22269  0.52788  1.0000
  H   H281      1.0  0.29144  0.27857  0.51618  1.0000
  C   C358      1.0  0.18564  0.06535  0.58303  1.0000
  C   C359      1.0  0.21256  0.07727  0.58228  1.0000
  C   C360      1.0  0.22523  0.10486  0.58241  1.0000
  C   C361      1.0  0.21120  0.12090  0.58319  1.0000
  C   C362      1.0  0.18429  0.10901  0.58390  1.0000
  C   C363      1.0  0.17161  0.08141  0.58377  1.0000
  H   H282      1.0  0.22364  0.06522  0.58174  1.0000
  H   H283      1.0  0.24607  0.11381  0.58195  1.0000
  H   H284      1.0  0.17329  0.12101  0.58490  1.0000
  H   H285      1.0  0.15079  0.07239  0.58443  1.0000
  H   H286      1.0  0.30153  0.28845  0.59985  1.0000
  C   C364      1.0  0.08557  0.23830  0.53598  1.0000
  H   H287      1.0  0.15912  0.14393  0.56576  1.0000
  C   C365      1.0  0.28298  0.41395  0.61847  1.0000
  H   H288      1.0  0.02035  0.34957  0.73980  1.0000
  P   P13       1.0  0.00379  0.47075  0.69187  1.0000
  H   H289      1.0  0.20137  0.27555  0.50049  1.0000
  C   C366      1.0  0.00876  0.24145  0.51371  1.0000
  H   H290      1.0  0.11513  0.07702  0.54013  1.0000
  C   C367      1.0  0.04717  0.16920  0.51132  1.0000
  C   C368      1.0  0.31155  0.28350  0.59143  1.0000
  C   C369      1.0  0.14763  0.21345  0.51774  1.0000
  C   C370      1.0  0.06412  0.16046  0.51871  1.0000
  C   C371      1.0  0.06356  0.15881  0.53348  1.0000
  C   C372      1.0  0.04621  0.16595  0.54102  1.0000
  C   C373      1.0  0.02964  0.17508  0.53378  1.0000
  C   C374      1.0  0.03026  0.17693  0.51906  1.0000
  C   C375      1.0  0.06108  0.22606  0.49794  1.0000
  H   H291      1.0  0.00720  0.04371  0.60096  1.0000
  C   C376      1.0  0.24585  0.17013  0.52560  1.0000
  H   H292      1.0  0.05350  0.32609  0.69913  1.0000
  H   H293      1.0  0.11736  0.10777  0.55957  1.0000
  H   H294      1.0  0.14901  0.43143  0.62839  1.0000
  H   H295      1.0  0.00826  0.41121  0.72622  1.0000
  H   H296      1.0  0.00031  0.13251  0.57034  1.0000
  C   C377      1.0  0.13666  0.16805  0.51088  1.0000
  C   C378      1.0  0.29834  0.34917  0.61364  1.0000
  H   H297      1.0  0.07822  0.15546  0.51325  1.0000
  H   H298      1.0  0.07690  0.15241  0.53914  1.0000
  H   H299      1.0  0.04604  0.16504  0.55248  1.0000
  C   C379      1.0  0.14699  0.25016  0.49474  1.0000
  H   H300      1.0  0.01679  0.18152  0.53956  1.0000
  H   H301      1.0  0.99280  0.15370  0.49923  1.0000
  H   H302      1.0  0.30068  0.36469  0.70724  1.0000
  C   C380      1.0  0.26530  0.37080  0.70733  1.0000
  C   C381      1.0  0.06790  0.45988  0.71879  1.0000
  H   H303      1.0  0.24457  0.35533  0.64655  1.0000
  H   H304      1.0  0.19489  0.30324  0.67719  1.0000
  H   H305      1.0  0.25980  0.06555  0.52513  1.0000
  C   C382      1.0  0.01539  0.31290  0.68986  1.0000
  C   C383      1.0  0.17605  0.31858  0.66174  1.0000
  C   C384      1.0  0.29867  0.20784  0.60827  1.0000
  C   C385      1.0  0.02641  0.45138  0.65416  1.0000
  H   H306      1.0  0.06622  0.22225  0.50848  1.0000
  C   C386      1.0  0.29118  0.37704  0.71089  1.0000
  H   H307      1.0  0.23311  0.38222  0.70898  1.0000
  C   C387      1.0  0.27518  0.19496  0.54419  1.0000
  C   C388      1.0  0.02886  0.46659  0.70251  1.0000
  C   C389      1.0  0.12563  0.25300  0.52295  1.0000
  C   C390      1.0  0.10486  0.23277  0.52933  1.0000
  H   H308      1.0  0.14124  0.14271  0.52704  1.0000
  H   H309      1.0  0.22501  0.30407  0.59923  1.0000
  C   C391      1.0  0.17235  0.27454  0.62630  1.0000
  C   C392      1.0  0.17500  0.25655  0.61687  1.0000
  C   C393      1.0  0.15528  0.24372  0.60712  1.0000
  C   C394      1.0  0.13287  0.24875  0.60680  1.0000
  C   C395      1.0  0.12998  0.26690  0.61617  1.0000
  C   C396      1.0  0.14997  0.27967  0.62597  1.0000
  P   P14       1.0  0.10074  0.27328  0.61601  1.0000
  C   C397      1.0  0.09261  0.28275  0.59883  1.0000
  C   C398      1.0  0.07300  0.24470  0.62153  1.0000
  C   C399      1.0  0.05174  0.24793  0.62746  1.0000
  C   C400      1.0  0.02986  0.22613  0.63140  1.0000
  C   C401      1.0  0.02872  0.20086  0.62921  1.0000
  C   C402      1.0  0.04967  0.19738  0.62331  1.0000
  C   C403      1.0  0.07172  0.21913  0.61951  1.0000
  C   C404      1.0  0.10589  0.28167  0.58656  1.0000
  C   C405      1.0  0.09912  0.28924  0.57351  1.0000
  C   C406      1.0  0.07921  0.29819  0.57258  1.0000
  C   C407      1.0  0.06617  0.29975  0.58473  1.0000
  C   C408      1.0  0.07264  0.29183  0.59776  1.0000
  C   C409      1.0  0.10491  0.29974  0.62824  1.0000
  C   C410      1.0  0.10175  0.29469  0.64281  1.0000
  C   C411      1.0  0.10468  0.31502  0.65226  1.0000
  C   C412      1.0  0.11078  0.34047  0.64726  1.0000
  C   C413      1.0  0.11414  0.34567  0.63281  1.0000
  C   C414      1.0  0.11160  0.32552  0.62335  1.0000
  H   H310      1.0  0.18783  0.28469  0.63377  1.0000
  H   H311      1.0  0.19242  0.25270  0.61705  1.0000
  H   H312      1.0  0.15739  0.22990  0.59973  1.0000
  H   H313      1.0  0.11784  0.23842  0.59918  1.0000
  H   H314      1.0  0.14847  0.29363  0.63336  1.0000
  H   H315      1.0  0.05182  0.26729  0.62888  1.0000
  C   C415      1.0  0.04474  0.48660  0.71162  1.0000
  C   C416      1.0  0.00025  0.23074  0.52712  1.0000
  H   H316      1.0  0.04859  0.17777  0.62125  1.0000
  H   H317      1.0  0.08723  0.21550  0.61477  1.0000
  H   H318      1.0  0.12147  0.27506  0.58684  1.0000
  H   H319      1.0  0.10922  0.28792  0.56409  1.0000
  H   H320      1.0  0.07363  0.30360  0.56243  1.0000
  H   H321      1.0  0.05054  0.30642  0.58403  1.0000
  H   H322      1.0  0.06197  0.29276  0.60701  1.0000
  H   H323      1.0  0.09693  0.27504  0.64684  1.0000
  H   H324      1.0  0.10207  0.31114  0.66349  1.0000
  H   H325      1.0  0.11291  0.35620  0.65457  1.0000
  H   H326      1.0  0.11844  0.36534  0.62896  1.0000
  H   H327      1.0  0.11456  0.33015  0.61223  1.0000
  H   H328      1.0  0.23432  0.33579  0.61881  1.0000
  C   C417      1.0  0.20132  0.34556  0.61434  1.0000
  P   P15       1.0  0.20792  0.11919  0.52947  1.0000
  H   H329      1.0  0.13033  0.15287  0.50288  1.0000
  C   C418      1.0  0.05211  0.43988  0.70987  1.0000
  C   C419      1.0  0.03258  0.44309  0.70182  1.0000
  C   C420      1.0  0.99922  0.05217  0.62211  1.0000
  C   C421      1.0  0.15554  0.09615  0.53529  1.0000
  H   H330      1.0  0.07031  0.26674  0.50253  1.0000
  C   C422      1.0  0.20817  0.29156  0.54048  1.0000
  H   H331      1.0  0.15657  0.41231  0.65087  1.0000
  H   H332      1.0  0.02997  0.25594  0.67410  1.0000
  H   H333      1.0  0.16773  0.42361  0.60616  1.0000
  P   P16       1.0  0.20811  0.36848  0.62885  1.0000
  H   H334      1.0  0.05518  0.42192  0.70911  1.0000
  H   H335      1.0  0.02069  0.42735  0.69491  1.0000
  H   H336      1.0  0.19842  0.14910  0.55306  1.0000
  C   C423      1.0  0.20158  0.10213  0.50116  1.0000
  S   S70       1.0  0.22487  0.00066  0.58418  1.0000
  C   C424      1.0  0.17812  0.39241  0.64121  1.0000
  C   C425      1.0  0.18111  0.26902  0.52044  1.0000
  C   C426      1.0  0.18037  0.13365  0.54986  1.0000
  C   C427      1.0  0.15801  0.13071  0.55715  1.0000
  C   C428      1.0  0.13450  0.11035  0.55365  1.0000
  C   C429      1.0  0.13326  0.09307  0.54271  1.0000
  C   C430      1.0  0.26546  0.17326  0.55313  1.0000
  C   C431      1.0  0.08678  0.26390  0.53626  1.0000
  H   H337      1.0  0.23805  0.13361  0.55557  1.0000
  H   H338      1.0  0.13343  0.19721  0.49711  1.0000
  H   H339      1.0  0.20692  0.08626  0.50445  1.0000
  C   C432      1.0  0.14283  0.16232  0.52447  1.0000
  C   C433      1.0  0.17931  0.11636  0.53887  1.0000
  H   H340      1.0  0.04359  0.46420  0.67451  1.0000
  C   C434      1.0  0.22534  0.34541  0.65076  1.0000
  H   H341      1.0  0.27261  0.17459  0.56391  1.0000
  H   H342      1.0  0.15442  0.08241  0.52695  1.0000
  S   S71       1.0  0.01503  0.24848  0.54261  1.0000
  C   C435      1.0  0.24576  0.15005  0.54838  1.0000
  H   H343      1.0  0.16785  0.26750  0.54197  1.0000
  H   H344      1.0  0.25482  0.35375  0.70086  1.0000
  C   C436      1.0  0.00583  0.35245  0.73321  1.0000
  H   H345      1.0  0.14299  0.29469  0.51876  1.0000
  H   H346      1.0  0.01508  0.30536  0.60142  1.0000
  C   C437      1.0  0.01200  0.36176  0.71931  1.0000
  C   C438      1.0  0.29307  0.41604  0.72326  1.0000
  C   C439      1.0  0.16406  0.40827  0.64108  1.0000
  C   C440      1.0  0.15995  0.41916  0.62843  1.0000
  C   C441      1.0  0.30307  0.09547  0.74040  1.0000
  H   H347      1.0  0.23624  0.17054  0.61638  1.0000
  H   H348      1.0  0.04396  0.45094  0.64985  1.0000
  C   C442      1.0  0.30140  0.23143  0.61485  1.0000
  C   C443      1.0  0.21624  0.09164  0.53373  1.0000
  C   C444      1.0  0.30776  0.28981  0.57749  1.0000
  H   H349      1.0  0.10346  0.21277  0.52922  1.0000
  H   H350      1.0  0.15698  0.30839  0.66606  1.0000
  H   H351      1.0  0.23629  0.40923  0.64902  1.0000
  H   H352      1.0  0.24060  0.21239  0.62779  1.0000
  C   C445      1.0  0.17037  0.41462  0.61592  1.0000
  H   H353      1.0  0.24833  0.10325  0.51935  1.0000
  H   H354      1.0  0.18747  0.07556  0.55008  1.0000
  C   C446      1.0  0.20289  0.07349  0.54421  1.0000
  C   C447      1.0  0.17934  0.33491  0.64999  1.0000
  C   C448      1.0  0.24387  0.06781  0.53040  1.0000
  C   C449      1.0  0.23721  0.08899  0.52710  1.0000
  H   H355      1.0  0.15571  0.17762  0.54533  1.0000
  C   C450      1.0  0.22674  0.29590  0.51729  1.0000
  H   H356      1.0  0.16549  0.34837  0.60773  1.0000
  C   C451      1.0  0.19740  0.31574  0.66803  1.0000
  C   C452      1.0  0.21760  0.33229  0.61203  1.0000
  C   C453      1.0  0.27426  0.42951  0.64084  1.0000
  C   C454      1.0  0.25454  0.18738  0.61624  1.0000
  C   C455      1.0  0.18405  0.27543  0.53489  1.0000
  C   C456      1.0  0.25702  0.21086  0.62268  1.0000
  H   H357      1.0  0.31104  0.44542  0.63048  1.0000
  C   C457      1.0  0.19072  0.30900  0.59224  1.0000
  H   H358      1.0  0.18655  0.29471  0.58379  1.0000
  C   C458      1.0  0.13870  0.19339  0.50759  1.0000
  Fe  Fe34      1.0  0.00092  0.22820  0.56364  1.0000
  H   H359      1.0  0.06306  0.28995  0.68891  1.0000
  C   C459      1.0  0.20973  0.05248  0.54755  1.0000
  C   C460      1.0  0.20403  0.34865  0.64450  1.0000
  H   H360      1.0  0.08322  0.45733  0.72482  1.0000
  H   H361      1.0  0.01472  0.04784  0.62687  1.0000
  H   H362      1.0  0.19940  0.03864  0.55569  1.0000
  H   H363      1.0  0.10860  0.30409  0.53043  1.0000
  H   H364      1.0  0.11668  0.26476  0.49606  1.0000
  H   H365      1.0  0.29382  0.46344  0.70821  1.0000
  C   C461      1.0  0.20263  0.27985  0.51164  1.0000
  H   H366      1.0  0.01815  0.18535  0.51379  1.0000
  H   H367      1.0  0.29510  0.29985  0.57521  1.0000
  C   C462      1.0  0.03913  0.31129  0.69262  1.0000
  H   H368      1.0  0.24851  0.31311  0.53615  1.0000
  C   C463      1.0  0.24909  0.41044  0.64037  1.0000
  P   P17       1.0  0.15017  0.24633  0.51365  1.0000
  C   C464      1.0  0.99693  0.22767  0.50129  1.0000
  C   C465      1.0  0.28037  0.23281  0.62200  1.0000
  C   C466      1.0  0.18467  0.39895  0.61605  1.0000
  H   H369      1.0  0.28981  0.21325  0.54800  1.0000
  H   H370      1.0  0.23862  0.32687  0.66730  1.0000
  C   C467      1.0  0.17914  0.33959  0.60579  1.0000
  C   C468      1.0  0.17417  0.32175  0.59464  1.0000
  C   C469      1.0  0.15119  0.18198  0.53472  1.0000
  C   C470      1.0  0.18789  0.38694  0.62862  1.0000
  H   H371      1.0  0.19346  0.39642  0.60638  1.0000
  H   H372      1.0  0.16263  0.33686  0.64520  1.0000
  H   H373      1.0  0.99732  0.37218  0.70019  1.0000
  H   H374      1.0  0.29644  0.41486  0.61024  1.0000
  H   H375      1.0  0.01315  0.48627  0.74076  1.0000
  C   C471      1.0  0.23006  0.04951  0.54058  1.0000
  C   C472      1.0  0.25309  0.38682  0.71190  1.0000
  H   H376      1.0  0.31425  0.20660  0.60218  1.0000
  C   C473      1.0  0.15386  0.20746  0.53135  1.0000
  C   C474      1.0  0.23891  0.24672  0.49503  1.0000
  H   H377      1.0  0.23891  0.16960  0.51487  1.0000
  C   C475      1.0  0.24067  0.39295  0.62894  1.0000
  C   C476      1.0  0.25767  0.39505  0.61787  1.0000
  H   H378      1.0  0.15742  0.31770  0.58788  1.0000
  H   H379      1.0  0.25174  0.38213  0.60884  1.0000
  H   H380      1.0  0.06968  0.22281  0.54104  1.0000
  C   C477      1.0  0.02609  0.45864  0.66824  1.0000
  C   C478      1.0  0.22960  0.30149  0.53173  1.0000
  H   H381      1.0  0.16068  0.22235  0.53943  1.0000
  C   C479      1.0  0.10756  0.28419  0.53011  1.0000
  C   C480      1.0  0.06412  0.48320  0.71973  1.0000
  H   H382      1.0  0.30906  0.36380  0.60598  1.0000
  H   H383      1.0  0.18164  0.38488  0.65121  1.0000
  H   H384      1.0  0.28068  0.44267  0.64982  1.0000
  H   H385      1.0  0.23529  0.03315  0.54319  1.0000
  H   H386      1.0  0.25688  0.42130  0.72333  1.0000
  H   H387      1.0  0.07163  0.26795  0.54135  1.0000
  H   H388      1.0  0.00967  0.37958  0.65403  1.0000
  C   C481      1.0  0.29127  0.43115  0.62993  1.0000
  H   H389      1.0  0.27312  0.16779  0.60378  1.0000
  C   C482      1.0  0.22202  0.32911  0.66251  1.0000
  C   C483      1.0  0.04446  0.29086  0.68690  1.0000
  C   C484      1.0  0.27541  0.18584  0.60912  1.0000
  H   H390      1.0  0.20233  0.21907  0.50266  1.0000
  H   H391      1.0  0.27329  0.21008  0.52343  1.0000
  C   C485      1.0  0.26567  0.19323  0.53036  1.0000
  C   C486      1.0  0.20006  0.12044  0.51093  1.0000
  C   C487      1.0  0.29629  0.46855  0.73087  1.0000
  C   C488      1.0  0.06369  0.25151  0.49456  1.0000
  C   C489      1.0  0.19175  0.13993  0.50622  1.0000
  H   H392      1.0  0.01178  0.32918  0.69410  1.0000
  H   H393      1.0  0.01143  0.18398  0.63183  1.0000
  H   H394      1.0  0.01343  0.22887  0.63575  1.0000
  C   C490      1.0  0.00434  0.44508  0.64564  1.0000
  C   C491      1.0  0.30506  0.39960  0.71877  1.0000
  C   C492      1.0  0.01091  0.41913  0.73679  1.0000
  C   C493      1.0  0.01701  0.29137  0.63628  1.0000
  H   H395      1.0  0.19013  0.15407  0.51359  1.0000
  H   H396      1.0  0.00349  0.33485  0.66102  1.0000
  H   H397      1.0  0.04228  0.40754  0.74173  1.0000
  C   C494      1.0  0.00174  0.27286  0.67617  1.0000
  C   C495      1.0  0.00358  0.45928  0.67402  1.0000
  C   C496      1.0  0.31953  0.00762  0.71590  1.0000
  S   S72       1.0  0.32483  0.38691  0.63346  1.0000
  C   C497      1.0  0.28972  0.47331  0.71709  1.0000
  H   H398      1.0  0.31916  0.33821  0.73493  1.0000
  C   C498      1.0  0.99631  0.29347  0.68184  1.0000
  C   C499      1.0  0.99441  0.36879  0.66129  1.0000
  H   H399      1.0  0.31588  0.28651  0.55560  1.0000
  C   C500      1.0  0.31938  0.28217  0.56643  1.0000
  P   P18       1.0  0.31070  0.44498  0.73373  1.0000
  C   C501      1.0  0.99498  0.04983  0.60751  1.0000
  C   C502      1.0  0.28071  0.10055  0.73931  1.0000
  C   C503      1.0  0.99295  0.36522  0.71092  1.0000
  C   C504      1.0  0.99486  0.43093  0.74168  1.0000
  C   C505      1.0  0.27774  0.49070  0.71464  1.0000
  H   H400      1.0  0.27254  0.49387  0.70391  1.0000
  H   H401      1.0  0.07660  0.49887  0.72649  1.0000
  C   C506      1.0  0.29092  0.48176  0.74221  1.0000
  H   H402      1.0  0.32527  0.40437  0.72101  1.0000
  C   C507      1.0  0.31004  0.99972  0.72944  1.0000
  H   H403      1.0  0.99567  0.48177  0.81215  1.0000
  H   H404      1.0  0.28406  0.10782  0.90253  1.0000
  C   C508      1.0  0.22426  0.07898  0.98342  1.0000
  C   C509      1.0  0.30866  0.43594  0.75217  1.0000
  H   H405      1.0  0.24198  0.09039  0.74669  1.0000
  C   C510      1.0  0.30133  0.28877  0.78695  1.0000
  H   H406      1.0  0.29588  0.25947  0.77079  1.0000
  H   H407      1.0  0.06907  0.27893  0.98830  1.0000
  C   C511      1.0  0.28873  0.41292  0.75692  1.0000
  H   H408      1.0  0.16253  0.10900  0.97973  1.0000
  H   H409      1.0  0.30993  0.02090  0.98848  1.0000
  C   C512      1.0  0.29332  0.16163  0.94565  1.0000
  C   C513      1.0  0.28716  0.26575  0.77938  1.0000
  C   C514      1.0  0.32308  0.10065  0.94393  1.0000
  C   C515      1.0  0.28918  0.29705  0.79759  1.0000
  C   C516      1.0  0.03010  0.41705  0.74558  1.0000
  H   H410      1.0  0.30580  0.21674  0.91632  1.0000
  C   C517      1.0  0.32119  0.16139  0.97856  1.0000
  H   H411      1.0  0.32098  0.22811  0.94166  1.0000
  H   H412      1.0  0.27955  0.00737  0.94610  1.0000
  H   H413      1.0  0.01972  0.44584  0.77507  1.0000
  H   H414      1.0  0.19742  0.04045  0.97719  1.0000
  H   H415      1.0  0.26219  0.14137  0.95991  1.0000
  C   C518      1.0  0.03582  0.45930  0.93714  1.0000
  C   C519      1.0  0.30963  0.18601  0.94010  1.0000
  C   C520      1.0  0.21755  0.05364  0.97818  1.0000
  C   C521      1.0  0.16237  0.12428  0.98675  1.0000
  C   C522      1.0  0.17382  0.15052  0.98262  1.0000
  H   H416      1.0  0.20925  0.08549  0.98630  1.0000
  C   C523      1.0  0.99924  0.46338  0.92523  1.0000
  C   C524      1.0  0.99448  0.44462  0.94873  1.0000
  C   C525      1.0  0.02047  0.44821  0.94883  1.0000
  C   C526      1.0  0.01710  0.43857  0.76434  1.0000
  C   C527      1.0  0.02523  0.46696  0.92538  1.0000
  H   H417      1.0  0.23165  0.02543  0.97047  1.0000
  C   C528      1.0  0.27219  0.18301  0.96007  1.0000
  P   P19       1.0  0.30361  0.10776  0.98477  1.0000
  C   C529      1.0  0.28262  0.06219  0.75805  1.0000
  H   H418      1.0  0.27179  0.38833  0.77483  1.0000
  C   C530      1.0  0.26143  0.25074  0.78275  1.0000
  C   C531      1.0  0.30669  0.14268  0.91434  1.0000
  H   H419      1.0  0.24360  0.05621  0.76324  1.0000
  H   H420      1.0  0.99864  0.48968  0.78650  1.0000
  H   H421      1.0  0.29956  0.31519  0.80325  1.0000
  H   H422      1.0  0.03717  0.47569  0.91634  1.0000
  C   C532      1.0  0.28868  0.20734  0.95482  1.0000
  C   C533      1.0  0.26980  0.08704  0.98195  1.0000
  C   C534      1.0  0.24961  0.25879  0.79358  1.0000
  H   H423      1.0  0.05595  0.46201  0.93722  1.0000
  H   H424      1.0  0.30622  0.01189  0.75041  1.0000
  C   C535      1.0  0.29159  0.01231  0.96798  1.0000
  H   H425      1.0  0.18221  0.19049  0.98838  1.0000
  H   H426      1.0  0.29037  0.14793  0.91602  1.0000
  C   C536      1.0  0.26345  0.28199  0.80096  1.0000
  H   H427      1.0  0.04047  0.30323  0.98941  1.0000
  C   C537      1.0  0.25022  0.09557  0.98545  1.0000
  H   H428      1.0  0.31629  0.25057  0.89773  1.0000
  C   C538      1.0  0.30548  0.42233  0.78090  1.0000
  C   C539      1.0  0.26028  0.06731  0.75694  1.0000
  C   C540      1.0  0.30759  0.20891  0.94505  1.0000
  H   H429      1.0  0.25463  0.11478  0.98986  1.0000
  H   H430      1.0  0.04804  0.42507  0.76621  1.0000
  C   C541      1.0  0.30802  0.14130  0.98815  1.0000
  C   C542      1.0  0.28719  0.40616  0.77124  1.0000
  C   C543      1.0  0.25934  0.08653  0.74760  1.0000
  C   C544      1.0  0.27450  0.16014  0.95550  1.0000
  H   H431      1.0  0.25420  0.28837  0.80925  1.0000
  C   C545      1.0  0.29570  0.01602  0.95335  1.0000
  H   H432      1.0  0.29558  0.14386  0.94275  1.0000
  H   H433      1.0  0.31488  0.30687  0.97570  1.0000
  H   H434      1.0  0.27431  0.40015  0.74964  1.0000
  H   H435      1.0  0.25813  0.18207  0.96799  1.0000
  H   H436      1.0  0.13507  0.24678  0.98632  1.0000
  H   H437      1.0  0.32142  0.09609  0.89777  1.0000
  H   H438      1.0  0.27746  0.05476  0.97333  1.0000
  H   H439      1.0  0.25060  0.23293  0.77691  1.0000
  H   H440      1.0  0.02869  0.44236  0.95798  1.0000
  H   H441      1.0  0.22965  0.24717  0.79616  1.0000
  H   H442      1.0  0.18279  0.15570  0.97239  1.0000
  H   H443      1.0  0.28730  0.22513  0.95863  1.0000
  C   C546      1.0  0.03329  0.42688  0.75935  1.0000
  C   C547      1.0  0.23684  0.04514  0.97449  1.0000
  H   H444      1.0  0.28911  0.09837  0.95471  1.0000
  C   C548      1.0  0.99755  0.44036  0.75555  1.0000
  C   C549      1.0  0.26282  0.06179  0.97626  1.0000
  C   C550      1.0  0.30430  0.07653  0.74994  1.0000
  C   C551      1.0  0.30930  0.10175  0.95589  1.0000
  H   H445      1.0  0.28288  0.04690  0.76514  1.0000
  C   C552      1.0  0.30309  0.12009  0.90656  1.0000
  C   C553      1.0  0.32056  0.03046  0.94798  1.0000
  S   S73       1.0  0.30470  0.25267  0.98482  1.0000
  C   C554      1.0  0.00572  0.49880  0.74626  1.0000
  H   H446      1.0  0.32332  0.03301  0.93671  1.0000
  H   H447      1.0  0.30426  0.41706  0.79198  1.0000
  C   C555      1.0  0.31267  0.02371  0.97722  1.0000
  H   H448      1.0  0.31347  0.09601  0.93372  1.0000
  H   H449      1.0  0.32239  0.30584  0.75199  1.0000
  C   C556      1.0  0.32143  0.10668  0.96926  1.0000
  C   C557      1.0  0.32410  0.11351  0.90383  1.0000
  H   H450      1.0  0.29569  0.47851  0.75296  1.0000
  C   C558      1.0  0.32426  0.22306  0.91117  1.0000
  C   C559      1.0  0.32305  0.34339  0.74601  1.0000
  H   H451      1.0  0.32555  0.38270  0.74296  1.0000
  C   C560      1.0  0.17368  0.17018  0.99170  1.0000
  C   C561      1.0  0.32521  0.18736  0.98156  1.0000
  C   C562      1.0  0.32535  0.44529  0.77624  1.0000
  C   C563      1.0  0.32526  0.32523  0.75568  1.0000
  C   C564      1.0  0.99249  0.84151  0.03966  1.0000
  S   S74       1.0  0.03913  0.71153  0.03699  1.0000
  H   H452      1.0  0.07303  0.52592  0.19451  1.0000
  S   S75       1.0  0.20082  0.96970  0.03069  1.0000
  Fe  Fe35      1.0  0.24157  0.97263  0.02758  1.0000
  S   S76       1.0  0.27089  0.96758  0.04330  1.0000
  Fe  Fe36      1.0  0.10268  0.64757  0.13437  1.0000
  S   S77       1.0  0.13989  0.65611  0.12308  1.0000
  S   S78       1.0  0.11080  0.64069  0.15731  1.0000
  Fe  Fe37      1.0  0.07541  0.65168  0.10628  1.0000
  S   S79       1.0  0.11086  0.65907  0.09360  1.0000
  S   S80       1.0  0.03927  0.65370  0.09593  1.0000
  Fe  Fe38      1.0  0.11520  0.62704  0.10698  1.0000
  S   S81       1.0  0.12920  0.59587  0.09953  1.0000
  Fe  Fe39      1.0  0.13159  0.68674  0.11123  1.0000
  S   S82       1.0  0.15610  0.73016  0.10971  1.0000
  S   S83       1.0  0.07817  0.61747  0.11856  1.0000
  S   S84       1.0  0.09600  0.68041  0.12354  1.0000
  Fe  Fe40      1.0  0.07403  0.64444  0.23511  1.0000
  C   C565      1.0  0.18383  0.79866  0.02168  1.0000
  S   S85       1.0  0.05376  0.64438  0.21414  1.0000
  C   C566      1.0  0.14280  0.79598  0.08513  1.0000
  C   C567      1.0  0.10446  0.82893  0.05136  1.0000
  H   H453      1.0  0.22738  0.93110  0.05984  1.0000
  Fe  Fe41      1.0  0.29223  0.87502  0.23557  1.0000
  S   S86       1.0  0.27385  0.88388  0.21567  1.0000
  C   C568      1.0  0.05254  0.72297  0.10492  1.0000
  Fe  Fe42      1.0  0.29755  0.82436  0.11054  1.0000
  S   S87       1.0  0.27766  0.84644  0.12165  1.0000
  S   S88       1.0  0.27828  0.78061  0.10686  1.0000
  C   C569      1.0  0.09155  0.75395  0.08659  1.0000
  C   C570      1.0  0.04608  0.72944  0.09155  1.0000
  Fe  Fe43      1.0  0.29581  0.87757  0.10508  1.0000
  S   S89       1.0  0.26591  0.89201  0.09562  1.0000
  C   C571      1.0  0.06050  0.51469  0.20277  1.0000
  C   C572      1.0  0.28659  0.87964  0.19932  1.0000
  C   C573      1.0  0.18507  0.86154  0.06148  1.0000
  C   C574      1.0  0.04146  0.52534  0.17194  1.0000
  H   H454      1.0  0.27644  0.91377  0.99965  1.0000
  C   C575      1.0  0.28407  0.87659  0.17346  1.0000
  C   C576      1.0  0.27384  0.88010  0.18647  1.0000
  C   C577      1.0  0.12654  0.87985  0.00814  1.0000
  H   H455      1.0  0.27419  0.87692  0.16363  1.0000
  H   H456      1.0  0.25599  0.88306  0.18661  1.0000
  C   C578      1.0  0.00390  0.86014  0.05036  1.0000
  H   H457      1.0  0.11112  0.85012  0.05128  1.0000
  H   H458      1.0  0.15239  0.84361  0.10984  1.0000
  C   C579      1.0  0.06544  0.74475  0.08239  1.0000
  H   H459      1.0  0.18995  0.84765  0.06761  1.0000
  H   H460      1.0  0.23089  0.74951  0.22283  1.0000
  H   H461      1.0  0.30780  0.92299  0.07676  1.0000
  C   C580      1.0  0.07061  0.56968  0.15582  1.0000
  C   C581      1.0  0.19000  0.74321  0.10929  1.0000
  C   C582      1.0  0.20321  0.77048  0.11001  1.0000
  C   C583      1.0  0.23017  0.78205  0.10908  1.0000
  C   C584      1.0  0.24426  0.76639  0.10770  1.0000
  C   C585      1.0  0.23107  0.73900  0.10712  1.0000
  C   C586      1.0  0.20394  0.72738  0.10793  1.0000
  H   H462      1.0  0.19246  0.78269  0.11123  1.0000
  H   H463      1.0  0.23993  0.80307  0.10923  1.0000
  H   H464      1.0  0.24183  0.72675  0.10599  1.0000
  H   H465      1.0  0.19382  0.70629  0.10731  1.0000
  C   C587      1.0  0.09491  0.64330  0.17277  1.0000
  C   C588      1.0  0.10561  0.64046  0.18581  1.0000
  C   C589      1.0  0.09325  0.64105  0.19847  1.0000
  C   C590      1.0  0.07002  0.64450  0.19828  1.0000
  C   C591      1.0  0.05930  0.64749  0.18521  1.0000
  C   C592      1.0  0.07177  0.64703  0.17247  1.0000
  H   H466      1.0  0.12354  0.63764  0.18610  1.0000
  H   H467      1.0  0.10158  0.63851  0.20838  1.0000
  H   H468      1.0  0.04129  0.65014  0.18495  1.0000
  H   H469      1.0  0.06330  0.64914  0.16245  1.0000
  C   C593      1.0  0.11576  0.56261  0.10525  1.0000
  C   C594      1.0  0.12819  0.54584  0.10188  1.0000
  C   C595      1.0  0.11748  0.51907  0.10573  1.0000
  H   H470      1.0  0.23826  0.95808  0.09131  1.0000
  C   C596      1.0  0.08185  0.52560  0.11643  1.0000
  C   C597      1.0  0.09272  0.55239  0.11277  1.0000
  H   H471      1.0  0.14600  0.55354  0.09605  1.0000
  H   H472      1.0  0.16137  0.51203  0.18753  1.0000
  H   H473      1.0  0.06361  0.51780  0.12186  1.0000
  H   H474      1.0  0.08285  0.56493  0.11538  1.0000
  C   C598      1.0  0.26832  0.94420  0.05688  1.0000
  C   C599      1.0  0.29090  0.94155  0.06175  1.0000
  C   C600      1.0  0.29030  0.92477  0.07315  1.0000
  C   C601      1.0  0.26720  0.91096  0.08013  1.0000
  C   C602      1.0  0.24448  0.91308  0.07507  1.0000
  C   C603      1.0  0.24493  0.92935  0.06343  1.0000
  H   H475      1.0  0.12476  0.76305  0.00701  1.0000
  C   C604      1.0  0.03064  0.54950  0.23351  1.0000
  H   H476      1.0  0.08143  0.58662  0.14940  1.0000
  C   C605      1.0  0.07271  0.54581  0.15348  1.0000
  C   C606      1.0  0.03837  0.69544  0.05348  1.0000
  C   C607      1.0  0.01576  0.68344  0.06124  1.0000
  C   C608      1.0  0.01630  0.67062  0.07413  1.0000
  C   C609      1.0  0.03944  0.66987  0.07952  1.0000
  C   C610      1.0  0.06207  0.68216  0.07182  1.0000
  C   C611      1.0  0.06149  0.69471  0.05888  1.0000
  H   H477      1.0  0.12703  0.50634  0.10286  1.0000
  C   C612      1.0  0.09402  0.50874  0.11286  1.0000
  H   H478      1.0  0.08002  0.68188  0.07578  1.0000
  H   H479      1.0  0.07911  0.70384  0.05300  1.0000
  H   H480      1.0  0.08537  0.54434  0.14531  1.0000
  Fe  Fe44      1.0  0.01056  0.72241  0.02349  1.0000
  S   S90       1.0  0.02793  0.74133  0.00274  1.0000
  H   H481      1.0  0.03400  0.87441  0.06627  1.0000
  C   C613      1.0  0.13661  0.75394  0.05197  1.0000
  H   H482      1.0  0.03755  0.71008  0.11172  1.0000
  H   H483      1.0  0.11035  0.90745  0.01405  1.0000
  H   H484      1.0  0.03161  0.80797  0.04234  1.0000
  H   H485      1.0  0.06497  0.87440  0.01426  1.0000
  C   C614      1.0  0.18342  0.88269  0.03927  1.0000
  C   C615      1.0  0.24374  0.81178  0.07145  1.0000
  C   C616      1.0  0.08618  0.81408  0.04136  1.0000
  S   S91       1.0  0.30884  0.84472  0.23354  1.0000
  P   P20       1.0  0.20356  0.84442  0.03791  1.0000
  C   C617      1.0  0.25339  0.83861  0.06853  1.0000
  H   H486      1.0  0.30193  0.49979  0.09526  1.0000
  C   C618      1.0  0.24137  0.84837  0.05830  1.0000
  C   C619      1.0  0.20232  0.52688  0.19089  1.0000
  C   C620      1.0  0.22587  0.54840  0.18972  1.0000
  C   C621      1.0  0.22655  0.57196  0.18405  1.0000
  C   C622      1.0  0.20369  0.57399  0.17951  1.0000
  C   C623      1.0  0.17996  0.55236  0.18052  1.0000
  C   C624      1.0  0.17939  0.52886  0.18641  1.0000
  P   P21       1.0  0.15061  0.55559  0.17488  1.0000
  C   C625      1.0  0.13997  0.57185  0.18835  1.0000
  C   C626      1.0  0.15638  0.57323  0.15837  1.0000
  C   C627      1.0  0.14285  0.58890  0.15474  1.0000
  C   C628      1.0  0.14590  0.60063  0.14146  1.0000
  C   C629      1.0  0.16303  0.59758  0.13184  1.0000
  C   C630      1.0  0.17658  0.58204  0.13533  1.0000
  C   C631      1.0  0.17316  0.56973  0.14850  1.0000
  C   C632      1.0  0.11507  0.57177  0.18744  1.0000
  C   C633      1.0  0.10622  0.58357  0.19794  1.0000
  C   C634      1.0  0.12201  0.59524  0.20957  1.0000
  C   C635      1.0  0.14671  0.59516  0.21067  1.0000
  C   C636      1.0  0.15575  0.58359  0.20009  1.0000
  C   C637      1.0  0.18986  0.86438  0.04694  1.0000
  H   H487      1.0  0.24360  0.54688  0.19325  1.0000
  H   H488      1.0  0.24480  0.58868  0.18318  1.0000
  H   H489      1.0  0.20448  0.59243  0.17521  1.0000
  C   C638      1.0  0.18825  0.81789  0.09148  1.0000
  H   H490      1.0  0.12960  0.59199  0.16190  1.0000
  H   H491      1.0  0.13457  0.61175  0.13858  1.0000
  H   H492      1.0  0.16541  0.60688  0.12156  1.0000
  H   H493      1.0  0.18920  0.57906  0.12763  1.0000
  H   H494      1.0  0.11778  0.75365  0.10346  1.0000
  H   H495      1.0  0.08719  0.58390  0.19698  1.0000
  H   H496      1.0  0.11507  0.60424  0.21779  1.0000
  H   H497      1.0  0.15868  0.60377  0.21986  1.0000
  H   H498      1.0  0.17484  0.58358  0.20130  1.0000
  H   H499      1.0  0.11609  0.51657  0.19416  1.0000
  C   C639      1.0  0.21944  0.83138  0.05085  1.0000
  H   H500      1.0  0.05318  0.59037  0.16828  1.0000
  H   H501      1.0  0.27134  0.95651  0.10801  1.0000
  H   H502      1.0  0.12852  0.52410  0.14905  1.0000
  C   C640      1.0  0.15689  0.83115  0.10250  1.0000
  C   C641      1.0  0.14111  0.71280  0.06733  1.0000
  H   H503      1.0  0.06413  0.77529  0.03318  1.0000
  H   H504      1.0  0.08338  0.72685  0.11952  1.0000
  C   C642      1.0  0.07429  0.84176  0.00830  1.0000
  C   C643      1.0  0.30238  0.94134  0.12483  1.0000
  H   H505      1.0  0.16710  0.91173  0.03990  1.0000
  H   H506      1.0  0.02607  0.72164  0.08804  1.0000
  C   C644      1.0  0.18244  0.65811  0.23105  1.0000
  H   H507      1.0  0.12818  0.82843  0.06904  1.0000
  C   C645      1.0  0.30718  0.87276  0.17333  1.0000
  C   C646      1.0  0.07838  0.73223  0.10925  1.0000
  C   C647      1.0  0.22746  0.85876  0.01149  1.0000
  H   H508      1.0  0.22648  0.90246  0.08036  1.0000
  H   H509      1.0  0.00984  0.85122  0.01120  1.0000
  S   S92       1.0  0.23139  0.94722  0.00818  1.0000
  H   H510      1.0  0.24767  0.67776  0.23252  1.0000
  C   C648      1.0  0.30600  0.96563  0.15101  1.0000
  Fe  Fe45      1.0  0.01601  0.77389  0.00901  1.0000
  C   C649      1.0  0.27342  0.79987  0.14949  1.0000
  C   C650      1.0  0.26552  0.77479  0.14369  1.0000
  C   C651      1.0  0.23949  0.75783  0.14388  1.0000
  C   C652      1.0  0.22130  0.76597  0.14978  1.0000
  C   C653      1.0  0.22905  0.79117  0.15569  1.0000
  C   C654      1.0  0.25528  0.80809  0.15540  1.0000
  P   P22       1.0  0.20544  0.80276  0.16230  1.0000
  C   C655      1.0  0.20730  0.80654  0.18135  1.0000
  C   C656      1.0  0.21240  0.83443  0.15425  1.0000
  C   C657      1.0  0.21094  0.85516  0.16215  1.0000
  C   C658      1.0  0.21780  0.88002  0.15610  1.0000
  C   C659      1.0  0.22612  0.88440  0.14213  1.0000
  C   C660      1.0  0.22758  0.86392  0.13419  1.0000
  C   C661      1.0  0.22069  0.83901  0.14019  1.0000
  C   C662      1.0  0.23115  0.81475  0.18854  1.0000
  C   C663      1.0  0.23259  0.81886  0.20314  1.0000
  C   C664      1.0  0.21032  0.81475  0.21074  1.0000
  C   C665      1.0  0.18655  0.80706  0.20368  1.0000
  C   C666      1.0  0.18508  0.80340  0.18903  1.0000
  C   C667      1.0  0.17378  0.77948  0.15683  1.0000
  C   C668      1.0  0.16010  0.75783  0.16545  1.0000
  C   C669      1.0  0.13677  0.73846  0.16073  1.0000
  C   C670      1.0  0.12699  0.74045  0.14734  1.0000
  C   C671      1.0  0.14054  0.76174  0.13866  1.0000
  C   C672      1.0  0.16386  0.78116  0.14334  1.0000
  H   H511      1.0  0.29352  0.81328  0.14904  1.0000
  H   H512      1.0  0.05968  0.74855  0.07198  1.0000
  H   H513      1.0  0.23324  0.73875  0.13888  1.0000
  H   H514      1.0  0.20118  0.75281  0.14913  1.0000
  H   H515      1.0  0.26170  0.82796  0.15930  1.0000
  H   H516      1.0  0.20491  0.85238  0.17305  1.0000
  H   H517      1.0  0.21689  0.89597  0.16232  1.0000
  H   H518      1.0  0.23167  0.90373  0.13749  1.0000
  H   H519      1.0  0.23450  0.86749  0.12343  1.0000
  H   H520      1.0  0.22223  0.82341  0.13390  1.0000
  H   H521      1.0  0.24883  0.81871  0.18294  1.0000
  H   H522      1.0  0.25114  0.82591  0.20859  1.0000
  H   H523      1.0  0.21166  0.81818  0.22205  1.0000
  H   H524      1.0  0.16662  0.79850  0.18373  1.0000
  H   H525      1.0  0.16758  0.75554  0.17573  1.0000
  H   H526      1.0  0.12643  0.72163  0.16733  1.0000
  H   H527      1.0  0.10913  0.72524  0.14360  1.0000
  H   H528      1.0  0.13337  0.76274  0.12809  1.0000
  H   H529      1.0  0.17431  0.79693  0.13620  1.0000
  C   C673      1.0  0.14834  0.71642  0.05320  1.0000
  H   H530      1.0  0.15557  0.70319  0.04821  1.0000
  H   H531      1.0  0.15138  0.73952  0.03452  1.0000
  H   H532      1.0  0.31971  0.87588  0.20878  1.0000
  C   C674      1.0  0.22716  0.69394  0.21857  1.0000
  C   C675      1.0  0.20294  0.69344  0.21439  1.0000
  C   C676      1.0  0.18058  0.67508  0.22055  1.0000
  P   P23       1.0  0.20024  0.71427  0.20029  1.0000
  C   C677      1.0  0.19429  0.69651  0.18373  1.0000
  C   C678      1.0  0.17244  0.72174  0.20412  1.0000
  C   C679      1.0  0.14852  0.70766  0.19737  1.0000
  C   C680      1.0  0.12639  0.71136  0.20132  1.0000
  C   C681      1.0  0.12777  0.72882  0.21216  1.0000
  C   C682      1.0  0.15135  0.74286  0.21894  1.0000
  C   C683      1.0  0.17358  0.73940  0.21496  1.0000
  C   C684      1.0  0.18867  0.70770  0.17146  1.0000
  C   C685      1.0  0.18157  0.69332  0.15890  1.0000
  C   C686      1.0  0.18003  0.66760  0.15849  1.0000
  C   C687      1.0  0.18562  0.65625  0.17062  1.0000
  C   C688      1.0  0.19272  0.67060  0.18320  1.0000
  C   C689      1.0  0.22954  0.74400  0.20011  1.0000
  C   C690      1.0  0.24290  0.75369  0.18750  1.0000
  C   C691      1.0  0.26595  0.77615  0.18768  1.0000
  C   C692      1.0  0.27579  0.78923  0.20038  1.0000
  C   C693      1.0  0.26290  0.77953  0.21297  1.0000
  C   C694      1.0  0.24008  0.75695  0.21286  1.0000
  H   H533      1.0  0.24465  0.70739  0.21369  1.0000
  H   H534      1.0  0.16166  0.67378  0.21720  1.0000
  H   H535      1.0  0.14648  0.69307  0.18939  1.0000
  C   C695      1.0  0.03486  0.57647  0.21274  1.0000
  S   S93       1.0  0.11675  0.65605  0.23587  1.0000
  H   H536      1.0  0.15222  0.75571  0.22770  1.0000
  H   H537      1.0  0.19122  0.74989  0.22079  1.0000
  H   H538      1.0  0.18915  0.72732  0.17174  1.0000
  H   H539      1.0  0.17649  0.70175  0.14955  1.0000
  H   H540      1.0  0.17386  0.65627  0.14885  1.0000
  H   H541      1.0  0.18378  0.63609  0.17030  1.0000
  H   H542      1.0  0.19629  0.66111  0.19252  1.0000
  H   H543      1.0  0.23588  0.74402  0.17752  1.0000
  H   H544      1.0  0.27607  0.78363  0.17795  1.0000
  H   H545      1.0  0.29332  0.80699  0.20048  1.0000
  H   H546      1.0  0.27050  0.78959  0.22286  1.0000
  H   H547      1.0  0.99867  0.66122  0.07997  1.0000
  H   H548      1.0  0.27940  0.76885  0.13854  1.0000
  H   H549      1.0  0.08193  0.75329  0.05043  1.0000
  H   H550      1.0  0.13535  0.76992  0.04587  1.0000
  S   S94       1.0  0.15972  0.90283  0.00777  1.0000
  C   C696      1.0  0.14604  0.73694  0.04551  1.0000
  H   H551      1.0  0.07828  0.82367  0.03381  1.0000
  H   H552      1.0  0.16934  0.80441  0.20954  1.0000
  Fe  Fe46      1.0  0.24080  0.98449  0.99576  1.0000
  H   H553      1.0  0.10245  0.56253  0.17861  1.0000
  C   C697      1.0  0.27708  0.97090  0.09964  1.0000
  H   H554      1.0  0.14308  0.69702  0.07334  1.0000
  H   H555      1.0  0.18312  0.55697  0.15081  1.0000
  C   C698      1.0  0.16847  0.79868  0.08377  1.0000
  Fe  Fe47      1.0  0.19081  0.94530  0.01064  1.0000
  C   C699      1.0  0.05839  0.52382  0.16156  1.0000
  C   C700      1.0  0.13708  0.81205  0.09475  1.0000
  C   C701      1.0  0.00571  0.54858  0.23570  1.0000
  C   C702      1.0  0.13116  0.72937  0.07374  1.0000
  C   C703      1.0  0.09462  0.83439  0.00496  1.0000
  C   C704      1.0  0.12880  0.75008  0.06611  1.0000
  C   C705      1.0  0.05457  0.57171  0.16643  1.0000
  H   H556      1.0  0.27540  0.92702  0.02453  1.0000
  H   H557      1.0  0.99781  0.68375  0.05724  1.0000
  C   C706      1.0  0.15319  0.81780  0.02723  1.0000
  C   C707      1.0  0.07813  0.78685  0.04106  1.0000
  C   C708      1.0  0.24535  0.87590  0.00218  1.0000
  C   C709      1.0  0.08815  0.77441  0.05092  1.0000
  H   H558      1.0  0.12533  0.72586  0.08463  1.0000
  C   C710      1.0  0.30952  0.87571  0.19903  1.0000
  H   H559      1.0  0.21389  0.77397  0.06682  1.0000
  H   H560      1.0  0.20809  0.82004  0.09033  1.0000
  C   C711      1.0  0.13972  0.77840  0.01296  1.0000
  C   C712      1.0  0.99516  0.56094  0.22596  1.0000
  H   H561      1.0  0.31145  0.51095  0.12595  1.0000
  H   H562      1.0  0.19795  0.84922  0.10658  1.0000
  C   C713      1.0  0.12513  0.52370  0.17195  1.0000
  C   C714      1.0  0.17409  0.87692  0.06825  1.0000
  C   C715      1.0  0.04010  0.54970  0.17448  1.0000
  H   H563      1.0  0.17075  0.87487  0.07951  1.0000
  C   C716      1.0  0.04516  0.56348  0.22210  1.0000
  S   S95       1.0  0.99922  0.75535  0.02986  1.0000
  C   C717      1.0  0.24435  0.89078  0.03020  1.0000
  C   C718      1.0  0.09781  0.74751  0.10012  1.0000
  H   H564      1.0  0.05174  0.84097  0.06113  1.0000
  H   H565      1.0  0.15917  0.90703  0.06571  1.0000
  H   H566      1.0  0.17326  0.78592  0.07683  1.0000
  C   C719      1.0  0.29632  0.50100  0.13342  1.0000
  H   H567      1.0  0.25311  0.80427  0.07941  1.0000
  H   H568      1.0  0.04647  0.58828  0.20426  1.0000
  H   H569      1.0  0.31920  0.52033  0.15156  1.0000
  C   C720      1.0  0.11414  0.81648  0.06141  1.0000
  C   C721      1.0  0.32086  0.78165  0.23234  1.0000
  H   H570      1.0  0.11730  0.80992  0.09611  1.0000
  H   H571      1.0  0.06273  0.50095  0.23776  1.0000
  H   H572      1.0  0.06481  0.56512  0.22090  1.0000
  H   H573      1.0  0.12627  0.54500  0.23688  1.0000
  P   P24       1.0  0.11719  0.77230  0.07465  1.0000
  C   C722      1.0  0.16762  0.89504  0.06051  1.0000
  H   H574      1.0  0.18691  0.88514  0.02803  1.0000
  C   C723      1.0  0.17220  0.89783  0.04602  1.0000
  C   C724      1.0  0.18250  0.83424  0.10075  1.0000
  H   H575      1.0  0.24358  0.89746  0.04080  1.0000
  C   C725      1.0  0.13403  0.79783  0.01960  1.0000
  C   C726      1.0  0.11144  0.50902  0.18349  1.0000
  S   S96       1.0  0.04118  0.81872  0.00906  1.0000
  C   C727      1.0  0.26235  0.90776  0.02092  1.0000
  H   H576      1.0  0.09073  0.52750  0.21867  1.0000
  H   H577      1.0  0.27012  0.85201  0.07428  1.0000
  H   H578      1.0  0.24910  0.86927  0.05648  1.0000
  H   H579      1.0  0.28760  0.92649  0.15939  1.0000
  H   H580      1.0  0.14820  0.83277  0.03203  1.0000
  C   C728      1.0  0.31402  0.96880  0.12575  1.0000
  H   H581      1.0  0.20181  0.50863  0.19527  1.0000
  H   H582      1.0  0.11475  0.79755  0.01872  1.0000
  H   H583      1.0  0.11041  0.73091  0.21558  1.0000
  C   C729      1.0  0.10567  0.78900  0.06144  1.0000
  C   C730      1.0  0.31781  0.50171  0.08841  1.0000
  H   H584      1.0  0.30908  0.95277  0.05674  1.0000
  H   H585      1.0  0.10792  0.69997  0.19631  1.0000
  C   C731      1.0  0.25811  0.97178  0.09021  1.0000
  H   H586      1.0  0.19195  0.79091  0.04915  1.0000
  H   H587      1.0  0.16911  0.76395  0.00864  1.0000
  H   H588      1.0  0.20311  0.79884  0.02230  1.0000
  C   C732      1.0  0.10620  0.88718  0.01154  1.0000
  C   C733      1.0  0.11866  0.51331  0.15824  1.0000
  C   C734      1.0  0.29285  0.92616  0.13691  1.0000
  S   S97       1.0  0.31421  0.85429  0.09337  1.0000
  S   S98       1.0  0.19953  0.98084  0.99664  1.0000
  H   H589      1.0  0.02775  0.55187  0.18254  1.0000
  H   H590      1.0  0.06045  0.50570  0.15950  1.0000
  H   H591      1.0  0.30094  0.93168  0.11475  1.0000
  H   H592      1.0  0.21378  0.84035  0.00738  1.0000
  C   C735      1.0  0.17827  0.81831  0.02840  1.0000
  C   C736      1.0  0.22170  0.79472  0.06430  1.0000
  C   C737      1.0  0.20943  0.80446  0.05415  1.0000
  C   C738      1.0  0.12045  0.85324  0.00490  1.0000
  H   H593      1.0  0.99943  0.52465  0.20003  1.0000
  C   C739      1.0  0.03518  0.84111  0.05523  1.0000
  C   C740      1.0  0.22700  0.86590  0.02568  1.0000
  H   H594      1.0  0.28437  0.90494  0.13612  1.0000
  C   C741      1.0  0.22895  0.67702  0.22916  1.0000
  C   C742      1.0  0.08037  0.86833  0.01159  1.0000
  Fe  Fe48      1.0  0.31424  0.86510  0.13418  1.0000
  C   C743      1.0  0.31569  0.98088  0.13895  1.0000
  C   C744      1.0  0.16466  0.77891  0.01392  1.0000
  C   C745      1.0  0.26488  0.98948  0.07895  1.0000
  C   C746      1.0  0.02382  0.82246  0.04469  1.0000
  H   H595      1.0  0.25035  0.98938  0.07128  1.0000
  H   H596      1.0  0.09040  0.81418  0.00230  1.0000
  H   H597      1.0  0.26254  0.51488  0.20654  1.0000
  C   C747      1.0  0.00259  0.82262  0.03694  1.0000
  C   C748      1.0  0.02518  0.85993  0.05809  1.0000
  C   C749      1.0  0.07060  0.51548  0.21643  1.0000
  C   C750      1.0  0.29470  0.93828  0.15000  1.0000
  C   C751      1.0  0.30298  0.98816  0.09802  1.0000
  S   S99       1.0  0.32205  0.86859  0.15778  1.0000
  H   H598      1.0  0.30752  0.97498  0.16120  1.0000
  H   H599      1.0  0.03934  0.54022  0.24081  1.0000
  C   C752      1.0  0.30065  0.50628  0.14785  1.0000
  H   H600      1.0  0.24437  0.50313  0.18231  1.0000
  H   H601      1.0  0.99423  0.80810  0.02871  1.0000
  H   H602      1.0  0.30404  0.75539  0.21496  1.0000
  C   C753      1.0  0.32000  0.77300  0.21845  1.0000
  C   C754      1.0  0.26288  0.90033  0.00691  1.0000
  C   C755      1.0  0.31969  0.87229  0.18614  1.0000
  H   H603      1.0  0.00227  0.58590  0.20757  1.0000
  H   H604      1.0  0.13585  0.84721  0.00219  1.0000
  C   C756      1.0  0.00986  0.57514  0.21464  1.0000
  H   H605      1.0  0.99656  0.87491  0.05275  1.0000
  H   H606      1.0  0.16506  0.64414  0.23582  1.0000
  C   C757      1.0  0.20659  0.65912  0.23540  1.0000
  H   H607      1.0  0.30566  0.77081  0.23962  1.0000
  C   C758      1.0  0.05480  0.50059  0.22721  1.0000
  C   C759      1.0  0.99233  0.84083  0.00513  1.0000
  Fe  Fe49      1.0  0.06841  0.63514  0.26726  1.0000
  S   S100      1.0  0.11145  0.64678  0.27008  1.0000
  S   S101      1.0  0.04519  0.61818  0.28729  1.0000
  Fe  Fe50      1.0  0.11667  0.67979  0.25483  1.0000
  H   H608      1.0  0.29179  0.94614  0.45598  1.0000
  H   H609      1.0  0.11076  0.50090  0.24815  1.0000
  C   C760      1.0  0.23556  0.89737  0.46606  1.0000
  H   H610      1.0  0.09319  0.53338  0.28561  1.0000
  C   C761      1.0  0.23125  0.81362  0.48431  1.0000
  C   C762      1.0  0.12888  0.94186  0.49022  1.0000
  H   H611      1.0  0.11727  0.85693  0.46530  1.0000
  H   H612      1.0  0.28895  0.98682  0.42003  1.0000
  Fe  Fe51      1.0  0.22139  0.97937  0.42803  1.0000
  S   S102      1.0  0.17881  0.96944  0.42485  1.0000
  C   C763      1.0  0.16341  0.84581  0.48460  1.0000
  Fe  Fe52      1.0  0.21346  0.96832  0.46018  1.0000
  S   S103      1.0  0.17084  0.95835  0.45899  1.0000
  H   H613      1.0  0.05392  0.53077  0.29594  1.0000
  Fe  Fe53      1.0  0.17099  0.93519  0.43950  1.0000
  S   S104      1.0  0.14568  0.89195  0.43477  1.0000
  S   S105      1.0  0.21348  0.94338  0.44140  1.0000
  C   C764      1.0  0.17211  0.64782  0.27316  1.0000
  C   C765      1.0  0.23208  0.76662  0.25357  1.0000
  C   C766      1.0  0.27742  0.93267  0.46287  1.0000
  C   C767      1.0  0.22063  0.73910  0.25220  1.0000
  H   H614      1.0  0.24222  0.79238  0.28598  1.0000
  S   S106      1.0  0.99366  0.69921  0.40421  1.0000
  Fe  Fe54      1.0  0.00319  0.77467  0.43781  1.0000
  S   S107      1.0  0.02476  0.81950  0.43816  1.0000
  S   S108      1.0  0.01928  0.74364  0.44049  1.0000
  C   C768      1.0  0.15476  0.88613  0.47066  1.0000
  H   H615      1.0  0.25128  0.91314  0.44583  1.0000
  H   H616      1.0  0.21364  0.67688  0.34571  1.0000
  H   H617      1.0  0.10596  0.57668  0.27385  1.0000
  C   C769      1.0  0.24111  0.90667  0.33516  1.0000
  H   H618      1.0  0.24983  0.75178  0.28324  1.0000
  C   C770      1.0  0.11199  0.87228  0.43612  1.0000
  C   C771      1.0  0.10319  0.84505  0.43385  1.0000
  C   C772      1.0  0.07669  0.82858  0.43455  1.0000
  C   C773      1.0  0.05852  0.83922  0.43736  1.0000
  C   C774      1.0  0.06732  0.86641  0.43982  1.0000
  C   C775      1.0  0.09387  0.88283  0.43929  1.0000
  H   H619      1.0  0.11700  0.83662  0.43145  1.0000
  H   H620      1.0  0.07033  0.80773  0.43270  1.0000
  H   H621      1.0  0.05350  0.87488  0.44208  1.0000
  H   H622      1.0  0.10028  0.90370  0.44108  1.0000
  C   C776      1.0  0.10030  0.51399  0.26755  1.0000
  C   C777      1.0  0.13540  0.86089  0.47084  1.0000
  C   C778      1.0  0.01404  0.61334  0.29360  1.0000
  C   C779      1.0  0.09958  0.53565  0.27481  1.0000
  H   H623      1.0  0.99509  0.85071  0.43865  1.0000
  C   C780      1.0  0.03066  0.54956  0.28665  1.0000
  S   S109      1.0  0.30608  0.90134  0.28908  1.0000
  S   S110      1.0  0.26940  0.85705  0.25511  1.0000
  H   H624      1.0  0.01762  0.59099  0.31162  1.0000
  H   H625      1.0  0.21788  0.70948  0.29178  1.0000
  C   C781      1.0  0.01933  0.51195  0.26528  1.0000
  C   C782      1.0  0.17767  0.73915  0.25453  1.0000
  C   C783      1.0  0.07338  0.84226  0.48595  1.0000
  C   C784      1.0  0.21612  0.78033  0.25499  1.0000
  C   C785      1.0  0.00318  0.83513  0.48150  1.0000
  S   S111      1.0  0.26632  0.78298  0.25406  1.0000
  C   C786      1.0  0.04117  0.53067  0.28726  1.0000
  C   C787      1.0  0.11833  0.54229  0.24737  1.0000
  C   C788      1.0  0.19109  0.72579  0.29914  1.0000
  H   H626      1.0  0.26381  0.92222  0.29645  1.0000
  H   H627      1.0  0.25944  0.99504  0.35376  1.0000
  C   C789      1.0  0.01452  0.54976  0.27535  1.0000
  C   C790      1.0  0.21412  0.72700  0.29305  1.0000
  C   C791      1.0  0.25791  0.94723  0.36154  1.0000
  C   C792      1.0  0.08861  0.66994  0.30641  1.0000
  C   C793      1.0  0.08330  0.68480  0.29583  1.0000
  H   H628      1.0  0.22458  0.80144  0.25606  1.0000
  H   H629      1.0  0.21546  0.93675  0.39492  1.0000
  C   C794      1.0  0.13461  0.69263  0.30227  1.0000
  C   C795      1.0  0.11414  0.67359  0.30953  1.0000
  P   P25       1.0  0.16714  0.69485  0.30507  1.0000
  C   C796      1.0  0.16829  0.66736  0.29546  1.0000
  C   C797      1.0  0.19882  0.68359  0.34237  1.0000
  H   H630      1.0  0.09947  0.71444  0.27987  1.0000
  C   C798      1.0  0.16108  0.64273  0.30197  1.0000
  C   C799      1.0  0.15967  0.62089  0.29413  1.0000
  C   C800      1.0  0.16518  0.62343  0.27973  1.0000
  H   H631      1.0  0.17704  0.77746  0.25706  1.0000
  C   C801      1.0  0.17343  0.66965  0.28095  1.0000
  C   C802      1.0  0.17389  0.69309  0.32362  1.0000
  C   C803      1.0  0.16088  0.70142  0.33378  1.0000
  C   C804      1.0  0.16650  0.70037  0.34816  1.0000
  H   H632      1.0  0.07278  0.65479  0.31177  1.0000
  H   H633      1.0  0.06343  0.68117  0.29309  1.0000
  S   S112      1.0  0.07379  0.67015  0.25345  1.0000
  C   C805      1.0  0.19321  0.68460  0.32799  1.0000
  H   H634      1.0  0.11778  0.66109  0.31732  1.0000
  H   H635      1.0  0.20250  0.79090  0.29761  1.0000
  C   C806      1.0  0.12907  0.70726  0.29156  1.0000
  H   H636      1.0  0.15574  0.64017  0.31299  1.0000
  H   H637      1.0  0.15359  0.60179  0.29910  1.0000
  C   C807      1.0  0.10354  0.70348  0.28841  1.0000
  C   C808      1.0  0.99602  0.75415  0.49228  1.0000
  H   H638      1.0  0.17731  0.68804  0.27554  1.0000
  H   H639      1.0  0.14647  0.70884  0.33064  1.0000
  H   H640      1.0  0.15625  0.70662  0.35597  1.0000
  H   H641      1.0  0.31718  0.92337  0.31691  1.0000
  C   C809      1.0  0.99796  0.62355  0.28669  1.0000
  H   H642      1.0  0.17524  0.64951  0.26190  1.0000
  C   C810      1.0  0.18913  0.76665  0.25558  1.0000
  H   H643      1.0  0.20790  0.64593  0.24358  1.0000
  C   C811      1.0  0.21662  0.93991  0.37220  1.0000
  C   C812      1.0  0.20578  0.77306  0.29643  1.0000
  H   H644      1.0  0.23532  0.90136  0.34597  1.0000
  S   S113      1.0  0.14358  0.72322  0.25601  1.0000
  H   H645      1.0  0.23529  0.84893  0.47343  1.0000
  C   C813      1.0  0.03590  0.51223  0.27643  1.0000
  S   S114      1.0  0.23622  0.96534  0.47969  1.0000
  H   H646      1.0  0.21783  0.88339  0.46140  1.0000
  S   S115      1.0  0.12822  0.59483  0.24639  1.0000
  H   H647      1.0  0.21437  0.86947  0.32705  1.0000
  C   C814      1.0  0.30610  0.99841  0.33039  1.0000
  C   C815      1.0  0.22709  0.93912  0.38557  1.0000
  C   C816      1.0  0.26068  0.93116  0.33193  1.0000
  Fe  Fe55      1.0  0.28751  0.82771  0.25348  1.0000
  H   H648      1.0  0.28831  0.94945  0.37651  1.0000
  C   C817      1.0  0.29406  0.99526  0.40963  1.0000
  H   H649      1.0  0.26100  0.94215  0.39739  1.0000
  C   C818      1.0  0.25281  0.94217  0.38697  1.0000
  C   C819      1.0  0.26854  0.93665  0.31784  1.0000
  C   C820      1.0  0.17853  0.89132  0.47735  1.0000
  H   H650      1.0  0.14435  0.72108  0.28533  1.0000
  C   C821      1.0  0.06243  0.82214  0.47604  1.0000
  S   S116      1.0  0.06516  0.60864  0.24874  1.0000
  H   H651      1.0  0.19673  0.93781  0.37120  1.0000
  H   H652      1.0  0.23276  0.72828  0.25100  1.0000
  C   C822      1.0  0.00527  0.59876  0.30607  1.0000
  C   C823      1.0  0.18741  0.74913  0.30116  1.0000
  C   C824      1.0  0.22822  0.77395  0.28996  1.0000
  C   C825      1.0  0.19354  0.72544  0.25252  1.0000
  C   C826      1.0  0.10698  0.56023  0.26819  1.0000
  H   H653      1.0  0.02287  0.84628  0.47828  1.0000
  H   H654      1.0  0.00452  0.63505  0.27719  1.0000
  C   C827      1.0  0.22898  0.83775  0.48305  1.0000
  C   C828      1.0  0.11656  0.56367  0.25448  1.0000
  C   C829      1.0  0.25457  0.91411  0.45715  1.0000
  Fe  Fe56      1.0  0.30541  0.88229  0.26754  1.0000
  H   H655      1.0  0.04609  0.78039  0.47243  1.0000
  C   C830      1.0  0.18539  0.69137  0.35246  1.0000
  C   C831      1.0  0.10975  0.51737  0.25378  1.0000
  H   H656      1.0  0.22875  0.87964  0.30224  1.0000
  H   H657      1.0  0.03542  0.56443  0.29480  1.0000
  C   C832      1.0  0.23193  0.94391  0.36021  1.0000
  H   H658      1.0  0.29883  0.94911  0.48194  1.0000
  H   H659      1.0  0.16324  0.60633  0.27354  1.0000
  H   H660      1.0  0.19340  0.91104  0.47696  1.0000
  C   C833      1.0  0.25698  0.91814  0.30722  1.0000
  C   C834      1.0  0.13963  0.84076  0.47788  1.0000
  H   H661      1.0  0.23935  0.80654  0.47575  1.0000
  H   H662      1.0  0.17018  0.74881  0.30620  1.0000
  H   H663      1.0  0.18973  0.69060  0.36360  1.0000
  H   H664      1.0  0.15140  0.90159  0.46508  1.0000
  H   H665      1.0  0.18496  0.70435  0.25138  1.0000
  C   C835      1.0  0.05461  0.79597  0.48014  1.0000
  H   H666      1.0  0.06009  0.82679  0.46513  1.0000
  H   H667      1.0  0.28413  0.95472  0.31493  1.0000
  H   H668      1.0  0.07983  0.86237  0.48238  1.0000
  C   C836      1.0  0.23736  0.89404  0.31051  1.0000
  C   C837      1.0  0.30695  0.94854  0.34988  1.0000
  C   C838      1.0  0.22935  0.88833  0.32447  1.0000
  P   P26       1.0  0.27779  0.95361  0.34601  1.0000
  C   C839      1.0  0.26826  0.94638  0.37503  1.0000
  C   C840      1.0  0.28649  0.98722  0.34031  1.0000
  S   S117      1.0  0.24450  0.99519  0.40775  1.0000
  H   H669      1.0  0.20398  0.67882  0.32028  1.0000
  C   C841      1.0  0.23248  0.75097  0.28839  1.0000
  C   C842      1.0  0.18320  0.87108  0.48420  1.0000
  C   C843      1.0  0.30893  0.92489  0.34624  1.0000
  H   H670      1.0  0.99808  0.76356  0.48209  1.0000
  H   H671      1.0  0.12455  0.82116  0.47791  1.0000
  H   H672      1.0  0.29334  0.90951  0.34075  1.0000
  C   C844      1.0  0.23926  0.89909  0.48080  1.0000
  H   H673      1.0  0.13745  0.96069  0.48495  1.0000
  C   C845      1.0  0.28141  0.93429  0.47750  1.0000
  H   H674      1.0  0.00719  0.56507  0.27501  1.0000
  C   C846      1.0  0.00825  0.53057  0.26473  1.0000
  H   H675      1.0  0.16634  0.82985  0.48985  1.0000
  C   C847      1.0  0.26244  0.91756  0.48644  1.0000
  Fe  Fe57      1.0  0.10809  0.62213  0.25084  1.0000
  H   H676      1.0  0.99586  0.75191  0.39100  1.0000
  H   H677      1.0  0.09110  0.94270  0.49116  1.0000
  S   S118      1.0  0.32181  0.85122  0.26736  1.0000
  H   H678      1.0  0.16411  0.93540  0.49051  1.0000
  H   H679      1.0  0.31688  0.98758  0.32648  1.0000
  Fe  Fe58      1.0  0.18230  0.99345  0.44444  1.0000
  P   P27       1.0  0.21443  0.87768  0.49228  1.0000
  H   H680      1.0  0.22365  0.94486  0.34993  1.0000
  H   H681      1.0  0.24780  0.64806  0.72462  1.0000
  H   H682      1.0  0.17146  0.68065  0.66506  1.0000
  H   H683      1.0  0.11913  0.82660  0.50625  1.0000
  H   H684      1.0  0.09215  0.50459  0.65496  1.0000
  Fe  Fe59      1.0  0.00366  0.79351  0.58419  1.0000
  S   S119      1.0  0.02545  0.83311  0.59441  1.0000
  S   S120      1.0  0.02453  0.77298  0.57260  1.0000
  S   S121      1.0  0.04727  0.62924  0.67348  1.0000
  S   S122      1.0  0.02761  0.61415  0.71147  1.0000
  S   S123      1.0  0.04802  0.69745  0.65612  1.0000
  H   H685      1.0  0.09127  0.52777  0.69802  1.0000
  H   H686      1.0  0.08934  0.56978  0.68997  1.0000
  C   C848      1.0  0.01029  0.61567  0.72679  1.0000
  H   H687      1.0  0.26567  0.91970  0.49773  1.0000
  H   H688      1.0  0.27386  0.96943  0.50035  1.0000
  C   C849      1.0  0.02406  0.70575  0.61004  1.0000
  C   C850      1.0  0.03373  0.68661  0.61353  1.0000
  C   C851      1.0  0.04160  0.68400  0.62749  1.0000
  C   C852      1.0  0.03980  0.70052  0.63816  1.0000
  C   C853      1.0  0.03059  0.71998  0.63461  1.0000
  C   C854      1.0  0.02279  0.72260  0.62065  1.0000
  H   H689      1.0  0.04867  0.66898  0.63003  1.0000
  C   C855      1.0  0.23613  0.90206  0.53304  1.0000
  C   C856      1.0  0.21958  0.91430  0.53649  1.0000
  P   P28       1.0  0.15472  0.61330  0.71281  1.0000
  C   C857      1.0  0.06775  0.80981  0.50424  1.0000
  C   C858      1.0  0.23473  0.89114  0.51961  1.0000
  Fe  Fe60      1.0  0.21623  0.97688  0.56393  1.0000
  S   S124      1.0  0.17697  0.97687  0.56048  1.0000
  H   H690      1.0  0.21740  0.86349  0.65629  1.0000
  Fe  Fe61      1.0  0.20700  0.96148  0.59545  1.0000
  S   S125      1.0  0.16678  0.96117  0.59398  1.0000
  S   S126      1.0  0.21404  0.94397  0.61644  1.0000
  Fe  Fe62      1.0  0.16303  0.94004  0.57352  1.0000
  S   S127      1.0  0.13152  0.90266  0.56542  1.0000
  S   S128      1.0  0.20199  0.93830  0.57543  1.0000
  Fe  Fe63      1.0  0.11247  0.68213  0.68734  1.0000
  S   S129      1.0  0.10496  0.67073  0.66436  1.0000
  S   S130      1.0  0.14906  0.71454  0.69713  1.0000
  Fe  Fe64      1.0  0.05796  0.64142  0.69617  1.0000
  Fe  Fe65      1.0  0.08680  0.62831  0.67212  1.0000
  S   S131      1.0  0.09046  0.59232  0.66156  1.0000
  Fe  Fe66      1.0  0.06590  0.67205  0.66775  1.0000
  S   S132      1.0  0.09716  0.63971  0.69478  1.0000
  S   S133      1.0  0.07382  0.68440  0.69064  1.0000
  S   S134      1.0  0.24541  0.98464  0.54637  1.0000
  S   S135      1.0  0.28004  0.89765  0.68708  1.0000
  C   C859      1.0  0.21846  0.84706  0.49406  1.0000
  Fe  Fe67      1.0  0.27990  0.85700  0.68423  1.0000
  S   S136      1.0  0.24417  0.81981  0.67746  1.0000
  C   C860      1.0  0.28869  0.79740  0.66118  1.0000
  S   S137      1.0  0.30850  0.87020  0.66653  1.0000
  C   C861      1.0  0.09039  0.56167  0.66793  1.0000
  C   C862      1.0  0.09084  0.54276  0.65816  1.0000
  H   H691      1.0  0.30635  0.96075  0.62445  1.0000
  C   C863      1.0  0.09145  0.51860  0.66266  1.0000
  C   C864      1.0  0.09103  0.53174  0.68685  1.0000
  C   C865      1.0  0.09010  0.55574  0.68233  1.0000
  H   H692      1.0  0.09095  0.54692  0.64698  1.0000
  H   H693      1.0  0.14193  0.50798  0.70178  1.0000
  C   C866      1.0  0.17520  0.74381  0.69131  1.0000
  C   C867      1.0  0.19339  0.75954  0.70135  1.0000
  C   C868      1.0  0.21452  0.78267  0.69738  1.0000
  C   C869      1.0  0.21803  0.79047  0.68321  1.0000
  C   C870      1.0  0.19981  0.77478  0.67314  1.0000
  C   C871      1.0  0.17857  0.75172  0.67713  1.0000
  H   H694      1.0  0.19110  0.75380  0.71235  1.0000
  H   H695      1.0  0.22812  0.79443  0.70530  1.0000
  H   H696      1.0  0.20209  0.78059  0.66217  1.0000
  H   H697      1.0  0.16484  0.74006  0.66923  1.0000
  H   H698      1.0  0.14455  0.89221  0.50221  1.0000
  C   C872      1.0  0.28263  0.93700  0.64107  1.0000
  C   C873      1.0  0.25730  0.92464  0.64588  1.0000
  C   C874      1.0  0.23664  0.92689  0.63815  1.0000
  C   C875      1.0  0.24093  0.94134  0.62546  1.0000
  C   C876      1.0  0.26619  0.95325  0.62051  1.0000
  C   C877      1.0  0.28687  0.95117  0.62831  1.0000
  H   H699      1.0  0.25368  0.91370  0.65567  1.0000
  H   H700      1.0  0.21724  0.91773  0.64214  1.0000
  H   H701      1.0  0.26985  0.96445  0.61081  1.0000
  H   H702      1.0  0.27733  0.97657  0.52603  1.0000
  C   C878      1.0  0.10285  0.88357  0.57422  1.0000
  C   C879      1.0  0.08638  0.86000  0.56792  1.0000
  C   C880      1.0  0.06285  0.84444  0.57413  1.0000
  C   C881      1.0  0.05560  0.85209  0.58683  1.0000
  C   C882      1.0  0.07230  0.87546  0.59334  1.0000
  C   C883      1.0  0.09591  0.89123  0.58705  1.0000
  H   H703      1.0  0.09150  0.85401  0.55796  1.0000
  H   H704      1.0  0.04998  0.82698  0.56878  1.0000
  H   H705      1.0  0.06683  0.88155  0.60317  1.0000
  H   H706      1.0  0.10854  0.90940  0.59199  1.0000
  H   H707      1.0  0.24649  0.85025  0.64234  1.0000
  C   C884      1.0  0.22291  0.79854  0.49652  1.0000
  H   H708      1.0  0.04286  0.50516  0.71228  1.0000
  C   C885      1.0  0.15581  0.54745  0.69376  1.0000
  H   H709      1.0  0.24784  0.88193  0.51705  1.0000
  C   C886      1.0  0.10635  0.74378  0.63340  1.0000
  C   C887      1.0  0.12203  0.73251  0.62743  1.0000
  C   C888      1.0  0.13384  0.74170  0.61448  1.0000
  C   C889      1.0  0.12999  0.76221  0.60753  1.0000
  C   C890      1.0  0.11439  0.77378  0.61352  1.0000
  C   C891      1.0  0.10245  0.76428  0.62648  1.0000
  P   P29       1.0  0.10860  0.79940  0.60404  1.0000
  C   C892      1.0  0.13740  0.82940  0.60313  1.0000
  C   C893      1.0  0.09680  0.78687  0.58655  1.0000
  C   C894      1.0  0.10251  0.80354  0.57472  1.0000
  C   C895      1.0  0.09319  0.79350  0.56130  1.0000
  C   C896      1.0  0.07819  0.76675  0.55955  1.0000
  C   C897      1.0  0.07239  0.75003  0.57124  1.0000
  C   C898      1.0  0.08156  0.76002  0.58468  1.0000
  C   C899      1.0  0.13551  0.85262  0.59839  1.0000
  C   C900      1.0  0.15752  0.87593  0.59756  1.0000
  C   C901      1.0  0.18156  0.87643  0.60177  1.0000
  C   C902      1.0  0.18359  0.85361  0.60684  1.0000
  C   C903      1.0  0.16162  0.83015  0.60748  1.0000
  C   C904      1.0  0.08397  0.80631  0.61305  1.0000
  C   C905      1.0  0.09092  0.82695  0.62287  1.0000
  C   C906      1.0  0.07187  0.83195  0.63006  1.0000
  C   C907      1.0  0.04586  0.81609  0.62777  1.0000
  C   C908      1.0  0.03885  0.79515  0.61833  1.0000
  C   C909      1.0  0.05776  0.79030  0.61090  1.0000
  H   H710      1.0  0.09672  0.73616  0.64327  1.0000
  C   C910      1.0  0.21880  0.97930  0.52028  1.0000
  H   H711      1.0  0.14559  0.73258  0.60973  1.0000
  H   H712      1.0  0.13882  0.76881  0.59736  1.0000
  H   H713      1.0  0.08964  0.77213  0.63115  1.0000
  H   H714      1.0  0.11379  0.82433  0.57571  1.0000
  H   H715      1.0  0.09717  0.80661  0.55230  1.0000
  H   H716      1.0  0.07040  0.75909  0.54921  1.0000
  H   H717      1.0  0.06000  0.72942  0.57001  1.0000
  H   H718      1.0  0.07616  0.74674  0.59362  1.0000
  H   H719      1.0  0.11695  0.85272  0.59531  1.0000
  H   H720      1.0  0.15590  0.89371  0.59375  1.0000
  H   H721      1.0  0.19855  0.89464  0.60127  1.0000
  H   H722      1.0  0.20220  0.85422  0.61035  1.0000
  H   H723      1.0  0.16368  0.81283  0.61146  1.0000
  H   H724      1.0  0.11098  0.83934  0.62494  1.0000
  H   H725      1.0  0.07719  0.84834  0.63726  1.0000
  H   H726      1.0  0.03107  0.82029  0.63308  1.0000
  H   H727      1.0  0.01865  0.78319  0.61642  1.0000
  H   H728      1.0  0.05178  0.77412  0.60351  1.0000
  H   H729      1.0  0.03484  0.67348  0.60540  1.0000
  H   H730      1.0  0.00992  0.84871  0.50304  1.0000
  C   C911      1.0  0.20186  0.91592  0.52646  1.0000
  P   P30       1.0  0.09272  0.86197  0.51279  1.0000
  H   H731      1.0  0.03145  0.65668  0.73117  1.0000
  C   C912      1.0  0.29852  0.88428  0.59647  1.0000
  C   C913      1.0  0.21693  0.97548  0.50539  1.0000
  C   C914      1.0  0.22847  0.64187  0.72876  1.0000
  C   C915      1.0  0.17751  0.66089  0.69851  1.0000
  C   C916      1.0  0.01601  0.63873  0.73452  1.0000
  H   H732      1.0  0.01327  0.83017  0.54155  1.0000
  H   H733      1.0  0.20357  0.98224  0.52588  1.0000
  C   C917      1.0  0.27839  0.88601  0.61858  1.0000
  H   H734      1.0  0.21016  0.63194  0.70832  1.0000
  H   H735      1.0  0.12458  0.71632  0.63274  1.0000
  C   C918      1.0  0.03136  0.84641  0.53935  1.0000
  C   C919      1.0  0.09198  0.51302  0.67709  1.0000
  C   C920      1.0  0.12871  0.63888  0.72714  1.0000
  H   H736      1.0  0.30035  0.88795  0.58521  1.0000
  C   C921      1.0  0.16895  0.66761  0.67398  1.0000
  H   H737      1.0  0.07147  0.89981  0.50323  1.0000
  H   H738      1.0  0.27913  0.82247  0.62986  1.0000
  C   C922      1.0  0.12666  0.61531  0.72079  1.0000
  C   C923      1.0  0.15239  0.64119  0.67285  1.0000
  H   H739      1.0  0.16810  0.58801  0.68839  1.0000
  H   H740      1.0  0.13410  0.56532  0.72947  1.0000
  H   H741      1.0  0.02912  0.73289  0.64275  1.0000
  H   H742      1.0  0.22925  0.80938  0.62805  1.0000
  C   C924      1.0  0.03903  0.86921  0.54747  1.0000
  Fe  Fe68      1.0  0.30959  0.91051  0.66992  1.0000
  C   C925      1.0  0.21681  0.89254  0.50949  1.0000
  H   H743      1.0  0.02709  0.87049  0.55607  1.0000
  C   C926      1.0  0.04733  0.84414  0.52871  1.0000
  H   H744      1.0  0.20565  0.79580  0.51692  1.0000
  C   C927      1.0  0.11839  0.85534  0.52150  1.0000
  C   C928      1.0  0.12731  0.83708  0.51589  1.0000
  C   C929      1.0  0.14722  0.83227  0.52267  1.0000
  C   C930      1.0  0.15884  0.84606  0.53493  1.0000
  C   C931      1.0  0.15055  0.86469  0.54037  1.0000
  C   C932      1.0  0.13058  0.86941  0.53363  1.0000
  C   C933      1.0  0.06251  0.89002  0.54482  1.0000
  C   C934      1.0  0.07846  0.88791  0.53415  1.0000
  H   H745      1.0  0.13448  0.60452  0.68361  1.0000
  C   C935      1.0  0.10235  0.59440  0.71979  1.0000
  H   H746      1.0  0.17436  0.84254  0.54018  1.0000
  H   H747      1.0  0.15964  0.87571  0.54980  1.0000
  H   H748      1.0  0.12491  0.88428  0.53789  1.0000
  H   H749      1.0  0.06883  0.90746  0.55136  1.0000
  H   H750      1.0  0.09672  0.90423  0.53244  1.0000
  C   C936      1.0  0.08286  0.62029  0.73185  1.0000
  C   C937      1.0  0.10688  0.89328  0.50400  1.0000
  C   C938      1.0  0.14829  0.62460  0.68455  1.0000
  H   H751      1.0  0.04095  0.82611  0.52273  1.0000
  C   C939      1.0  0.27575  0.80173  0.64937  1.0000
  C   C940      1.0  0.18205  0.62514  0.72481  1.0000
  H   H752      1.0  0.14210  0.63367  0.66301  1.0000
  H   H753      1.0  0.29338  0.87399  0.63700  1.0000
  H   H754      1.0  0.18955  0.92607  0.52907  1.0000
  H   H755      1.0  0.32557  0.80735  0.67166  1.0000
  S   S138      1.0  0.01304  0.70728  0.59245  1.0000
  H   H756      1.0  0.06951  0.80463  0.51515  1.0000
  S   S139      1.0  0.31195  0.86449  0.70036  1.0000
  C   C941      1.0  0.17856  0.62574  0.73944  1.0000
  C   C942      1.0  0.07121  0.86478  0.52612  1.0000
  C   C943      1.0  0.31642  0.83304  0.64024  1.0000
  H   H757      1.0  0.15359  0.81781  0.51840  1.0000
  H   H758      1.0  0.20138  0.83824  0.51478  1.0000
  S   S140      1.0  0.32038  0.92561  0.72377  1.0000
  H   H759      1.0  0.00179  0.78936  0.50382  1.0000
  H   H760      1.0  0.26839  0.89873  0.59871  1.0000
  H   H761      1.0  0.03672  0.55832  0.66926  1.0000
  H   H762      1.0  0.16149  0.54220  0.68373  1.0000
  H   H763      1.0  0.19342  0.69820  0.68785  1.0000
  H   H764      1.0  0.22460  0.77980  0.49745  1.0000
  C   C944      1.0  0.05740  0.78983  0.49423  1.0000
  C   C945      1.0  0.26034  0.97618  0.52040  1.0000
  H   H765      1.0  0.00710  0.55486  0.71099  1.0000
  H   H766      1.0  0.22103  0.92337  0.54677  1.0000
  C   C946      1.0  0.31457  0.87406  0.60346  1.0000
  C   C947      1.0  0.20713  0.63284  0.71955  1.0000
  H   H767      1.0  0.02690  0.58019  0.68962  1.0000
  H   H768      1.0  0.05096  0.76946  0.49744  1.0000
  H   H769      1.0  0.26472  0.89114  0.62447  1.0000
  C   C948      1.0  0.07624  0.83624  0.50014  1.0000
  H   H770      1.0  0.20027  0.97549  0.49960  1.0000
  C   C949      1.0  0.14481  0.52812  0.70396  1.0000
  H   H771      1.0  0.09996  0.57649  0.71436  1.0000
  C   C950      1.0  0.28955  0.81925  0.63885  1.0000
  C   C951      1.0  0.10691  0.64126  0.73274  1.0000
  C   C952      1.0  0.15546  0.89207  0.63373  1.0000
  C   C953      1.0  0.13460  0.89669  0.63892  1.0000
  C   C954      1.0  0.12158  0.88310  0.65081  1.0000
  C   C955      1.0  0.12924  0.86465  0.65740  1.0000
  C   C956      1.0  0.15013  0.85978  0.65218  1.0000
  C   C957      1.0  0.16332  0.87380  0.64034  1.0000
  P   P31       1.0  0.16177  0.83823  0.66173  1.0000
  C   C958      1.0  0.18022  0.85528  0.67710  1.0000
  C   C959      1.0  0.13544  0.80794  0.66668  1.0000
  C   C960      1.0  0.11149  0.79958  0.65951  1.0000
  C   C961      1.0  0.09171  0.77543  0.66279  1.0000
  C   C962      1.0  0.09583  0.75916  0.67298  1.0000
  C   C963      1.0  0.11967  0.76703  0.67997  1.0000
  C   C964      1.0  0.13936  0.79129  0.67687  1.0000
  C   C965      1.0  0.19665  0.84548  0.68408  1.0000
  C   C966      1.0  0.21222  0.85903  0.69543  1.0000
  C   C967      1.0  0.21166  0.88270  0.69992  1.0000
  C   C968      1.0  0.19543  0.89277  0.69305  1.0000
  C   C969      1.0  0.17980  0.87918  0.68167  1.0000
  C   C970      1.0  0.18292  0.82946  0.65063  1.0000
  C   C971      1.0  0.17325  0.80634  0.64256  1.0000
  C   C972      1.0  0.18991  0.79920  0.63439  1.0000
  C   C973      1.0  0.21628  0.81512  0.63417  1.0000
  C   C974      1.0  0.22599  0.83823  0.64209  1.0000
  C   C975      1.0  0.20938  0.84554  0.65017  1.0000
  H   H772      1.0  0.16598  0.90321  0.62476  1.0000
  H   H773      1.0  0.12889  0.91117  0.63383  1.0000
  H   H774      1.0  0.10574  0.88712  0.65500  1.0000
  H   H775      1.0  0.11935  0.85468  0.66680  1.0000
  H   H776      1.0  0.18003  0.87122  0.63632  1.0000
  H   H777      1.0  0.10815  0.81132  0.65118  1.0000
  H   H778      1.0  0.07330  0.76891  0.65721  1.0000
  H   H779      1.0  0.08067  0.74022  0.67532  1.0000
  H   H780      1.0  0.12305  0.75413  0.68768  1.0000
  H   H781      1.0  0.15769  0.79649  0.68229  1.0000
  H   H782      1.0  0.19806  0.82773  0.68044  1.0000
  H   H783      1.0  0.22519  0.85137  0.70049  1.0000
  H   H784      1.0  0.22414  0.89343  0.70856  1.0000
  H   H785      1.0  0.19532  0.91135  0.69639  1.0000
  H   H786      1.0  0.16796  0.88780  0.67638  1.0000
  H   H787      1.0  0.15296  0.79358  0.64270  1.0000
  H   H788      1.0  0.18241  0.78109  0.62841  1.0000
  H   H789      1.0  0.10850  0.65968  0.73734  1.0000
  C   C976      1.0  0.23676  0.97163  0.49812  1.0000
  H   H790      1.0  0.18651  0.66927  0.70849  1.0000
  C   C977      1.0  0.99801  0.76875  0.50463  1.0000
  C   C978      1.0  0.16138  0.63413  0.69738  1.0000
  C   C979      1.0  0.20084  0.90557  0.51294  1.0000
  H   H791      1.0  0.01512  0.73716  0.61817  1.0000
  H   H792      1.0  0.12865  0.51961  0.72471  1.0000
  C   C980      1.0  0.08055  0.59693  0.72531  1.0000
  C   C981      1.0  0.18148  0.67744  0.68681  1.0000
  H   H793      1.0  0.99620  0.50703  0.71191  1.0000
  C   C982      1.0  0.28046  0.89028  0.60403  1.0000
  H   H794      1.0  0.25489  0.79218  0.64872  1.0000
  C   C983      1.0  0.29457  0.87610  0.62563  1.0000
  C   C984      1.0  0.13708  0.53467  0.71683  1.0000
  C   C985      1.0  0.02211  0.55932  0.69000  1.0000
  C   C986      1.0  0.02755  0.54692  0.67848  1.0000
  C   C987      1.0  0.14000  0.56049  0.71941  1.0000
  C   C988      1.0  0.27237  0.50371  0.72595  1.0000
  Fe  Fe69      1.0  0.31475  0.90633  0.70179  1.0000
  C   C989      1.0  0.00477  0.51794  0.70248  1.0000
  H   H795      1.0  0.25032  0.90151  0.54073  1.0000
  C   C990      1.0  0.15899  0.57335  0.69635  1.0000
  C   C991      1.0  0.24063  0.97955  0.52783  1.0000
  Fe  Fe70      1.0  0.99747  0.73671  0.58356  1.0000
  H   H796      1.0  0.27782  0.78469  0.66960  1.0000
  S   S141      1.0  0.00039  0.77710  0.53299  1.0000
  C   C992      1.0  0.15043  0.57993  0.70905  1.0000
  H   H797      1.0  0.14701  0.65569  0.72743  1.0000
  S   S142      1.0  0.30953  0.93514  0.65043  1.0000
  C   C993      1.0  0.02206  0.52010  0.67899  1.0000
  H   H798      1.0  0.29989  0.97901  0.73172  1.0000
  C   C994      1.0  0.25832  0.97204  0.50579  1.0000
  H   H799      1.0  0.00601  0.64089  0.68960  1.0000
  H   H800      1.0  0.26300  0.51714  0.72402  1.0000
  C   C995      1.0  0.13288  0.90329  0.50011  1.0000
  H   H801      1.0  0.02754  0.51128  0.67012  1.0000
  Fe  Fe71      1.0  0.99348  0.76484  0.55594  1.0000
  H   H802      1.0  0.06165  0.58122  0.72406  1.0000
  C   C996      1.0  0.01032  0.50531  0.69094  1.0000
  C   C997      1.0  0.99590  0.75707  0.51798  1.0000
  C   C998      1.0  0.31551  0.81018  0.66235  1.0000
  C   C999      1.0  0.10276  0.93170  0.49374  1.0000
  C   C1000     1.0  0.27903  0.49930  0.73973  1.0000
  H   H803      1.0  0.18807  0.90838  0.50514  1.0000
  C   C1001     1.0  0.20994  0.83168  0.50625  1.0000
  C   C1002     1.0  0.21224  0.80756  0.50749  1.0000
  C   C1003     1.0  0.31265  0.86976  0.61813  1.0000
  Fe  Fe72      1.0  0.18429  0.99853  0.58124  1.0000
  H   H804      1.0  0.32131  0.80314  0.61861  1.0000
  H   H805      1.0  0.06584  0.62247  0.73577  1.0000
  H   H806      1.0  0.31671  0.99303  0.70776  1.0000
  C   C1004     1.0  0.01092  0.54493  0.70204  1.0000
  H   H807      1.0  0.02862  0.53295  0.73416  1.0000
  C   C1005     1.0  0.99583  0.83657  0.49539  1.0000
  C   C1006     1.0  0.09173  0.90745  0.50057  1.0000
  C   C1007     1.0  0.01451  0.52528  0.74242  1.0000
  C   C1008     1.0  0.14392  0.92763  0.49339  1.0000
  C   C1009     1.0  0.99442  0.83393  0.99117  1.0000
  H   H808      1.0  0.99443  0.67948  0.85636  1.0000
  C   C1010     1.0  0.30977  0.96241  0.97980  1.0000
  C   C1011     1.0  0.00186  0.63847  0.74676  1.0000
  C   C1012     1.0  0.99582  0.71800  0.86024  1.0000
  C   C1013     1.0  0.30411  0.95879  0.96537  1.0000
  H   H809      1.0  0.24146  0.65002  0.75040  1.0000
  H   H810      1.0  0.28460  0.95454  0.96159  1.0000
  H   H811      1.0  0.01337  0.83859  0.98675  1.0000
  H   H812      1.0  0.24531  0.87044  0.99121  1.0000
  H   H813      1.0  0.00654  0.65636  0.75274  1.0000
  C   C1014     1.0  0.32368  0.96161  0.95579  1.0000
  S   S143      1.0  0.26006  0.99218  0.97399  1.0000
  C   C1015     1.0  0.19996  0.63478  0.74862  1.0000
  H   H814      1.0  0.00987  0.61296  0.84807  1.0000
  H   H815      1.0  0.15939  0.61920  0.74380  1.0000
  H   H816      1.0  0.01402  0.72765  0.85489  1.0000
  H   H817      1.0  0.29465  0.96113  0.98710  1.0000
  H   H818      1.0  0.31876  0.95867  0.94467  1.0000
  H   H819      1.0  0.01214  0.56250  0.74640  1.0000
  H   H820      1.0  0.19718  0.63546  0.75989  1.0000
  C   C1016     1.0  0.00521  0.54195  0.74929  1.0000
  H   H821      1.0  0.99267  0.63129  0.86712  1.0000
  C   C1017     1.0  0.22490  0.64294  0.74328  1.0000
  H   H822      1.0  0.27483  0.50938  0.74849  1.0000
  H   H823      1.0  0.99235  0.75414  0.86560  1.0000
  C   C1018     1.0  0.33307  0.49489  0.06561  1.0000
  H   H824      1.0  0.44136  0.42488  0.12034  1.0000
  P   P32       1.0  0.40199  0.38408  0.13723  1.0000
  C   C1019     1.0  0.36518  0.45101  0.05291  1.0000
  C   C1020     1.0  0.40069  0.38218  0.10779  1.0000
  C   C1021     1.0  0.42112  0.34388  0.10618  1.0000
  Fe  Fe73      1.0  0.35662  0.46047  0.11332  1.0000
  H   H825      1.0  0.34001  0.07786  0.12335  1.0000
  S   S144      1.0  0.35532  0.42233  0.12246  1.0000
  C   C1022     1.0  0.33494  0.03857  0.11765  1.0000
  H   H826      1.0  0.53042  0.37409  0.03174  1.0000
  C   C1023     1.0  0.51406  0.39339  0.00017  1.0000
  C   C1024     1.0  0.44244  0.46177  0.12764  1.0000
  C   C1025     1.0  0.63863  0.48009  0.23502  1.0000
  C   C1026     1.0  0.41784  0.35332  0.11937  1.0000
  H   H827      1.0  0.38415  0.01801  0.11404  1.0000
  C   C1027     1.0  0.34134  0.42147  0.16990  1.0000
  C   C1028     1.0  0.34917  0.36014  0.13026  1.0000
  C   C1029     1.0  0.33898  0.41911  0.19571  1.0000
  C   C1030     1.0  0.41406  0.41956  0.13719  1.0000
  C   C1031     1.0  0.53648  0.36048  0.01137  1.0000
  H   H828      1.0  0.32871  0.48759  0.05489  1.0000
  C   C1032     1.0  0.44323  0.39112  0.15579  1.0000
  H   H829      1.0  0.35255  0.42571  0.16038  1.0000
  Fe  Fe74      1.0  0.33927  0.42888  0.23298  1.0000
  C   C1033     1.0  0.37621  0.41865  0.06546  1.0000
  H   H830      1.0  0.40754  0.47904  0.07995  1.0000
  H   H831      1.0  0.63866  0.46563  0.22738  1.0000
  C   C1034     1.0  0.52811  0.37528  0.02040  1.0000
  H   H832      1.0  0.37333  0.37811  0.16360  1.0000
  H   H833      1.0  0.34898  0.40959  0.04815  1.0000
  S   S145      1.0  0.34087  0.37165  0.09022  1.0000
  C   C1035     1.0  0.45600  0.38316  0.16646  1.0000
  C   C1036     1.0  0.40381  0.37254  0.09465  1.0000
  H   H834      1.0  0.40958  0.06397  0.12060  1.0000
  C   C1037     1.0  0.41854  0.37416  0.15110  1.0000
  H   H835      1.0  0.42316  0.34539  0.12878  1.0000
  H   H836      1.0  0.41094  0.32162  0.17218  1.0000
  C   C1038     1.0  0.40746  0.37248  0.12027  1.0000
  H   H837      1.0  0.38774  0.09410  0.12526  1.0000
  C   C1039     1.0  0.40493  0.43272  0.14695  1.0000
  C   C1040     1.0  0.38872  0.05685  0.11980  1.0000
  C   C1041     1.0  0.53357  0.36202  0.99674  1.0000
  H   H838      1.0  0.34454  0.13529  0.00551  1.0000
  C   C1042     1.0  0.43334  0.43437  0.12771  1.0000
  C   C1043     1.0  0.37418  0.03071  0.11608  1.0000
  H   H839      1.0  0.51074  0.40349  0.02178  1.0000
  C   C1044     1.0  0.39265  0.43822  0.07445  1.0000
  H   H840      1.0  0.45420  0.35208  0.18071  1.0000
  Fe  Fe75      1.0  0.33344  0.40344  0.10237  1.0000
  C   C1045     1.0  0.40715  0.34890  0.15693  1.0000
  H   H841      1.0  0.39757  0.37941  0.08513  1.0000
  C   C1046     1.0  0.34955  0.06469  0.12135  1.0000
  H   H842      1.0  0.45261  0.41053  0.15131  1.0000
  C   C1047     1.0  0.44435  0.35817  0.17239  1.0000
  H   H843      1.0  0.38831  0.33533  0.15328  1.0000
  H   H844      1.0  0.54537  0.34789  0.01571  1.0000
  H   H845      1.0  0.39216  0.39658  0.10823  1.0000
  C   C1048     1.0  0.41388  0.46007  0.14676  1.0000
  C   C1049     1.0  0.35951  0.37037  0.15502  1.0000
  H   H846      1.0  0.40607  0.46998  0.15403  1.0000
  H   H847      1.0  0.35461  0.35969  0.11941  1.0000
  S   S146      1.0  0.32914  0.46395  0.23398  1.0000
  C   C1050     1.0  0.51699  0.39180  0.01480  1.0000
  C   C1051     1.0  0.43250  0.47459  0.13705  1.0000
  C   C1052     1.0  0.36780  0.37053  0.14107  1.0000
  C   C1053     1.0  0.33318  0.36073  0.15800  1.0000
  S   S147      1.0  0.35482  0.42084  0.21223  1.0000
  H   H848      1.0  0.34328  0.33065  0.07234  1.0000
  C   C1054     1.0  0.41399  0.35339  0.09383  1.0000
  C   C1055     1.0  0.41997  0.34102  0.16760  1.0000
  H   H849      1.0  0.39071  0.42199  0.15462  1.0000
  H   H850      1.0  0.47493  0.39643  0.17015  1.0000
  H   H851      1.0  0.65002  0.07567  0.99593  1.0000
  H   H852      1.0  0.42885  0.32888  0.10553  1.0000
  H   H853      1.0  0.64711  0.03085  0.03139  1.0000
  C   C1056     1.0  0.65153  0.02711  0.04211  1.0000
  H   H854      1.0  0.41598  0.34567  0.08363  1.0000
  H   H855      1.0  0.45696  0.47311  0.12015  1.0000
  C   C1057     1.0  0.36236  0.42501  0.05477  1.0000
  C   C1058     1.0  0.34744  0.10598  0.01941  1.0000
  S   S148      1.0  0.33776  0.44210  0.09260  1.0000
  C   C1059     1.0  0.34715  0.02138  0.11498  1.0000
  H   H856      1.0  0.37356  0.39839  0.06703  1.0000
  H   H857      1.0  0.40257  0.43306  0.08308  1.0000
  C   C1060     1.0  0.37643  0.07383  0.12242  1.0000
  H   H858      1.0  0.32945  0.01934  0.08517  1.0000
  C   C1061     1.0  0.33682  0.11457  0.00798  1.0000
  C   C1062     1.0  0.35354  0.42470  0.18327  1.0000
  H   H859      1.0  0.35368  0.45543  0.04485  1.0000
  H   H860      1.0  0.37432  0.43135  0.18400  1.0000
  H   H861      1.0  0.43901  0.49575  0.13672  1.0000
  H   H862      1.0  0.34640  0.07260  0.03155  1.0000
  C   C1063     1.0  0.33820  0.07930  0.02271  1.0000
  H   H863      1.0  0.42455  0.48727  0.10309  1.0000
  C   C1064     1.0  0.38218  0.47091  0.06166  1.0000
  H   H864      1.0  0.39996  0.48901  0.03321  1.0000
  H   H865      1.0  0.36288  0.12003  0.02569  1.0000
  C   C1065     1.0  0.39550  0.46425  0.07261  1.0000
  H   H866      1.0  0.50571  0.40652  0.99595  1.0000
  H   H867      1.0  0.32693  0.36154  0.16870  1.0000
  C   C1066     1.0  0.63447  0.00462  0.04890  1.0000
  H   H868      1.0  0.65701  0.07978  0.02183  1.0000
  C   C1067     1.0  0.45781  0.46164  0.27046  1.0000
  H   H869      1.0  0.46787  0.47767  0.26339  1.0000
  H   H870      1.0  0.45881  0.31593  0.30411  1.0000
  H   H871      1.0  0.63043  0.00433  0.37460  1.0000
  Fe  Fe76      1.0  0.39183  0.31679  0.36666  1.0000
  S   S149      1.0  0.37848  0.28619  0.34962  1.0000
  S   S150      1.0  0.36705  0.31668  0.38586  1.0000
  Fe  Fe77      1.0  0.44757  0.34329  0.35435  1.0000
  S   S151      1.0  0.43681  0.31275  0.33718  1.0000
  S   S152      1.0  0.49057  0.37221  0.35393  1.0000
  Fe  Fe78      1.0  0.40025  0.31995  0.33489  1.0000
  S   S153      1.0  0.38947  0.32713  0.31222  1.0000
  Fe  Fe79      1.0  0.41624  0.28193  0.35338  1.0000
  S   S154      1.0  0.42364  0.24501  0.35935  1.0000
  S   S155      1.0  0.41139  0.35099  0.35169  1.0000
  S   S156      1.0  0.42923  0.31203  0.37083  1.0000
  Fe  Fe80      1.0  0.39810  0.08925  0.34683  1.0000
  S   S157      1.0  0.41228  0.07886  0.36748  1.0000
  S   S158      1.0  0.38638  0.12379  0.34147  1.0000
  Fe  Fe81      1.0  0.39058  0.03576  0.33342  1.0000
  S   S159      1.0  0.40388  0.02228  0.35324  1.0000
  S   S160      1.0  0.38330  0.01405  0.31211  1.0000
  Fe  Fe82      1.0  0.37953  0.03924  0.36503  1.0000
  H   H872      1.0  0.33834  0.31533  0.32650  1.0000
  Fe  Fe83      1.0  0.43586  0.06251  0.35437  1.0000
  S   S161      1.0  0.47394  0.06087  0.36256  1.0000
  S   S162      1.0  0.36407  0.05012  0.34511  1.0000
  S   S163      1.0  0.42384  0.07555  0.33382  1.0000
  H   H873      1.0  0.41775  0.26804  0.39891  1.0000
  C   C1068     1.0  0.56571  0.07461  0.28408  1.0000
  S   S164      1.0  0.61841  0.04316  0.35560  1.0000
  H   H874      1.0  0.51845  0.03565  0.33137  1.0000
  Fe  Fe84      1.0  0.62502  0.08394  0.34845  1.0000
  S   S165      1.0  0.59271  0.09887  0.34449  1.0000
  H   H875      1.0  0.35305  0.17818  0.39480  1.0000
  C   C1069     1.0  0.62937  0.46006  0.34614  1.0000
  H   H876      1.0  0.35688  0.25629  0.38717  1.0000
  P   P33       1.0  0.36994  0.22737  0.41022  1.0000
  Fe  Fe85      1.0  0.64251  0.04221  0.33698  1.0000
  C   C1070     1.0  0.52668  0.45163  0.31360  1.0000
  H   H877      1.0  0.42828  0.01274  0.27457  1.0000
  C   C1071     1.0  0.50636  0.07018  0.35657  1.0000
  C   C1072     1.0  0.52350  0.06258  0.36462  1.0000
  C   C1073     1.0  0.54963  0.07030  0.36079  1.0000
  C   C1074     1.0  0.55921  0.08611  0.34892  1.0000
  C   C1075     1.0  0.54200  0.09341  0.34073  1.0000
  C   C1076     1.0  0.51572  0.08532  0.34443  1.0000
  H   H878      1.0  0.51660  0.05095  0.37404  1.0000
  H   H879      1.0  0.56256  0.06468  0.36728  1.0000
  H   H880      1.0  0.54913  0.10572  0.33155  1.0000
  H   H881      1.0  0.50292  0.09136  0.33808  1.0000
  C   C1077     1.0  0.35011  0.21849  0.43756  1.0000
  H   H882      1.0  0.50970  0.43076  0.27976  1.0000
  C   C1078     1.0  0.58782  0.09719  0.28143  1.0000
  H   H883      1.0  0.62059  0.02461  0.29883  1.0000
  C   C1079     1.0  0.45072  0.34612  0.29323  1.0000
  C   C1080     1.0  0.51031  0.40648  0.35209  1.0000
  C   C1081     1.0  0.50121  0.42620  0.35449  1.0000
  C   C1082     1.0  0.51820  0.45299  0.35374  1.0000
  C   C1083     1.0  0.54448  0.46060  0.35040  1.0000
  C   C1084     1.0  0.55334  0.44086  0.34760  1.0000
  C   C1085     1.0  0.53647  0.41412  0.34853  1.0000
  H   H884      1.0  0.48121  0.42080  0.35723  1.0000
  H   H885      1.0  0.51094  0.46794  0.35585  1.0000
  H   H886      1.0  0.57317  0.44607  0.34474  1.0000
  H   H887      1.0  0.54382  0.39916  0.34660  1.0000
  C   C1086     1.0  0.41330  0.21158  0.35380  1.0000
  C   C1087     1.0  0.42598  0.19623  0.35946  1.0000
  C   C1088     1.0  0.41850  0.16963  0.35559  1.0000
  C   C1089     1.0  0.39802  0.15784  0.34603  1.0000
  C   C1090     1.0  0.38514  0.17310  0.34048  1.0000
  C   C1091     1.0  0.39275  0.19978  0.34427  1.0000
  H   H888      1.0  0.44197  0.20510  0.36677  1.0000
  H   H889      1.0  0.42851  0.15822  0.36007  1.0000
  H   H890      1.0  0.36919  0.16424  0.33314  1.0000
  H   H891      1.0  0.38273  0.21119  0.33984  1.0000
  C   C1092     1.0  0.35259  0.38151  0.29336  1.0000
  C   C1093     1.0  0.36121  0.36643  0.28465  1.0000
  C   C1094     1.0  0.37285  0.35034  0.29063  1.0000
  C   C1095     1.0  0.37621  0.34918  0.30535  1.0000
  C   C1096     1.0  0.36826  0.36482  0.31405  1.0000
  C   C1097     1.0  0.50503  0.04475  0.30424  1.0000
  H   H892      1.0  0.35834  0.36667  0.27334  1.0000
  H   H893      1.0  0.37891  0.33834  0.28379  1.0000
  H   H894      1.0  0.37075  0.36426  0.32538  1.0000
  C   C1098     1.0  0.57638  0.46059  0.38210  1.0000
  C   C1099     1.0  0.33029  0.20971  0.44745  1.0000
  H   H895      1.0  0.44434  0.21049  0.39317  1.0000
  H   H896      1.0  0.45770  0.49265  0.31285  1.0000
  H   H897      1.0  0.34004  0.32477  0.36083  1.0000
  H   H898      1.0  0.44568  0.37949  0.28465  1.0000
  C   C1100     1.0  0.60156  0.46313  0.37937  1.0000
  C   C1101     1.0  0.41788  0.02971  0.40537  1.0000
  P   P34       1.0  0.47585  0.42404  0.30377  1.0000
  C   C1102     1.0  0.46359  0.43099  0.32006  1.0000
  S   S166      1.0  0.36693  0.44150  0.25167  1.0000
  C   C1103     1.0  0.55342  0.46410  0.31196  1.0000
  C   C1104     1.0  0.51050  0.44057  0.30191  1.0000
  H   H899      1.0  0.39730  0.41691  0.27696  1.0000
  C   C1105     1.0  0.44197  0.41163  0.32634  1.0000
  C   C1106     1.0  0.43120  0.41749  0.33838  1.0000
  C   C1107     1.0  0.44202  0.44255  0.34433  1.0000
  C   C1108     1.0  0.46337  0.46197  0.33807  1.0000
  C   C1109     1.0  0.47391  0.45629  0.32588  1.0000
  C   C1110     1.0  0.48507  0.07623  0.30186  1.0000
  H   H900      1.0  0.49004  0.47165  0.32101  1.0000
  H   H901      1.0  0.49356  0.39273  0.32229  1.0000
  H   H902      1.0  0.37594  0.36388  0.37019  1.0000
  H   H903      1.0  0.43319  0.39204  0.32189  1.0000
  H   H904      1.0  0.41444  0.40250  0.34309  1.0000
  H   H905      1.0  0.43387  0.44688  0.35379  1.0000
  C   C1111     1.0  0.36241  0.36620  0.36260  1.0000
  C   C1112     1.0  0.47016  0.38973  0.30348  1.0000
  C   C1113     1.0  0.41928  0.46713  0.30714  1.0000
  H   H906      1.0  0.55246  0.06535  0.27546  1.0000
  C   C1114     1.0  0.46223  0.05801  0.30749  1.0000
  C   C1115     1.0  0.63450  0.39274  0.36925  1.0000
  C   C1116     1.0  0.39723  0.02103  0.41471  1.0000
  H   H907      1.0  0.36893  0.03032  0.42556  1.0000
  H   H908      1.0  0.41793  0.33845  0.41708  1.0000
  C   C1117     1.0  0.39784  0.46321  0.29846  1.0000
  H   H909      1.0  0.56537  0.01901  0.28371  1.0000
  S   S167      1.0  0.33580  0.40052  0.28659  1.0000
  H   H910      1.0  0.52855  0.01575  0.35255  1.0000
  H   H911      1.0  0.53673  0.43377  0.38446  1.0000
  C   C1118     1.0  0.35229  0.23637  0.38372  1.0000
  C   C1119     1.0  0.38483  0.26273  0.41207  1.0000
  H   H912      1.0  0.34859  0.27814  0.31912  1.0000
  C   C1120     1.0  0.35649  0.21824  0.39270  1.0000
  H   H913      1.0  0.61305  0.10934  0.31480  1.0000
  H   H914      1.0  0.32727  0.03220  0.31771  1.0000
  C   C1121     1.0  0.38522  0.30313  0.42216  1.0000
  S   S168      1.0  0.56483  0.49491  0.34931  1.0000
  H   H915      1.0  0.56574  0.47289  0.32103  1.0000
  C   C1122     1.0  0.39464  0.21425  0.41194  1.0000
  C   C1123     1.0  0.39722  0.20102  0.42419  1.0000
  C   C1124     1.0  0.41702  0.19186  0.42536  1.0000
  C   C1125     1.0  0.43410  0.19538  0.41425  1.0000
  C   C1126     1.0  0.43130  0.20791  0.40190  1.0000
  C   C1127     1.0  0.41160  0.21713  0.40069  1.0000
  C   C1128     1.0  0.36534  0.39126  0.35821  1.0000
  H   H916      1.0  0.48461  0.00562  0.28478  1.0000
  C   C1129     1.0  0.40892  0.31734  0.41587  1.0000
  H   H917      1.0  0.44557  0.06295  0.30857  1.0000
  H   H918      1.0  0.36978  0.22920  0.44121  1.0000
  H   H919      1.0  0.54587  0.39416  0.38092  1.0000
  C   C1130     1.0  0.43118  0.44791  0.26892  1.0000
  H   H920      1.0  0.62427  0.39289  0.35949  1.0000
  H   H921      1.0  0.34046  0.31028  0.41219  1.0000
  H   H922      1.0  0.51886  0.45016  0.32405  1.0000
  H   H923      1.0  0.57219  0.47795  0.38317  1.0000
  C   C1131     1.0  0.33754  0.20367  0.36513  1.0000
  H   H924      1.0  0.38415  0.19766  0.43287  1.0000
  H   H925      1.0  0.41918  0.18208  0.43491  1.0000
  H   H926      1.0  0.44942  0.18827  0.41514  1.0000
  H   H927      1.0  0.40961  0.22639  0.39087  1.0000
  C   C1132     1.0  0.50642  0.06968  0.30024  1.0000
  C   C1133     1.0  0.47816  0.35362  0.31404  1.0000
  C   C1134     1.0  0.43165  0.41984  0.28852  1.0000
  H   H928      1.0  0.49180  0.46640  0.28235  1.0000
  C   C1135     1.0  0.47140  0.45473  0.28109  1.0000
  C   C1136     1.0  0.64380  0.44902  0.35405  1.0000
  H   H929      1.0  0.61606  0.46675  0.35124  1.0000
  C   C1137     1.0  0.54848  0.45280  0.28716  1.0000
  H   H930      1.0  0.38129  0.40829  0.36228  1.0000
  H   H931      1.0  0.44318  0.01962  0.31638  1.0000
  C   C1138     1.0  0.33544  0.29471  0.39106  1.0000
  C   C1139     1.0  0.63788  0.36995  0.37316  1.0000
  C   C1140     1.0  0.39885  0.48212  0.28845  1.0000
  C   C1141     1.0  0.32671  0.37225  0.34369  1.0000
  C   C1142     1.0  0.59997  0.09958  0.30616  1.0000
  C   C1143     1.0  0.45480  0.37267  0.29297  1.0000
  C   C1144     1.0  0.37302  0.27601  0.42012  1.0000
  C   C1145     1.0  0.60702  0.44081  0.37733  1.0000
  C   C1146     1.0  0.40854  0.27729  0.40565  1.0000
  H   H932      1.0  0.56237  0.00328  0.30640  1.0000
  H   H933      1.0  0.43868  0.31555  0.40251  1.0000
  C   C1147     1.0  0.48211  0.02672  0.31015  1.0000
  C   C1148     1.0  0.56432  0.46481  0.29874  1.0000
  P   P35       1.0  0.63938  0.44436  0.37289  1.0000
  H   H934      1.0  0.59010  0.39827  0.37624  1.0000
  H   H935      1.0  0.37593  0.31325  0.42829  1.0000
  C   C1149     1.0  0.36550  0.10344  0.37755  1.0000
  C   C1150     1.0  0.37192  0.13038  0.37819  1.0000
  C   C1151     1.0  0.38206  0.14409  0.39065  1.0000
  C   C1152     1.0  0.38478  0.13070  0.40270  1.0000
  C   C1153     1.0  0.37731  0.10340  0.40230  1.0000
  C   C1154     1.0  0.36794  0.08993  0.38959  1.0000
  P   P36       1.0  0.37858  0.08525  0.41795  1.0000
  C   C1155     1.0  0.39407  0.06344  0.41330  1.0000
  C   C1156     1.0  0.39754  0.10765  0.43156  1.0000
  C   C1157     1.0  0.42446  0.11554  0.43230  1.0000
  C   C1158     1.0  0.43892  0.13267  0.44294  1.0000
  C   C1159     1.0  0.42665  0.14207  0.45292  1.0000
  C   C1160     1.0  0.39992  0.13462  0.45215  1.0000
  C   C1161     1.0  0.38543  0.11766  0.44146  1.0000
  C   C1162     1.0  0.38533  0.03779  0.41867  1.0000
  H   H936      1.0  0.35419  0.26573  0.42467  1.0000
  H   H937      1.0  0.60131  0.00356  0.27595  1.0000
  C   C1163     1.0  0.42679  0.05521  0.40003  1.0000
  C   C1164     1.0  0.41493  0.07200  0.40396  1.0000
  C   C1165     1.0  0.34632  0.06754  0.42452  1.0000
  C   C1166     1.0  0.55640  0.43573  0.38282  1.0000
  C   C1167     1.0  0.34243  0.22889  0.37005  1.0000
  H   H938      1.0  0.48694  0.34626  0.32236  1.0000
  H   H939      1.0  0.64047  0.46918  0.40039  1.0000
  C   C1168     1.0  0.34296  0.05643  0.43810  1.0000
  H   H940      1.0  0.35896  0.09309  0.36764  1.0000
  H   H941      1.0  0.36950  0.14068  0.36891  1.0000
  H   H942      1.0  0.38815  0.16515  0.39079  1.0000
  H   H943      1.0  0.39265  0.14165  0.41225  1.0000
  H   H944      1.0  0.36246  0.06895  0.38899  1.0000
  H   H945      1.0  0.43441  0.10844  0.42476  1.0000
  H   H946      1.0  0.45967  0.13845  0.44352  1.0000
  H   H947      1.0  0.43787  0.15508  0.46126  1.0000
  H   H948      1.0  0.39038  0.14185  0.45991  1.0000
  H   H949      1.0  0.36474  0.11216  0.44105  1.0000
  C   C1169     1.0  0.56159  0.41339  0.38081  1.0000
  H   H950      1.0  0.44249  0.06173  0.39254  1.0000
  H   H951      1.0  0.42183  0.09154  0.39949  1.0000
  H   H952      1.0  0.48622  0.09550  0.29879  1.0000
  C   C1170     1.0  0.34443  0.21434  0.42305  1.0000
  C   C1171     1.0  0.46085  0.03342  0.31180  1.0000
  H   H953      1.0  0.61285  0.48430  0.26665  1.0000
  H   H954      1.0  0.35950  0.05750  0.44444  1.0000
  S   S169      1.0  0.64805  0.08252  0.32922  1.0000
  H   H955      1.0  0.57447  0.06955  0.31952  1.0000
  H   H956      1.0  0.47181  0.48142  0.34266  1.0000
  H   H957      1.0  0.55695  0.45289  0.27696  1.0000
  C   C1172     1.0  0.45858  0.43316  0.28991  1.0000
  H   H958      1.0  0.33470  0.21303  0.45863  1.0000
  C   C1173     1.0  0.60497  0.10965  0.29247  1.0000
  C   C1174     1.0  0.35633  0.38068  0.30808  1.0000
  H   H959      1.0  0.43801  0.33276  0.28547  1.0000
  H   H960      1.0  0.33910  0.24288  0.36316  1.0000
  C   C1175     1.0  0.48182  0.38001  0.31400  1.0000
  H   H961      1.0  0.61293  0.45147  0.24918  1.0000
  Fe  Fe86      1.0  0.35419  0.47479  0.25339  1.0000
  H   H962      1.0  0.34968  0.39219  0.31492  1.0000
  C   C1176     1.0  0.46240  0.33660  0.30375  1.0000
  P   P37       1.0  0.53198  0.03549  0.30137  1.0000
  C   C1177     1.0  0.52171  0.44050  0.28876  1.0000
  H   H963      1.0  0.48063  0.00746  0.31344  1.0000
  C   C1178     1.0  0.56083  0.06416  0.29780  1.0000
  Fe  Fe87      1.0  0.33267  0.41849  0.26498  1.0000
  H   H964      1.0  0.62209  0.12716  0.29047  1.0000
  H   H965      1.0  0.42064  0.45358  0.26081  1.0000
  C   C1179     1.0  0.34160  0.18551  0.37406  1.0000
  H   H966      1.0  0.52390  0.08416  0.29588  1.0000
  C   C1180     1.0  0.34765  0.39427  0.34862  1.0000
  C   C1181     1.0  0.57799  0.07695  0.30882  1.0000
  H   H967      1.0  0.59164  0.10508  0.27083  1.0000
  C   C1182     1.0  0.41808  0.42713  0.27800  1.0000
  H   H968      1.0  0.38208  0.47921  0.28182  1.0000
  C   C1183     1.0  0.52928  0.02346  0.33022  1.0000
  C   C1184     1.0  0.32626  0.29582  0.33004  1.0000
  C   C1185     1.0  0.54571  0.00946  0.27979  1.0000
  C   C1186     1.0  0.34196  0.34407  0.35734  1.0000
  H   H969      1.0  0.33840  0.16617  0.37018  1.0000
  C   C1187     1.0  0.42056  0.30443  0.40763  1.0000
  H   H970      1.0  0.41836  0.45246  0.31496  1.0000
  C   C1188     1.0  0.58677  0.41587  0.37804  1.0000
  H   H971      1.0  0.38038  0.44554  0.29946  1.0000
  H   H972      1.0  0.42105  0.40383  0.29556  1.0000
  C   C1189     1.0  0.35044  0.19256  0.38790  1.0000
  H   H973      1.0  0.42667  0.01655  0.40201  1.0000
  H   H974      1.0  0.62093  0.47123  0.32547  1.0000
  H   H975      1.0  0.58505  0.47445  0.29754  1.0000
  C   C1190     1.0  0.53526  0.01243  0.34237  1.0000
  H   H976      1.0  0.33097  0.19835  0.35434  1.0000
  C   C1191     1.0  0.53823  0.01970  0.31696  1.0000
  H   H977      1.0  0.63044  0.35278  0.36640  1.0000
  S   S170      1.0  0.35726  0.01711  0.38442  1.0000
  C   C1192     1.0  0.55404  0.00552  0.31624  1.0000
  C   C1193     1.0  0.63234  0.46296  0.33151  1.0000
  C   C1194     1.0  0.61295  0.00348  0.29779  1.0000
  C   C1195     1.0  0.44181  0.48987  0.30573  1.0000
  C   C1196     1.0  0.50045  0.00208  0.28038  1.0000
  C   C1197     1.0  0.62412  0.49081  0.25716  1.0000
  C   C1198     1.0  0.65036  0.45571  0.32474  1.0000
  H   H978      1.0  0.63747  0.03596  0.44251  1.0000
  H   H979      1.0  0.61664  0.48254  0.37858  1.0000
  C   C1199     1.0  0.62412  0.47214  0.24730  1.0000
  C   C1200     1.0  0.52548  0.01389  0.28621  1.0000
  H   H980      1.0  0.34995  0.41367  0.34511  1.0000
  C   C1201     1.0  0.64419  0.41512  0.37791  1.0000
  C   C1202     1.0  0.32752  0.29590  0.40499  1.0000
  C   C1203     1.0  0.33226  0.27475  0.32591  1.0000
  S   S171      1.0  0.63011  0.00222  0.32566  1.0000
  H   H981      1.0  0.35007  0.13623  0.42169  1.0000
  H   H982      1.0  0.65306  0.45852  0.31347  1.0000
  C   C1204     1.0  0.65700  0.03844  0.44533  1.0000
  C   C1205     1.0  0.65083  0.36927  0.38576  1.0000
  H   H983      1.0  0.65350  0.35162  0.38875  1.0000
  Fe  Fe88      1.0  0.65609  0.06182  0.36780  1.0000
  H   H984      1.0  0.33285  0.14492  0.44418  1.0000
  C   C1206     1.0  0.32991  0.13283  0.42238  1.0000
  C   C1207     1.0  0.65865  0.47988  0.39523  1.0000
  C   C1208     1.0  0.65689  0.41417  0.39065  1.0000
  C   C1209     1.0  0.32586  0.01138  0.39071  1.0000
  H   H985      1.0  0.32615  0.07383  0.40603  1.0000
  H   H986      1.0  0.38991  0.00104  0.41854  1.0000
  C   C1210     1.0  0.58051  0.05521  0.73484  1.0000
  H   H987      1.0  0.42092  0.24008  0.62145  1.0000
  C   C1211     1.0  0.40623  0.12064  0.74161  1.0000
  H   H988      1.0  0.34010  0.21908  0.62806  1.0000
  Fe  Fe89      1.0  0.36723  0.45206  0.67422  1.0000
  H   H989      1.0  0.40082  0.45127  0.73441  1.0000
  Fe  Fe90      1.0  0.34342  0.39640  0.68697  1.0000
  C   C1212     1.0  0.61593  0.09694  0.73979  1.0000
  S   S172      1.0  0.36979  0.41357  0.66855  1.0000
  C   C1213     1.0  0.38343  0.09806  0.74235  1.0000
  C   C1214     1.0  0.54301  0.00171  0.72831  1.0000
  H   H990      1.0  0.42297  0.27856  0.60724  1.0000
  S   S173      1.0  0.34229  0.43500  0.69317  1.0000
  C   C1215     1.0  0.33864  0.26188  0.58324  1.0000
  C   C1216     1.0  0.40362  0.24375  0.61961  1.0000
  H   H991      1.0  0.34984  0.25022  0.58521  1.0000
  C   C1217     1.0  0.46791  0.45129  0.73978  1.0000
  C   C1218     1.0  0.37535  0.38967  0.72542  1.0000
  C   C1219     1.0  0.36851  0.36798  0.71646  1.0000
  C   C1220     1.0  0.37504  0.34693  0.72057  1.0000
  C   C1221     1.0  0.38807  0.34743  0.73349  1.0000
  H   H992      1.0  0.44959  0.44869  0.73485  1.0000
  H   H993      1.0  0.37048  0.40591  0.72234  1.0000
  H   H994      1.0  0.36993  0.33005  0.71370  1.0000
  P   P38       1.0  0.33049  0.26036  0.61237  1.0000
  H   H995      1.0  0.43933  0.99941  0.68179  1.0000
  H   H996      1.0  0.38368  0.28731  0.60324  1.0000
  C   C1222     1.0  0.56644  0.47086  0.73349  1.0000
  C   C1223     1.0  0.33405  0.28601  0.62491  1.0000
  C   C1224     1.0  0.53288  0.00250  0.71473  1.0000
  C   C1225     1.0  0.34384  0.31241  0.62067  1.0000
  H   H997      1.0  0.58352  0.03741  0.71491  1.0000
  H   H998      1.0  0.52936  0.01949  0.71134  1.0000
  H   H999      1.0  0.34308  0.26159  0.56065  1.0000
  H   H1000     1.0  0.51818  0.49117  0.71164  1.0000
  C   C1226     1.0  0.33472  0.26811  0.56929  1.0000
  H   H1001     1.0  0.32811  0.29502  0.66013  1.0000
  C   C1227     1.0  0.35875  0.25309  0.61475  1.0000
  C   C1228     1.0  0.37920  0.49022  0.71491  1.0000
  C   C1229     1.0  0.47879  0.03139  0.73565  1.0000
  C   C1230     1.0  0.38763  0.38983  0.73857  1.0000
  S   S174      1.0  0.34996  0.36520  0.70068  1.0000
  C   C1231     1.0  0.38245  0.27018  0.60925  1.0000
  C   C1232     1.0  0.62587  0.03659  0.68059  1.0000
  C   C1233     1.0  0.57012  0.49676  0.73684  1.0000
  C   C1234     1.0  0.62723  0.09562  0.72698  1.0000
  C   C1235     1.0  0.64920  0.03456  0.68411  1.0000
  H   H1002     1.0  0.34424  0.34142  0.65231  1.0000
  Fe  Fe91      1.0  0.33258  0.40364  0.65597  1.0000
  C   C1236     1.0  0.32744  0.26998  0.59443  1.0000
  C   C1237     1.0  0.48301  0.05695  0.73961  1.0000
  H   H1003     1.0  0.64235  0.03745  0.71653  1.0000
  H   H1004     1.0  0.62445  0.07285  0.70830  1.0000
  H   H1005     1.0  0.62195  0.05296  0.68443  1.0000
  H   H1006     1.0  0.35458  0.35258  0.62722  1.0000
  C   C1238     1.0  0.34758  0.33225  0.63056  1.0000
  C   C1239     1.0  0.60770  0.01765  0.67201  1.0000
  C   C1240     1.0  0.64059  0.02456  0.73813  1.0000
  C   C1241     1.0  0.38022  0.22707  0.62545  1.0000
  C   C1242     1.0  0.32891  0.27989  0.63926  1.0000
  C   C1243     1.0  0.49914  0.02301  0.73606  1.0000
  H   H1007     1.0  0.58466  0.44424  0.72904  1.0000
  H   H1008     1.0  0.61825  0.38181  0.73351  1.0000
  H   H1009     1.0  0.48825  0.48900  0.73042  1.0000
  C   C1244     1.0  0.63523  0.02073  0.72352  1.0000
  H   H1010     1.0  0.37942  0.21053  0.63187  1.0000
  C   C1245     1.0  0.34439  0.45933  0.72884  1.0000
  H   H1011     1.0  0.34864  0.31782  0.60977  1.0000
  C   C1246     1.0  0.52425  0.04052  0.73981  1.0000
  H   H1012     1.0  0.54728  0.45555  0.73255  1.0000
  C   C1247     1.0  0.39627  0.47989  0.72044  1.0000
  C   C1248     1.0  0.61531  0.07412  0.71806  1.0000
  C   C1249     1.0  0.35790  0.23185  0.62316  1.0000
  C   C1250     1.0  0.65438  0.01328  0.67918  1.0000
  C   C1251     1.0  0.35340  0.48005  0.71906  1.0000
  C   C1252     1.0  0.36177  0.44913  0.73440  1.0000
  H   H1013     1.0  0.46705  0.06322  0.73955  1.0000
  C   C1253     1.0  0.37578  0.00079  0.72599  1.0000
  C   C1254     1.0  0.63751  0.39446  0.73017  1.0000
  C   C1255     1.0  0.40475  0.26537  0.61157  1.0000
  H   H1014     1.0  0.41605  0.48739  0.71685  1.0000
  S   S175      1.0  0.33241  0.44363  0.66000  1.0000
  C   C1256     1.0  0.59199  0.05401  0.72191  1.0000
  H   H1015     1.0  0.38732  0.01576  0.71871  1.0000
  C   C1257     1.0  0.37707  0.00668  0.74052  1.0000
  P   P39       1.0  0.55049  0.02940  0.74014  1.0000
  C   C1258     1.0  0.58767  0.46437  0.73127  1.0000
  C   C1259     1.0  0.38762  0.45951  0.73028  1.0000
  H   H1016     1.0  0.58968  0.01925  0.66919  1.0000
  H   H1017     1.0  0.39302  0.33113  0.73640  1.0000
  C   C1260     1.0  0.34176  0.32596  0.64474  1.0000
  H   H1018     1.0  0.44212  0.49065  0.66399  1.0000
  H   H1019     1.0  0.62912  0.47884  0.73022  1.0000
  H   H1020     1.0  0.64547  0.11103  0.72412  1.0000
  C   C1261     1.0  0.49000  0.47393  0.73712  1.0000
  H   H1021     1.0  0.47886  0.00041  0.69414  1.0000
  H   H1022     1.0  0.34061  0.48805  0.71426  1.0000
  C   C1262     1.0  0.61266  0.48381  0.73191  1.0000
  S   S176      1.0  0.39703  0.49472  0.67778  1.0000
  C   C1263     1.0  0.64775  0.38841  0.71800  1.0000
  H   H1023     1.0  0.45958  0.01802  0.73245  1.0000
  H   H1024     1.0  0.49517  0.00280  0.73362  1.0000
  C   C1264     1.0  0.33700  0.05299  0.72355  1.0000
  C   C1265     1.0  0.32845  0.04515  0.73734  1.0000
  C   C1266     1.0  0.33251  0.29980  0.64911  1.0000
  H   H1025     1.0  0.42334  0.11966  0.73705  1.0000
  H   H1026     1.0  0.34699  0.07353  0.72097  1.0000
  C   C1267     1.0  0.65205  0.41676  0.73808  1.0000
  H   H1027     1.0  0.34005  0.04033  0.70240  1.0000
  H   H1028     1.0  0.38329  0.07984  0.73830  1.0000
  H   H1029     1.0  0.63645  0.37106  0.71191  1.0000
  C   C1268     1.0  0.33283  0.03425  0.71293  1.0000
  H   H1030     1.0  0.35531  0.43284  0.74173  1.0000
  C   C1269     1.0  0.39391  0.36864  0.74275  1.0000
  H   H1031     1.0  0.36152  0.24665  0.84968  1.0000
  H   H1032     1.0  0.62489  0.45197  0.89700  1.0000
  H   H1033     1.0  0.33867  0.36312  0.78535  1.0000
  Fe  Fe92      1.0  0.63388  0.10225  0.90907  1.0000
  S   S177      1.0  0.59909  0.10887  0.89984  1.0000
  S   S178      1.0  0.64184  0.06620  0.90482  1.0000
  Fe  Fe93      1.0  0.63632  0.11233  0.77673  1.0000
  H   H1034     1.0  0.49408  0.42009  0.76225  1.0000
  S   S179      1.0  0.62688  0.06934  0.77818  1.0000
  C   C1270     1.0  0.60237  0.15339  0.82324  1.0000
  Fe  Fe94      1.0  0.41883  0.32474  0.93018  1.0000
  S   S180      1.0  0.45626  0.32775  0.94047  1.0000
  S   S181      1.0  0.38708  0.33160  0.94229  1.0000
  Fe  Fe95      1.0  0.43437  0.31165  0.90117  1.0000
  S   S182      1.0  0.47233  0.31327  0.90956  1.0000
  S   S183      1.0  0.42310  0.29547  0.87885  1.0000
  Fe  Fe96      1.0  0.45019  0.29126  0.92816  1.0000
  S   S184      1.0  0.45789  0.25794  0.93817  1.0000
  Fe  Fe97      1.0  0.47577  0.35006  0.92101  1.0000
  S   S185      1.0  0.51763  0.38048  0.92049  1.0000
  S   S186      1.0  0.41171  0.28677  0.91918  1.0000
  S   S187      1.0  0.43880  0.34990  0.91132  1.0000
  Fe  Fe98      1.0  0.44123  0.29895  0.78116  1.0000
  S   S188      1.0  0.41607  0.31898  0.78934  1.0000
  H   H1035     1.0  0.47457  0.13497  0.87153  1.0000
  Fe  Fe99      1.0  0.48498  0.35153  0.77478  1.0000
  S   S189      1.0  0.46316  0.37439  0.78281  1.0000
  S   S190      1.0  0.52482  0.37338  0.76561  1.0000
  Fe  Fe100     1.0  0.45180  0.34571  0.80076  1.0000
  S   S191      1.0  0.45337  0.36351  0.82254  1.0000
  Fe  Fe101     1.0  0.42916  0.34622  0.77057  1.0000
  S   S192      1.0  0.47639  0.32468  0.79370  1.0000
  Fe  Fe102     1.0  0.41380  0.08033  0.79818  1.0000
  S   S193      1.0  0.45542  0.10796  0.79737  1.0000
  S   S194      1.0  0.39354  0.08380  0.81827  1.0000
  Fe  Fe103     1.0  0.41278  0.06223  0.76711  1.0000
  Fe  Fe104     1.0  0.46083  0.07560  0.78569  1.0000
  S   S195      1.0  0.49197  0.06092  0.79069  1.0000
  Fe  Fe105     1.0  0.44489  0.12025  0.77638  1.0000
  S   S196      1.0  0.46245  0.16351  0.77002  1.0000
  S   S197      1.0  0.41989  0.04647  0.78806  1.0000
  S   S198      1.0  0.40287  0.09397  0.77742  1.0000
  Fe  Fe106     1.0  0.45279  0.08434  0.92053  1.0000
  S   S199      1.0  0.41720  0.04678  0.92000  1.0000
  S   S200      1.0  0.48990  0.08160  0.92901  1.0000
  Fe  Fe107     1.0  0.42172  0.11585  0.91057  1.0000
  S   S201      1.0  0.38420  0.08048  0.90918  1.0000
  S   S202      1.0  0.41945  0.15312  0.90237  1.0000
  Fe  Fe108     1.0  0.39608  0.06905  0.93018  1.0000
  S   S203      1.0  0.37404  0.05767  0.95109  1.0000
  Fe  Fe109     1.0  0.40857  0.06171  0.89909  1.0000
  S   S204      1.0  0.39893  0.03679  0.87915  1.0000
  S   S205      1.0  0.43239  0.10595  0.93210  1.0000
  S   S206      1.0  0.44529  0.09772  0.89912  1.0000
  C   C1271     1.0  0.64992  0.20735  0.88930  1.0000
  C   C1272     1.0  0.39844  0.07227  0.83513  1.0000
  C   C1273     1.0  0.39507  0.08495  0.84729  1.0000
  C   C1274     1.0  0.39659  0.07507  0.86087  1.0000
  C   C1275     1.0  0.40058  0.05185  0.86239  1.0000
  C   C1276     1.0  0.40437  0.03941  0.85025  1.0000
  C   C1277     1.0  0.40374  0.04979  0.83668  1.0000
  H   H1036     1.0  0.64288  0.00658  0.82306  1.0000
  H   H1037     1.0  0.53229  0.46286  0.85945  1.0000
  H   H1038     1.0  0.40734  0.02140  0.85132  1.0000
  H   H1039     1.0  0.40628  0.03979  0.82741  1.0000
  C   C1278     1.0  0.43487  0.22951  0.78040  1.0000
  C   C1279     1.0  0.42012  0.20346  0.78449  1.0000
  C   C1280     1.0  0.42834  0.18308  0.78155  1.0000
  C   C1281     1.0  0.45145  0.18850  0.77441  1.0000
  H   H1040     1.0  0.57483  0.44212  0.86100  1.0000
  H   H1041     1.0  0.60139  0.40510  0.90320  1.0000
  H   H1042     1.0  0.47227  0.07818  0.83080  1.0000
  C   C1282     1.0  0.44024  0.21304  0.86157  1.0000
  C   C1283     1.0  0.44606  0.22832  0.92862  1.0000
  C   C1284     1.0  0.44995  0.20644  0.93387  1.0000
  C   C1285     1.0  0.44145  0.18296  0.92606  1.0000
  C   C1286     1.0  0.42910  0.18139  0.91298  1.0000
  C   C1287     1.0  0.42468  0.20304  0.90793  1.0000
  C   C1288     1.0  0.43318  0.22648  0.91570  1.0000
  H   H1043     1.0  0.45985  0.20777  0.94389  1.0000
  H   H1044     1.0  0.44491  0.16632  0.93004  1.0000
  H   H1045     1.0  0.41501  0.20181  0.89784  1.0000
  H   H1046     1.0  0.43006  0.24323  0.91161  1.0000
  C   C1289     1.0  0.43240  0.31482  0.86338  1.0000
  C   C1290     1.0  0.43279  0.30261  0.85046  1.0000
  C   C1291     1.0  0.43923  0.31720  0.83784  1.0000
  C   C1292     1.0  0.44510  0.34414  0.83804  1.0000
  C   C1293     1.0  0.44453  0.35627  0.85093  1.0000
  C   C1294     1.0  0.43848  0.34180  0.86358  1.0000
  H   H1047     1.0  0.42828  0.28179  0.85022  1.0000
  H   H1048     1.0  0.43964  0.30762  0.82797  1.0000
  H   H1049     1.0  0.44846  0.37693  0.85106  1.0000
  H   H1050     1.0  0.43806  0.35140  0.87343  1.0000
  C   C1295     1.0  0.56729  0.46865  0.92713  1.0000
  C   C1296     1.0  0.57860  0.45091  0.92423  1.0000
  C   C1297     1.0  0.56296  0.42409  0.92230  1.0000
  C   C1298     1.0  0.53589  0.41471  0.92280  1.0000
  C   C1299     1.0  0.52452  0.43258  0.92526  1.0000
  C   C1300     1.0  0.54017  0.45932  0.92761  1.0000
  H   H1051     1.0  0.59940  0.45771  0.92395  1.0000
  H   H1052     1.0  0.57192  0.41038  0.92063  1.0000
  H   H1053     1.0  0.50373  0.42579  0.92558  1.0000
  H   H1054     1.0  0.53123  0.47288  0.92985  1.0000
  C   C1301     1.0  0.57338  0.45693  0.78105  1.0000
  C   C1302     1.0  0.55030  0.44159  0.78778  1.0000
  C   C1303     1.0  0.53518  0.41615  0.78300  1.0000
  C   C1304     1.0  0.54300  0.40577  0.77142  1.0000
  C   C1305     1.0  0.56591  0.42126  0.76450  1.0000
  C   C1306     1.0  0.58103  0.44687  0.76925  1.0000
  H   H1055     1.0  0.57196  0.41338  0.75547  1.0000
  H   H1056     1.0  0.59848  0.45876  0.76380  1.0000
  C   C1307     1.0  0.57433  0.10962  0.77661  1.0000
  C   C1308     1.0  0.56821  0.08552  0.78336  1.0000
  C   C1309     1.0  0.54284  0.07085  0.78761  1.0000
  C   C1310     1.0  0.52332  0.07990  0.78492  1.0000
  H   H1057     1.0  0.46783  0.36015  0.98592  1.0000
  C   C1311     1.0  0.46318  0.12538  0.84979  1.0000
  H   H1058     1.0  0.58311  0.07848  0.78571  1.0000
  H   H1059     1.0  0.53845  0.05271  0.79328  1.0000
  C   C1312     1.0  0.59975  0.12875  0.81815  1.0000
  C   C1313     1.0  0.57307  0.01845  0.90497  1.0000
  S   S207      1.0  0.45435  0.09007  0.76453  1.0000
  C   C1314     1.0  0.47470  0.12294  0.86258  1.0000
  C   C1315     1.0  0.56893  0.10149  0.90816  1.0000
  C   C1316     1.0  0.56408  0.09091  0.92176  1.0000
  C   C1317     1.0  0.53979  0.08497  0.92792  1.0000
  C   C1318     1.0  0.52004  0.08949  0.92059  1.0000
  C   C1319     1.0  0.52480  0.09987  0.90691  1.0000
  C   C1320     1.0  0.54912  0.10580  0.90074  1.0000
  H   H1060     1.0  0.57907  0.08738  0.92757  1.0000
  H   H1061     1.0  0.53632  0.07696  0.93849  1.0000
  H   H1062     1.0  0.50973  0.10327  0.90112  1.0000
  H   H1063     1.0  0.55260  0.11379  0.89018  1.0000
  H   H1064     1.0  0.52888  0.45886  0.88541  1.0000
  C   C1321     1.0  0.36458  0.30961  0.95428  1.0000
  C   C1322     1.0  0.36393  0.28460  0.95710  1.0000
  H   H1065     1.0  0.37542  0.26900  0.82659  1.0000
  H   H1066     1.0  0.37761  0.27837  0.95204  1.0000
  H   H1067     1.0  0.61177  0.47032  0.87599  1.0000
  H   H1068     1.0  0.41842  0.00494  0.75909  1.0000
  S   S208      1.0  0.40711  0.36890  0.76002  1.0000
  C   C1323     1.0  0.63420  0.20944  0.83127  1.0000
  H   H1069     1.0  0.35381  0.04608  0.97908  1.0000
  C   C1324     1.0  0.65625  0.00217  0.84397  1.0000
  C   C1325     1.0  0.39055  0.18678  0.95759  1.0000
  C   C1326     1.0  0.35917  0.24973  0.77576  1.0000
  H   H1070     1.0  0.59894  0.99951  0.83073  1.0000
  H   H1071     1.0  0.39368  0.08486  0.87013  1.0000
  C   C1327     1.0  0.33126  0.15855  0.91969  1.0000
  C   C1328     1.0  0.46610  0.04650  0.87895  1.0000
  H   H1072     1.0  0.62952  0.17980  0.90556  1.0000
  C   C1329     1.0  0.50263  0.30535  0.96032  1.0000
  H   H1073     1.0  0.51774  0.40442  0.78848  1.0000
  H   H1074     1.0  0.45448  0.01073  0.77571  1.0000
  H   H1075     1.0  0.42517  0.16158  0.74697  1.0000
  C   C1330     1.0  0.39916  0.23237  0.95293  1.0000
  C   C1331     1.0  0.57178  0.03886  0.89674  1.0000
  C   C1332     1.0  0.45803  0.20245  0.86599  1.0000
  C   C1333     1.0  0.54005  0.00737  0.78173  1.0000
  H   H1076     1.0  0.42887  0.13874  0.81110  1.0000
  C   C1334     1.0  0.36411  0.32114  0.82265  1.0000
  C   C1335     1.0  0.39195  0.16832  0.85375  1.0000
  S   S209      1.0  0.63754  0.05897  0.81810  1.0000
  C   C1336     1.0  0.63160  0.00261  0.74699  1.0000
  C   C1337     1.0  0.37546  0.13267  0.87071  1.0000
  C   C1338     1.0  0.43733  0.15781  0.81614  1.0000
  H   H1077     1.0  0.33233  0.29149  0.81185  1.0000
  C   C1339     1.0  0.40546  0.21339  0.95991  1.0000
  C   C1340     1.0  0.35356  0.25019  0.89348  1.0000
  C   C1341     1.0  0.46063  0.17653  0.81129  1.0000
  C   C1342     1.0  0.51497  0.45774  0.75265  1.0000
  C   C1343     1.0  0.45027  0.04381  0.95652  1.0000
  C   C1344     1.0  0.33168  0.33231  0.76989  1.0000
  H   H1078     1.0  0.45239  0.41414  0.75068  1.0000
  H   H1079     1.0  0.45329  0.11096  0.82857  1.0000
  H   H1080     1.0  0.45408  0.13925  0.84877  1.0000
  C   C1345     1.0  0.58009  0.15759  0.82659  1.0000
  C   C1346     1.0  0.55558  0.13779  0.82422  1.0000
  C   C1347     1.0  0.55318  0.11350  0.81890  1.0000
  C   C1348     1.0  0.57528  0.10886  0.81614  1.0000
  H   H1081     1.0  0.58574  0.12707  0.86164  1.0000
  H   H1082     1.0  0.58144  0.17597  0.83105  1.0000
  H   H1083     1.0  0.36643  0.16574  0.83600  1.0000
  H   H1084     1.0  0.53422  0.09827  0.81688  1.0000
  C   C1349     1.0  0.40482  0.01969  0.96110  1.0000
  C   C1350     1.0  0.56965  0.39915  0.82420  1.0000
  C   C1351     1.0  0.54789  0.38792  0.81545  1.0000
  C   C1352     1.0  0.52338  0.37713  0.82135  1.0000
  C   C1353     1.0  0.52057  0.37771  0.83597  1.0000
  C   C1354     1.0  0.54224  0.38986  0.84481  1.0000
  C   C1355     1.0  0.56692  0.40015  0.83883  1.0000
  P   P40       1.0  0.53828  0.38758  0.86372  1.0000
  C   C1356     1.0  0.51397  0.39836  0.86993  1.0000
  C   C1357     1.0  0.52892  0.35318  0.86733  1.0000
  C   C1358     1.0  0.54699  0.34178  0.86593  1.0000
  C   C1359     1.0  0.53944  0.31473  0.86770  1.0000
  C   C1360     1.0  0.51373  0.29890  0.87064  1.0000
  C   C1361     1.0  0.49562  0.31013  0.87187  1.0000
  C   C1362     1.0  0.50314  0.33714  0.87023  1.0000
  C   C1363     1.0  0.50121  0.40953  0.86087  1.0000
  C   C1364     1.0  0.48295  0.41824  0.86620  1.0000
  C   C1365     1.0  0.47703  0.41545  0.88056  1.0000
  C   C1366     1.0  0.48968  0.40434  0.88963  1.0000
  C   C1367     1.0  0.50815  0.39597  0.88434  1.0000
  C   C1368     1.0  0.56723  0.40719  0.87349  1.0000
  C   C1369     1.0  0.57470  0.39704  0.88560  1.0000
  C   C1370     1.0  0.59589  0.41297  0.89380  1.0000
  C   C1371     1.0  0.60920  0.43934  0.89029  1.0000
  C   C1372     1.0  0.60171  0.44968  0.87840  1.0000
  C   C1373     1.0  0.58081  0.43369  0.87000  1.0000
  H   H1085     1.0  0.58865  0.40666  0.81960  1.0000
  H   H1086     1.0  0.55000  0.38708  0.80411  1.0000
  H   H1087     1.0  0.50648  0.36799  0.81461  1.0000
  H   H1088     1.0  0.50145  0.36833  0.84038  1.0000
  H   H1089     1.0  0.58411  0.40837  0.84540  1.0000
  H   H1090     1.0  0.56682  0.35379  0.86331  1.0000
  H   H1091     1.0  0.55342  0.30599  0.86662  1.0000
  H   H1092     1.0  0.50778  0.27792  0.87182  1.0000
  H   H1093     1.0  0.47560  0.29798  0.87392  1.0000
  H   H1094     1.0  0.48862  0.34524  0.87099  1.0000
  H   H1095     1.0  0.50512  0.41149  0.84973  1.0000
  H   H1096     1.0  0.47302  0.42668  0.85912  1.0000
  H   H1097     1.0  0.46258  0.42177  0.88467  1.0000
  H   H1098     1.0  0.48524  0.40210  0.90079  1.0000
  H   H1099     1.0  0.51783  0.38739  0.89146  1.0000
  H   H1100     1.0  0.56373  0.37713  0.88905  1.0000
  C   C1374     1.0  0.52924  0.10387  0.77802  1.0000
  C   C1375     1.0  0.46624  0.21455  0.77038  1.0000
  H   H1101     1.0  0.57351  0.08985  0.81237  1.0000
  C   C1376     1.0  0.48677  0.03671  0.82876  1.0000
  H   H1102     1.0  0.53295  0.46005  0.75793  1.0000
  C   C1377     1.0  0.47352  0.09069  0.83974  1.0000
  H   H1103     1.0  0.54410  0.44934  0.79681  1.0000
  C   C1378     1.0  0.46278  0.10942  0.83837  1.0000
  C   C1379     1.0  0.45808  0.23496  0.77338  1.0000
  C   C1380     1.0  0.62100  0.22076  0.82258  1.0000
  H   H1104     1.0  0.48412  0.21898  0.76484  1.0000
  H   H1105     1.0  0.46961  0.25484  0.77013  1.0000
  H   H1106     1.0  0.33798  0.10276  0.86598  1.0000
  C   C1381     1.0  0.38286  0.25482  0.83032  1.0000
  C   C1382     1.0  0.37506  0.24223  0.84329  1.0000
  C   C1383     1.0  0.37125  0.23918  0.89702  1.0000
  H   H1107     1.0  0.51085  0.09394  0.74724  1.0000
  H   H1108     1.0  0.42738  0.05823  0.96928  1.0000
  S   S210      1.0  0.42297  0.25417  0.78396  1.0000
  C   C1384     1.0  0.44216  0.36913  0.97196  1.0000
  H   H1109     1.0  0.64545  0.07226  0.86948  1.0000
  H   H1110     1.0  0.59314  0.02056  0.75368  1.0000
  H   H1111     1.0  0.62136  0.05913  0.84661  1.0000
  H   H1112     1.0  0.59940  0.00609  0.77761  1.0000
  H   H1113     1.0  0.40644  0.14884  0.83064  1.0000
  C   C1385     1.0  0.48464  0.39185  0.95439  1.0000
  C   C1386     1.0  0.50391  0.32737  0.96792  1.0000
  H   H1114     1.0  0.42510  0.24254  0.86632  1.0000
  H   H1115     1.0  0.63586  0.00506  0.75820  1.0000
  C   C1387     1.0  0.55476  0.11873  0.77387  1.0000
  H   H1116     1.0  0.51427  0.11109  0.77599  1.0000
  H   H1117     1.0  0.38162  0.11326  0.95933  1.0000
  C   C1388     1.0  0.61738  0.48384  0.84460  1.0000
  H   H1118     1.0  0.61663  0.12481  0.81577  1.0000
  C   C1389     1.0  0.63246  0.46191  0.82702  1.0000
  C   C1390     1.0  0.50768  0.07425  0.74386  1.0000
  H   H1119     1.0  0.38958  0.24559  0.89166  1.0000
  H   H1120     1.0  0.45163  0.05032  0.87278  1.0000
  H   H1121     1.0  0.39812  0.35299  0.83051  1.0000
  H   H1122     1.0  0.54700  0.07997  0.74739  1.0000
  C   C1391     1.0  0.57368  0.10831  0.85707  1.0000
  C   C1392     1.0  0.58498  0.09299  0.85056  1.0000
  C   C1393     1.0  0.48480  0.08777  0.85264  1.0000
  C   C1394     1.0  0.48559  0.10434  0.86399  1.0000
  H   H1123     1.0  0.61051  0.21049  0.81325  1.0000
  H   H1124     1.0  0.53849  0.11127  0.86318  1.0000
  S   S211      1.0  0.45164  0.32429  0.76145  1.0000
  C   C1395     1.0  0.35351  0.32354  0.79782  1.0000
  H   H1125     1.0  0.40835  0.37570  0.80745  1.0000
  C   C1396     1.0  0.40071  0.24948  0.82222  1.0000
  C   C1397     1.0  0.38528  0.22445  0.84821  1.0000
  C   C1398     1.0  0.56248  0.45742  0.96189  1.0000
  H   H1126     1.0  0.37928  0.21511  0.85837  1.0000
  C   C1399     1.0  0.56937  0.06833  0.84516  1.0000
  C   C1400     1.0  0.54250  0.05894  0.84631  1.0000
  C   C1401     1.0  0.53095  0.07462  0.85239  1.0000
  C   C1402     1.0  0.54681  0.09925  0.85792  1.0000
  C   C1403     1.0  0.63527  0.25922  0.83758  1.0000
  C   C1404     1.0  0.55530  0.01995  0.75786  1.0000
  H   H1127     1.0  0.41231  0.16435  0.87272  1.0000
  H   H1128     1.0  0.49394  0.10242  0.87410  1.0000
  S   S212      1.0  0.60628  0.12879  0.77170  1.0000
  C   C1405     1.0  0.54802  0.47567  0.86597  1.0000
  C   C1406     1.0  0.33240  0.07019  0.78037  1.0000
  H   H1129     1.0  0.53838  0.14121  0.82650  1.0000
  C   C1407     1.0  0.36600  0.29771  0.76329  1.0000
  H   H1130     1.0  0.54326  0.37485  0.94602  1.0000
  H   H1131     1.0  0.65077  0.47460  0.84728  1.0000
  H   H1132     1.0  0.39098  0.10235  0.84620  1.0000
  C   C1408     1.0  0.57030  0.49430  0.85986  1.0000
  H   H1133     1.0  0.45023  0.01237  0.85795  1.0000
  H   H1134     1.0  0.46683  0.22673  0.83345  1.0000
  H   H1135     1.0  0.48908  0.21591  0.81366  1.0000
  P   P41       1.0  0.49645  0.06188  0.85507  1.0000
  H   H1136     1.0  0.52727  0.04861  0.87720  1.0000
  C   C1409     1.0  0.54594  0.47341  0.88068  1.0000
  C   C1410     1.0  0.47309  0.01649  0.81933  1.0000
  H   H1137     1.0  0.62177  0.16902  0.79608  1.0000
  C   C1411     1.0  0.38545  0.34493  0.82147  1.0000
  C   C1412     1.0  0.39109  0.35788  0.80849  1.0000
  H   H1138     1.0  0.54060  0.35079  0.98990  1.0000
  C   C1413     1.0  0.58338  0.04425  0.88353  1.0000
  C   C1414     1.0  0.47908  0.03545  0.84290  1.0000
  C   C1415     1.0  0.50852  0.04550  0.88136  1.0000
  C   C1416     1.0  0.64808  0.19078  0.90077  1.0000
  C   C1417     1.0  0.50645  0.47905  0.81842  1.0000
  C   C1418     1.0  0.50309  0.03714  0.89538  1.0000
  S   S213      1.0  0.65072  0.10747  0.93112  1.0000
  P   P42       1.0  0.63433  0.17805  0.82657  1.0000
  C   C1419     1.0  0.52952  0.49260  0.82586  1.0000
  P   P43       1.0  0.33620  0.18854  0.92894  1.0000
  C   C1420     1.0  0.47128  0.20126  0.81764  1.0000
  C   C1421     1.0  0.42735  0.00117  0.94582  1.0000
  C   C1422     1.0  0.48997  0.05031  0.87306  1.0000
  H   H1139     1.0  0.64934  0.17848  0.77512  1.0000
  H   H1140     1.0  0.41088  0.25302  0.95463  1.0000
  C   C1423     1.0  0.40376  0.21947  0.84031  1.0000
  C   C1424     1.0  0.45858  0.20732  0.82880  1.0000
  H   H1141     1.0  0.49029  0.28582  0.96381  1.0000
  C   C1425     1.0  0.35238  0.15217  0.91656  1.0000
  H   H1142     1.0  0.35791  0.15855  0.94664  1.0000
  H   H1143     1.0  0.46772  0.06147  0.95767  1.0000
  H   H1144     1.0  0.53089  0.03937  0.84256  1.0000
  H   H1145     1.0  0.47911  0.01759  0.80846  1.0000
  H   H1146     1.0  0.42215  0.21942  0.96692  1.0000
  H   H1147     1.0  0.41675  0.16316  0.78472  1.0000
  C   C1426     1.0  0.64710  0.16394  0.84040  1.0000
  H   H1148     1.0  0.37980  0.21257  0.91061  1.0000
  H   H1149     1.0  0.56468  0.01486  0.91539  1.0000
  H   H1150     1.0  0.57815  0.05645  0.84013  1.0000
  H   H1151     1.0  0.35763  0.01486  0.78479  1.0000
  C   C1427     1.0  0.47342  0.21215  0.87806  1.0000
  H   H1152     1.0  0.42536  0.35942  0.97844  1.0000
  H   H1153     1.0  0.45203  0.25906  0.88745  1.0000
  H   H1154     1.0  0.63499  0.46616  0.77980  1.0000
  H   H1155     1.0  0.38566  0.24742  0.76017  1.0000
  C   C1428     1.0  0.49291  0.43515  0.75525  1.0000
  C   C1429     1.0  0.34871  0.12963  0.90878  1.0000
  C   C1430     1.0  0.57807  0.01663  0.76141  1.0000
  P   P44       1.0  0.51867  0.38090  0.97222  1.0000
  C   C1431     1.0  0.37865  0.28268  0.75788  1.0000
  H   H1156     1.0  0.64361  0.42090  0.74746  1.0000
  P   P45       1.0  0.33423  0.30864  0.78236  1.0000
  H   H1157     1.0  0.57356  0.39348  0.96798  1.0000
  H   H1158     1.0  0.64641  0.45428  0.82368  1.0000
  H   H1159     1.0  0.55949  0.47529  0.95989  1.0000
  H   H1160     1.0  0.55937  0.13738  0.76864  1.0000
  C   C1432     1.0  0.63484  0.47320  0.84036  1.0000
  H   H1161     1.0  0.38068  0.35691  0.78657  1.0000
  H   H1162     1.0  0.42486  0.22823  0.82056  1.0000
  C   C1433     1.0  0.37529  0.34719  0.79668  1.0000
  H   H1163     1.0  0.63273  0.20938  0.88526  1.0000
  C   C1434     1.0  0.61242  0.46106  0.81792  1.0000
  H   H1164     1.0  0.63959  0.14891  0.87556  1.0000
  C   C1435     1.0  0.39495  0.15613  0.86630  1.0000
  C   C1436     1.0  0.43488  0.18876  0.83355  1.0000
  C   C1437     1.0  0.63835  0.16289  0.85430  1.0000
  C   C1438     1.0  0.43857  0.23389  0.86928  1.0000
  H   H1165     1.0  0.56262  0.05116  0.90080  1.0000
  C   C1439     1.0  0.34559  0.26765  0.96650  1.0000
  C   C1440     1.0  0.36951  0.17917  0.94819  1.0000
  H   H1166     1.0  0.58310  0.06076  0.87745  1.0000
  H   H1167     1.0  0.33210  0.12428  0.84391  1.0000
  C   C1441     1.0  0.36145  0.09894  0.74868  1.0000
  C   C1442     1.0  0.36367  0.19815  0.94078  1.0000
  H   H1168     1.0  0.63554  0.27838  0.84005  1.0000
  C   C1443     1.0  0.57021  0.41118  0.96623  1.0000
  C   C1444     1.0  0.47922  0.03340  0.90112  1.0000
  H   H1169     1.0  0.37400  0.23983  0.93797  1.0000
  H   H1170     1.0  0.44207  0.03471  0.89716  1.0000
  H   H1171     1.0  0.51752  0.03416  0.90197  1.0000
  H   H1172     1.0  0.38727  0.01931  0.96576  1.0000
  C   C1445     1.0  0.51064  0.43803  0.82313  1.0000
  C   C1446     1.0  0.36574  0.22060  0.90782  1.0000
  C   C1447     1.0  0.45713  0.01386  0.84728  1.0000
  H   H1173     1.0  0.56441  0.48819  0.90073  1.0000
  H   H1174     1.0  0.33519  0.20280  0.97410  1.0000
  H   H1175     1.0  0.61095  0.25397  0.81908  1.0000
  C   C1448     1.0  0.37513  0.25863  0.76406  1.0000
  H   H1176     1.0  0.60632  0.03464  0.86862  1.0000
  H   H1177     1.0  0.47015  0.17201  0.80242  1.0000
  C   C1449     1.0  0.59806  0.00883  0.88678  1.0000
  C   C1450     1.0  0.46065  0.03776  0.89283  1.0000
  C   C1451     1.0  0.46628  0.36968  0.97615  1.0000
  C   C1452     1.0  0.53254  0.35561  0.95040  1.0000
  C   C1453     1.0  0.34916  0.10494  0.94518  1.0000
  Fe  Fe110     1.0  0.65309  0.07973  0.79739  1.0000
  S   S214      1.0  0.39734  0.03905  0.74637  1.0000
  H   H1178     1.0  0.39187  0.29006  0.74919  1.0000
  C   C1454     1.0  0.48789  0.38179  0.96756  1.0000
  H   H1179     1.0  0.48258  0.23953  0.89540  1.0000
  C   C1455     1.0  0.42451  0.16379  0.82723  1.0000
  C   C1456     1.0  0.47136  0.23262  0.88575  1.0000
  H   H1180     1.0  0.62465  0.17136  0.85691  1.0000
  H   H1181     1.0  0.36511  0.12485  0.90648  1.0000
  H   H1182     1.0  0.48628  0.20315  0.88176  1.0000
  H   H1183     1.0  0.45920  0.18594  0.86045  1.0000
  C   C1457     1.0  0.53104  0.33356  0.94276  1.0000
  C   C1458     1.0  0.34180  0.04105  0.95719  1.0000
  C   C1459     1.0  0.43941  0.38029  0.95910  1.0000
  C   C1460     1.0  0.34243  0.21269  0.91512  1.0000
  C   C1461     1.0  0.38561  0.14528  0.75372  1.0000
  C   C1462     1.0  0.36899  0.15685  0.84581  1.0000
  C   C1463     1.0  0.37841  0.22481  0.94336  1.0000
  P   P46       1.0  0.41776  0.19750  0.84728  1.0000
  C   C1464     1.0  0.53644  0.01561  0.76817  1.0000
  H   H1184     1.0  0.36026  0.31086  0.83267  1.0000
  C   C1465     1.0  0.64883  0.22374  0.84283  1.0000
  C   C1466     1.0  0.53373  0.45150  0.83056  1.0000
  H   H1185     1.0  0.54424  0.44060  0.83504  1.0000
  C   C1467     1.0  0.34588  0.03789  0.77006  1.0000
  C   C1468     1.0  0.62135  0.24545  0.82580  1.0000
  H   H1186     1.0  0.34982  0.03675  0.80595  1.0000
  H   H1187     1.0  0.49242  0.32465  0.97732  1.0000
  H   H1188     1.0  0.42061  0.37945  0.95576  1.0000
  C   C1469     1.0  0.35012  0.02997  0.78357  1.0000
  H   H1189     1.0  0.65072  0.46809  0.75543  1.0000
  H   H1190     1.0  0.40682  0.25930  0.81217  1.0000
  H   H1191     1.0  0.50062  0.39942  0.94720  1.0000
  C   C1470     1.0  0.54529  0.41088  0.96744  1.0000
  H   H1192     1.0  0.47932  0.44125  0.81114  1.0000
  H   H1193     1.0  0.50326  0.41690  0.82193  1.0000
  H   H1194     1.0  0.39548  0.17208  0.96297  1.0000
  C   C1471     1.0  0.51917  0.35268  0.96310  1.0000
  H   H1195     1.0  0.33464  0.25786  0.79043  1.0000
  C   C1472     1.0  0.59445  0.47090  0.82234  1.0000
  C   C1473     1.0  0.34773  0.11128  0.97039  1.0000
  C   C1474     1.0  0.58703  0.45735  0.96024  1.0000
  C   C1475     1.0  0.52825  0.06616  0.74391  1.0000
  H   H1196     1.0  0.40217  0.19900  0.78997  1.0000
  H   H1197     1.0  0.60582  0.10013  0.84979  1.0000
  H   H1198     1.0  0.54060  0.33603  0.93270  1.0000
  H   H1199     1.0  0.36980  0.31672  0.75874  1.0000
  H   H1200     1.0  0.35040  0.00579  0.93750  1.0000
  C   C1476     1.0  0.45407  0.24357  0.88130  1.0000
  H   H1201     1.0  0.35834  0.26524  0.88540  1.0000
  C   C1477     1.0  0.64255  0.17827  0.79748  1.0000
  C   C1478     1.0  0.32848  0.30055  0.97059  1.0000
  C   C1479     1.0  0.64668  0.15016  0.86486  1.0000
  H   H1202     1.0  0.57906  0.47002  0.81516  1.0000
  H   H1203     1.0  0.45815  0.39900  0.94001  1.0000
  C   C1480     1.0  0.59094  0.43429  0.96250  1.0000
  C   C1481     1.0  0.33456  0.35741  0.77440  1.0000
  H   H1204     1.0  0.37823  0.12326  0.88030  1.0000
  H   H1205     1.0  0.51921  0.01911  0.76587  1.0000
  C   C1482     1.0  0.54169  0.43435  0.96556  1.0000
  C   C1483     1.0  0.34954  0.13334  0.85024  1.0000
  H   H1206     1.0  0.35057  0.02903  0.76100  1.0000
  C   C1484     1.0  0.58623  0.00352  0.90004  1.0000
  C   C1485     1.0  0.49705  0.45179  0.81703  1.0000
  H   H1207     1.0  0.60999  0.43429  0.96118  1.0000
  C   C1486     1.0  0.33000  0.24201  0.90049  1.0000
  C   C1487     1.0  0.65390  0.18423  0.81101  1.0000
  C   C1488     1.0  0.41111  0.23186  0.82714  1.0000
  H   H1208     1.0  0.50306  0.05347  0.82491  1.0000
  H   H1209     1.0  0.33564  0.39518  0.76809  1.0000
  S   S215      1.0  0.59184  0.48823  0.78808  1.0000
  C   C1489     1.0  0.51616  0.30844  0.94774  1.0000
  H   H1210     1.0  0.51432  0.29134  0.94160  1.0000
  C   C1490     1.0  0.54346  0.47893  0.83192  1.0000
  C   C1491     1.0  0.42761  0.04195  0.96310  1.0000
  H   H1211     1.0  0.35757  0.23169  0.78092  1.0000
  C   C1492     1.0  0.56598  0.48986  0.88936  1.0000
  C   C1493     1.0  0.64219  0.06684  0.84679  1.0000
  H   H1212     1.0  0.60289  0.47513  0.95695  1.0000
  C   C1494     1.0  0.40729  0.14424  0.74726  1.0000
  H   H1213     1.0  0.62063  0.49373  0.85465  1.0000
  C   C1495     1.0  0.46059  0.39145  0.95026  1.0000
  C   C1496     1.0  0.35282  0.12120  0.86266  1.0000
  H   H1214     1.0  0.62510  0.11362  0.74669  1.0000
  H   H1215     1.0  0.58526  0.07759  0.75414  1.0000
  C   C1497     1.0  0.34828  0.31035  0.81085  1.0000
  C   C1498     1.0  0.34568  0.04224  0.79548  1.0000
  C   C1499     1.0  0.34675  0.31746  0.96111  1.0000
  H   H1216     1.0  0.34534  0.24838  0.96853  1.0000
  C   C1500     1.0  0.63782  0.00265  0.83408  1.0000
  H   H1217     1.0  0.38682  0.16350  0.75843  1.0000
  H   H1218     1.0  0.32838  0.15719  0.96877  1.0000
  H   H1219     1.0  0.61075  0.45301  0.80737  1.0000
  H   H1220     1.0  0.49598  0.48971  0.81358  1.0000
  C   C1501     1.0  0.36152  0.11051  0.95838  1.0000
  H   H1221     1.0  0.35978  0.10347  0.93599  1.0000
  H   H1222     1.0  0.34232  0.47010  0.75850  1.0000
  C   C1502     1.0  0.52190  0.37815  0.99106  1.0000
  C   C1503     1.0  0.58162  0.00835  0.77495  1.0000
  C   C1504     1.0  0.65214  0.46247  0.77781  1.0000
  H   H1223     1.0  0.33953  0.45784  0.78372  1.0000
  C   C1505     1.0  0.33695  0.06243  0.79388  1.0000
  H   H1224     1.0  0.52289  0.43493  0.96678  1.0000
  C   C1506     1.0  0.33759  0.03787  0.97184  1.0000
  C   C1507     1.0  0.59656  0.02936  0.87857  1.0000
  H   H1225     1.0  0.37181  0.16473  0.91992  1.0000
  H   H1226     1.0  0.52558  0.00441  0.78970  1.0000
  H   H1227     1.0  0.34701  0.33674  0.95903  1.0000
  C   C1508     1.0  0.59675  0.48244  0.83569  1.0000
  H   H1228     1.0  0.34121  0.01730  0.91341  1.0000
  H   H1229     1.0  0.47530  0.02771  0.91209  1.0000
  C   C1509     1.0  0.34927  0.28855  0.77473  1.0000
  C   C1510     1.0  0.46943  0.43181  0.74873  1.0000
  H   H1230     1.0  0.32634  0.08635  0.77931  1.0000
  C   C1511     1.0  0.64909  0.24842  0.84605  1.0000
  S   S216      1.0  0.65508  0.04175  0.94316  1.0000
  C   C1512     1.0  0.33244  0.37555  0.76468  1.0000
  H   H1231     1.0  0.39199  0.40629  0.74564  1.0000
  C   C1513     1.0  0.34636  0.26467  0.78113  1.0000
  C   C1514     1.0  0.56267  0.00383  0.78514  1.0000
  C   C1515     1.0  0.64544  0.00358  0.89302  1.0000
  H   H1232     1.0  0.46760  0.02545  0.94244  1.0000
  H   H1233     1.0  0.35758  0.11511  0.98054  1.0000
  C   C1516     1.0  0.32671  0.36854  0.75051  1.0000
  C   C1517     1.0  0.32692  0.45213  0.76194  1.0000
  H   H1234     1.0  0.33456  0.07258  0.80315  1.0000
  C   C1518     1.0  0.65812  0.18373  0.78553  1.0000
  C   C1519     1.0  0.45016  0.02341  0.94791  1.0000
  P   P47       1.0  0.57406  0.49634  0.84090  1.0000
  C   C1520     1.0  0.36280  0.12270  0.75452  1.0000
  H   H1235     1.0  0.65210  0.00955  0.96752  1.0000
  C   C1521     1.0  0.33657  0.05774  0.76834  1.0000
  C   C1522     1.0  0.32771  0.27543  0.97332  1.0000
  C   C1523     1.0  0.65543  0.06972  0.83403  1.0000
  H   H1236     1.0  0.34649  0.12370  0.75997  1.0000
  C   C1524     1.0  0.65573  0.07397  0.85974  1.0000
  C   C1525     1.0  0.35010  0.00335  0.91491  1.0000
  P   P48       1.0  0.33276  0.06935  0.75094  1.0000
  C   C1526     1.0  0.59301  0.07661  0.74386  1.0000
  C   C1527     1.0  0.51391  0.47690  0.74316  1.0000
  H   H1237     1.0  0.48158  0.82374  0.21577  1.0000
  Fe  Fe111     1.0  0.57491  0.89450  0.09537  1.0000
  S   S217      1.0  0.54734  0.85187  0.09385  1.0000
  S   S218      1.0  0.59290  0.91256  0.07410  1.0000
  Fe  Fe112     1.0  0.56495  0.89539  0.12735  1.0000
  S   S219      1.0  0.53771  0.85338  0.12755  1.0000
  S   S220      1.0  0.57476  0.91784  0.14818  1.0000
  Fe  Fe113     1.0  0.56637  0.84642  0.11388  1.0000
  S   S221      1.0  0.58137  0.81529  0.11992  1.0000
  Fe  Fe114     1.0  0.52079  0.86283  0.10767  1.0000
  S   S222      1.0  0.47666  0.84285  0.10583  1.0000
  S   S223      1.0  0.59523  0.88819  0.11480  1.0000
  S   S224      1.0  0.54679  0.90574  0.10801  1.0000
  Fe  Fe115     1.0  0.34837  0.87242  0.10834  1.0000
  Fe  Fe116     1.0  0.53704  0.67243  0.23745  1.0000
  S   S225      1.0  0.39146  0.89218  0.10354  1.0000
  H   H1238     1.0  0.58266  0.86213  0.17321  1.0000
  C   C1528     1.0  0.47657  0.86138  0.14434  1.0000
  C   C1529     1.0  0.53657  0.55091  0.20844  1.0000
  C   C1530     1.0  0.46808  0.75749  0.22154  1.0000
  Fe  Fe117     1.0  0.56845  0.64454  0.22500  1.0000
  S   S226      1.0  0.59939  0.64798  0.20930  1.0000
  S   S227      1.0  0.53206  0.64775  0.21798  1.0000
  Fe  Fe118     1.0  0.53934  0.87602  0.23013  1.0000
  H   H1239     1.0  0.45725  0.69553  0.18018  1.0000
  S   S228      1.0  0.52901  0.86429  0.20701  1.0000
  H   H1240     1.0  0.35744  0.84410  0.15362  1.0000
  C   C1531     1.0  0.48861  0.89474  0.19528  1.0000
  Fe  Fe119     1.0  0.57990  0.65241  0.09036  1.0000
  S   S229      1.0  0.53704  0.64024  0.08701  1.0000
  S   S230      1.0  0.60239  0.66196  0.06961  1.0000
  Fe  Fe120     1.0  0.57304  0.64951  0.12271  1.0000
  S   S231      1.0  0.53005  0.63791  0.12161  1.0000
  S   S232      1.0  0.59910  0.65593  0.14204  1.0000
  Fe  Fe121     1.0  0.53075  0.61043  0.10427  1.0000
  S   S233      1.0  0.50451  0.56700  0.10113  1.0000
  Fe  Fe122     1.0  0.53986  0.66855  0.10440  1.0000
  S   S234      1.0  0.52130  0.69737  0.10037  1.0000
  S   S235      1.0  0.57354  0.62030  0.10635  1.0000
  S   S236      1.0  0.58269  0.68236  0.10685  1.0000
  C   C1532     1.0  0.47182  0.54932  0.10600  1.0000
  C   C1533     1.0  0.45955  0.52265  0.10228  1.0000
  S   S237      1.0  0.51923  0.83894  0.24240  1.0000
  C   C1534     1.0  0.41962  0.51947  0.11320  1.0000
  C   C1535     1.0  0.43192  0.54610  0.11700  1.0000
  C   C1536     1.0  0.45785  0.56097  0.11342  1.0000
  H   H1241     1.0  0.47020  0.51343  0.09657  1.0000
  H   H1242     1.0  0.41994  0.76038  0.21774  1.0000
  H   H1243     1.0  0.46703  0.58143  0.11637  1.0000
  H   H1244     1.0  0.48603  0.87905  0.20272  1.0000
  H   H1245     1.0  0.60749  0.77402  0.22729  1.0000
  C   C1537     1.0  0.34784  0.96974  0.08739  1.0000
  C   C1538     1.0  0.65563  0.91230  0.01581  1.0000
  C   C1539     1.0  0.59725  0.65071  0.19065  1.0000
  C   C1540     1.0  0.57552  0.65136  0.18339  1.0000
  C   C1541     1.0  0.57523  0.65268  0.16840  1.0000
  C   C1542     1.0  0.59684  0.65378  0.16074  1.0000
  C   C1543     1.0  0.61847  0.65373  0.16814  1.0000
  C   C1544     1.0  0.61861  0.65205  0.18289  1.0000
  H   H1246     1.0  0.55897  0.65065  0.18926  1.0000
  H   H1247     1.0  0.55854  0.65302  0.16282  1.0000
  H   H1248     1.0  0.63531  0.65478  0.16240  1.0000
  H   H1249     1.0  0.63553  0.65177  0.18832  1.0000
  H   H1250     1.0  0.46517  0.86901  0.17917  1.0000
  H   H1251     1.0  0.55701  0.73166  0.07079  1.0000
  C   C1545     1.0  0.43319  0.84916  0.15306  1.0000
  C   C1546     1.0  0.61918  0.63432  0.01220  1.0000
  C   C1547     1.0  0.56546  0.78285  0.11381  1.0000
  C   C1548     1.0  0.54628  0.77644  0.10331  1.0000
  C   C1549     1.0  0.53320  0.75018  0.09909  1.0000
  C   C1550     1.0  0.53936  0.73028  0.10520  1.0000
  C   C1551     1.0  0.55895  0.73679  0.11548  1.0000
  C   C1552     1.0  0.57186  0.76299  0.11983  1.0000
  H   H1252     1.0  0.54133  0.79163  0.09855  1.0000
  H   H1253     1.0  0.51843  0.74527  0.09096  1.0000
  H   H1254     1.0  0.56380  0.72158  0.12024  1.0000
  H   H1255     1.0  0.58665  0.76781  0.12799  1.0000
  C   C1553     1.0  0.54184  0.88025  0.19092  1.0000
  C   C1554     1.0  0.53061  0.86767  0.17821  1.0000
  C   C1555     1.0  0.54049  0.87892  0.16509  1.0000
  C   C1556     1.0  0.56162  0.90306  0.16452  1.0000
  C   C1557     1.0  0.57248  0.91593  0.17725  1.0000
  C   C1558     1.0  0.56275  0.90453  0.19041  1.0000
  H   H1256     1.0  0.51425  0.84905  0.17851  1.0000
  H   H1257     1.0  0.53168  0.86895  0.15545  1.0000
  H   H1258     1.0  0.58874  0.93469  0.17693  1.0000
  H   H1259     1.0  0.57151  0.91446  0.20013  1.0000
  C   C1559     1.0  0.45360  0.85739  0.10627  1.0000
  C   C1560     1.0  0.42746  0.84126  0.10853  1.0000
  C   C1561     1.0  0.40824  0.85162  0.10804  1.0000
  C   C1562     1.0  0.41493  0.87820  0.10502  1.0000
  C   C1563     1.0  0.44111  0.89437  0.10299  1.0000
  C   C1564     1.0  0.46038  0.88413  0.10375  1.0000
  H   H1260     1.0  0.42200  0.82056  0.11046  1.0000
  H   H1261     1.0  0.38821  0.83892  0.10961  1.0000
  H   H1262     1.0  0.44650  0.91492  0.10061  1.0000
  H   H1263     1.0  0.48036  0.89675  0.10195  1.0000
  C   C1565     1.0  0.47683  0.88915  0.18191  1.0000
  C   C1566     1.0  0.51627  0.73610  0.16814  1.0000
  H   H1264     1.0  0.33763  0.78052  0.19823  1.0000
  C   C1567     1.0  0.46261  0.82294  0.21302  1.0000
  H   H1265     1.0  0.50829  0.51123  0.20663  1.0000
  H   H1266     1.0  0.64360  0.93770  0.08845  1.0000
  C   C1568     1.0  0.63597  0.67818  0.06598  1.0000
  C   C1569     1.0  0.47199  0.75873  0.19598  1.0000
  H   H1267     1.0  0.64611  0.84877  0.09687  1.0000
  C   C1570     1.0  0.61678  0.74620  0.15153  1.0000
  H   H1268     1.0  0.62899  0.68372  0.04398  1.0000
  C   C1571     1.0  0.49268  0.70825  0.19232  1.0000
  C   C1572     1.0  0.62520  0.92916  0.06796  1.0000
  C   C1573     1.0  0.62937  0.93298  0.05332  1.0000
  C   C1574     1.0  0.47784  0.70722  0.18020  1.0000
  C   C1575     1.0  0.41183  0.52285  0.23636  1.0000
  H   H1269     1.0  0.61317  0.92475  0.04607  1.0000
  C   C1576     1.0  0.60214  0.72263  0.14470  1.0000
  H   H1270     1.0  0.48796  0.95532  0.11103  1.0000
  H   H1271     1.0  0.42132  0.55530  0.12276  1.0000
  H   H1272     1.0  0.43688  0.50533  0.05930  1.0000
  C   C1577     1.0  0.53139  0.73653  0.18013  1.0000
  H   H1273     1.0  0.35879  0.74148  0.13145  1.0000
  C   C1578     1.0  0.58555  0.82846  0.16337  1.0000
  C   C1579     1.0  0.51932  0.72293  0.19233  1.0000
  C   C1580     1.0  0.44650  0.82454  0.22365  1.0000
  C   C1581     1.0  0.48960  0.72137  0.16816  1.0000
  C   C1582     1.0  0.60266  0.64757  0.01022  1.0000
  H   H1274     1.0  0.37296  0.85739  0.17776  1.0000
  C   C1583     1.0  0.46195  0.54301  0.06732  1.0000
  C   C1584     1.0  0.46375  0.56712  0.07261  1.0000
  C   C1585     1.0  0.44149  0.57204  0.07417  1.0000
  C   C1586     1.0  0.41735  0.55281  0.07046  1.0000
  C   C1587     1.0  0.41527  0.52821  0.06553  1.0000
  C   C1588     1.0  0.43783  0.52370  0.06361  1.0000
  P   P49       1.0  0.38425  0.50408  0.05995  1.0000
  C   C1589     1.0  0.38000  0.51179  0.04182  1.0000
  H   H1275     1.0  0.35599  0.54876  0.02200  1.0000
  C   C1590     1.0  0.64794  0.72872  0.10969  1.0000
  H   H1276     1.0  0.53491  0.96609  0.11370  1.0000
  H   H1277     1.0  0.33589  0.97594  0.08048  1.0000
  C   C1591     1.0  0.35979  0.81056  0.21338  1.0000
  H   H1278     1.0  0.63848  0.76723  0.04983  1.0000
  C   C1592     1.0  0.65228  0.70879  0.11696  1.0000
  C   C1593     1.0  0.44341  0.70753  0.23620  1.0000
  C   C1594     1.0  0.36333  0.51232  0.08508  1.0000
  H   H1279     1.0  0.49967  0.78728  0.23265  1.0000
  C   C1595     1.0  0.36810  0.52912  0.03855  1.0000
  C   C1596     1.0  0.35854  0.50464  0.07087  1.0000
  C   C1597     1.0  0.33925  0.78743  0.20896  1.0000
  H   H1280     1.0  0.60589  0.72909  0.23071  1.0000
  C   C1598     1.0  0.64856  0.81540  0.12280  1.0000
  C   C1599     1.0  0.38712  0.50810  0.01682  1.0000
  H   H1281     1.0  0.39004  0.94499  0.11132  1.0000
  H   H1282     1.0  0.47932  0.53928  0.06626  1.0000
  H   H1283     1.0  0.48245  0.58191  0.07565  1.0000
  H   H1284     1.0  0.44301  0.59076  0.07831  1.0000
  H   H1285     1.0  0.40036  0.55716  0.07150  1.0000
  H   H1286     1.0  0.63696  0.75657  0.14897  1.0000
  C   C1600     1.0  0.46169  0.69893  0.23068  1.0000
  H   H1287     1.0  0.38732  0.76928  0.11290  1.0000
  P   P50       1.0  0.32793  0.98776  0.11014  1.0000
  Fe  Fe123     1.0  0.51224  0.61286  0.23181  1.0000
  C   C1601     1.0  0.54844  0.78576  0.24018  1.0000
  C   C1602     1.0  0.64358  0.68663  0.05209  1.0000
  C   C1603     1.0  0.36341  0.96425  0.11068  1.0000
  H   H1288     1.0  0.41074  0.93857  0.20844  1.0000
  H   H1289     1.0  0.33928  0.97122  0.99593  1.0000
  H   H1290     1.0  0.54553  0.80186  0.23509  1.0000
  H   H1291     1.0  0.37260  0.52987  0.00271  1.0000
  H   H1292     1.0  0.54671  0.54677  0.21730  1.0000
  H   H1293     1.0  0.37529  0.83717  0.23085  1.0000
  H   H1294     1.0  0.62694  0.90277  0.99918  1.0000
  H   H1295     1.0  0.48013  0.71299  0.22705  1.0000
  C   C1604     1.0  0.42266  0.82531  0.22018  1.0000
  H   H1296     1.0  0.48564  0.52062  0.18618  1.0000
  P   P51       1.0  0.49430  0.56911  0.17041  1.0000
  C   C1605     1.0  0.51144  0.56482  0.15530  1.0000
  C   C1606     1.0  0.45996  0.54948  0.16997  1.0000
  C   C1607     1.0  0.44606  0.54464  0.15711  1.0000
  H   H1297     1.0  0.43539  0.89876  0.23484  1.0000
  C   C1608     1.0  0.41997  0.68892  0.24120  1.0000
  C   C1609     1.0  0.45224  0.56087  0.23309  1.0000
  C   C1610     1.0  0.44652  0.54036  0.18259  1.0000
  C   C1611     1.0  0.53614  0.58380  0.15240  1.0000
  C   C1612     1.0  0.54924  0.58164  0.14038  1.0000
  H   H1298     1.0  0.56279  0.83810  0.19498  1.0000
  C   C1613     1.0  0.49700  0.60257  0.17113  1.0000
  C   C1614     1.0  0.49451  0.61362  0.18404  1.0000
  C   C1615     1.0  0.49738  0.63981  0.18463  1.0000
  C   C1616     1.0  0.50265  0.65503  0.17237  1.0000
  C   C1617     1.0  0.50436  0.64391  0.15943  1.0000
  C   C1618     1.0  0.50121  0.61768  0.15876  1.0000
  H   H1299     1.0  0.45566  0.55275  0.14731  1.0000
  H   H1300     1.0  0.38258  0.51854  0.08960  1.0000
  H   H1301     1.0  0.45644  0.54524  0.19274  1.0000
  H   H1302     1.0  0.54519  0.60055  0.15929  1.0000
  H   H1303     1.0  0.56804  0.59673  0.13805  1.0000
  C   C1619     1.0  0.65415  0.94802  0.04797  1.0000
  H   H1304     1.0  0.49066  0.60211  0.19367  1.0000
  H   H1305     1.0  0.49582  0.64834  0.19466  1.0000
  H   H1306     1.0  0.50546  0.67541  0.17289  1.0000
  H   H1307     1.0  0.50854  0.65566  0.14993  1.0000
  H   H1308     1.0  0.50242  0.60935  0.14862  1.0000
  H   H1309     1.0  0.34686  0.51645  0.10481  1.0000
  C   C1620     1.0  0.63433  0.89537  0.00808  1.0000
  C   C1621     1.0  0.49161  0.77924  0.22250  1.0000
  H   H1310     1.0  0.60290  0.65811  0.00057  1.0000
  C   C1622     1.0  0.62258  0.86894  0.01186  1.0000
  C   C1623     1.0  0.36023  0.81910  0.22732  1.0000
  C   C1624     1.0  0.57920  0.84153  0.17431  1.0000
  S   S238      1.0  0.54866  0.60769  0.23755  1.0000
  C   C1625     1.0  0.47805  0.93309  0.13036  1.0000
  H   H1311     1.0  0.52356  0.80745  0.21131  1.0000
  C   C1626     1.0  0.37039  0.83795  0.17430  1.0000
  C   C1627     1.0  0.62065  0.85972  0.06008  1.0000
  H   H1312     1.0  0.50506  0.52441  0.12720  1.0000
  C   C1628     1.0  0.37472  0.52490  0.01361  1.0000
  H   H1313     1.0  0.64096  0.81010  0.05804  1.0000
  H   H1314     1.0  0.46444  0.75083  0.18568  1.0000
  H   H1315     1.0  0.38921  0.93874  0.08549  1.0000
  C   C1629     1.0  0.61562  0.73235  0.08053  1.0000
  H   H1316     1.0  0.60606  0.85580  0.00587  1.0000
  C   C1630     1.0  0.47101  0.74393  0.08201  1.0000
  C   C1631     1.0  0.48209  0.77068  0.07885  1.0000
  C   C1632     1.0  0.48717  0.78915  0.08965  1.0000
  C   C1633     1.0  0.48143  0.78097  0.10364  1.0000
  C   C1634     1.0  0.47043  0.75414  0.10693  1.0000
  C   C1635     1.0  0.46509  0.73565  0.09599  1.0000
  P   P52       1.0  0.45995  0.74351  0.12466  1.0000
  C   C1636     1.0  0.42760  0.74228  0.12662  1.0000
  C   C1637     1.0  0.46189  0.71202  0.12721  1.0000
  C   C1638     1.0  0.43987  0.68857  0.12564  1.0000
  C   C1639     1.0  0.44190  0.66431  0.12695  1.0000
  C   C1640     1.0  0.46596  0.66327  0.12951  1.0000
  C   C1641     1.0  0.48798  0.68648  0.13077  1.0000
  C   C1642     1.0  0.48601  0.71071  0.12957  1.0000
  C   C1643     1.0  0.41867  0.75764  0.11790  1.0000
  C   C1644     1.0  0.39401  0.75739  0.11972  1.0000
  C   C1645     1.0  0.37802  0.74184  0.13022  1.0000
  C   C1646     1.0  0.38677  0.72667  0.13903  1.0000
  C   C1647     1.0  0.41151  0.72699  0.13730  1.0000
  C   C1648     1.0  0.48125  0.76614  0.13749  1.0000
  C   C1649     1.0  0.50783  0.77822  0.13501  1.0000
  C   C1650     1.0  0.52430  0.79612  0.14471  1.0000
  C   C1651     1.0  0.51435  0.80261  0.15684  1.0000
  C   C1652     1.0  0.48793  0.79062  0.15946  1.0000
  C   C1653     1.0  0.47149  0.77209  0.14997  1.0000
  H   H1317     1.0  0.46716  0.72957  0.07365  1.0000
  H   H1318     1.0  0.48663  0.77715  0.06804  1.0000
  H   H1319     1.0  0.49519  0.80991  0.08718  1.0000
  H   H1320     1.0  0.48505  0.79565  0.11179  1.0000
  H   H1321     1.0  0.45645  0.71483  0.09818  1.0000
  H   H1322     1.0  0.42129  0.68888  0.12294  1.0000
  H   H1323     1.0  0.42497  0.64627  0.12553  1.0000
  H   H1324     1.0  0.46771  0.64451  0.13000  1.0000
  H   H1325     1.0  0.50688  0.68582  0.13185  1.0000
  H   H1326     1.0  0.50358  0.72826  0.12990  1.0000
  H   H1327     1.0  0.43072  0.77013  0.10976  1.0000
  C   C1654     1.0  0.34784  0.97298  0.10210  1.0000
  H   H1328     1.0  0.60215  0.84815  0.09437  1.0000
  H   H1329     1.0  0.37431  0.71455  0.14715  1.0000
  H   H1330     1.0  0.41813  0.71537  0.14431  1.0000
  H   H1331     1.0  0.51586  0.77415  0.12547  1.0000
  H   H1332     1.0  0.54474  0.80565  0.14254  1.0000
  H   H1333     1.0  0.52710  0.81726  0.16404  1.0000
  H   H1334     1.0  0.48014  0.79617  0.16868  1.0000
  H   H1335     1.0  0.45116  0.76310  0.15227  1.0000
  C   C1655     1.0  0.39368  0.86390  0.20391  1.0000
  C   C1656     1.0  0.41932  0.88209  0.20265  1.0000
  C   C1657     1.0  0.64899  0.78473  0.04374  1.0000
  C   C1658     1.0  0.40600  0.91784  0.20691  1.0000
  C   C1659     1.0  0.38041  0.89991  0.20798  1.0000
  C   C1660     1.0  0.37430  0.87301  0.20664  1.0000
  C   C1661     1.0  0.65314  0.50672  0.23260  1.0000
  H   H1336     1.0  0.56535  0.69018  0.14317  1.0000
  C   C1662     1.0  0.60192  0.62173  0.03577  1.0000
  H   H1337     1.0  0.34983  0.79959  0.14502  1.0000
  C   C1663     1.0  0.37852  0.95230  0.10466  1.0000
  C   C1664     1.0  0.35718  0.80533  0.15568  1.0000
  H   H1338     1.0  0.36543  0.90679  0.21043  1.0000
  H   H1339     1.0  0.35450  0.85934  0.20795  1.0000
  C   C1665     1.0  0.63210  0.85946  0.02340  1.0000
  H   H1340     1.0  0.44241  0.92715  0.17535  1.0000
  H   H1341     1.0  0.44043  0.73003  0.20721  1.0000
  C   C1666     1.0  0.41451  0.82404  0.20599  1.0000
  H   H1342     1.0  0.39468  0.50014  0.00840  1.0000
  H   H1343     1.0  0.54768  0.55911  0.12168  1.0000
  H   H1344     1.0  0.36225  0.95455  0.07010  1.0000
  H   H1345     1.0  0.47812  0.72073  0.15880  1.0000
  S   S239      1.0  0.38717  0.50161  0.11843  1.0000
  C   C1667     1.0  0.51008  0.56207  0.18567  1.0000
  C   C1668     1.0  0.34100  0.80470  0.23678  1.0000
  C   C1669     1.0  0.50077  0.54276  0.14649  1.0000
  H   H1346     1.0  0.58594  0.79229  0.15603  1.0000
  H   H1347     1.0  0.44539  0.92276  0.20363  1.0000
  C   C1670     1.0  0.59912  0.73432  0.22086  1.0000
  H   H1348     1.0  0.53032  0.72337  0.20189  1.0000
  C   C1671     1.0  0.49563  0.78025  0.19711  1.0000
  C   C1672     1.0  0.43359  0.50782  0.10581  1.0000
  C   C1673     1.0  0.41740  0.89778  0.14388  1.0000
  C   C1674     1.0  0.38994  0.50172  0.03088  1.0000
  H   H1349     1.0  0.58613  0.85598  0.07097  1.0000
  C   C1675     1.0  0.61837  0.62107  0.02500  1.0000
  H   H1350     1.0  0.37641  0.78185  0.18500  1.0000
  H   H1351     1.0  0.56227  0.59177  0.20739  1.0000
  C   C1676     1.0  0.59007  0.72268  0.07557  1.0000
  C   C1677     1.0  0.36261  0.78787  0.16454  1.0000
  H   H1352     1.0  0.51422  0.92454  0.20916  1.0000
  C   C1678     1.0  0.34305  0.51105  0.09377  1.0000
  C   C1679     1.0  0.57709  0.73944  0.07416  1.0000
  C   C1680     1.0  0.44555  0.81649  0.14235  1.0000
  H   H1353     1.0  0.38025  0.89332  0.13537  1.0000
  H   H1354     1.0  0.46787  0.82120  0.19070  1.0000
  C   C1681     1.0  0.50443  0.92049  0.19896  1.0000
  C   C1682     1.0  0.42547  0.90893  0.20425  1.0000
  H   H1355     1.0  0.59239  0.78617  0.20505  1.0000
  S   S240      1.0  0.52832  0.70829  0.23246  1.0000
  P   P53       1.0  0.46516  0.90240  0.15494  1.0000
  H   H1356     1.0  0.41854  0.85404  0.15804  1.0000
  H   H1357     1.0  0.57988  0.77911  0.07619  1.0000
  C   C1683     1.0  0.65065  0.80921  0.04843  1.0000
  H   H1358     1.0  0.40774  0.80868  0.15009  1.0000
  C   C1684     1.0  0.58139  0.80198  0.16483  1.0000
  H   H1359     1.0  0.50661  0.78898  0.18779  1.0000
  C   C1685     1.0  0.60004  0.75964  0.21891  1.0000
  C   C1686     1.0  0.61420  0.85128  0.08517  1.0000
  H   H1360     1.0  0.52524  0.74678  0.15870  1.0000
  C   C1687     1.0  0.42703  0.82330  0.14879  1.0000
  H   H1361     1.0  0.44051  0.79679  0.13851  1.0000
  C   C1688     1.0  0.43350  0.53705  0.22816  1.0000
  H   H1362     1.0  0.59354  0.83884  0.15367  1.0000
  H   H1363     1.0  0.48370  0.69750  0.20173  1.0000
  H   H1364     1.0  0.61092  0.71464  0.13692  1.0000
  C   C1689     1.0  0.64464  0.79651  0.11232  1.0000
  C   C1690     1.0  0.53932  0.76085  0.23376  1.0000
  P   P54       1.0  0.56598  0.75431  0.17964  1.0000
  H   H1365     1.0  0.61741  0.77379  0.16749  1.0000
  H   H1366     1.0  0.62990  0.73096  0.11108  1.0000
  C   C1691     1.0  0.53220  0.58179  0.19153  1.0000
  C   C1692     1.0  0.57116  0.78845  0.17740  1.0000
  C   C1693     1.0  0.36532  0.53549  0.02448  1.0000
  C   C1694     1.0  0.58994  0.76611  0.07727  1.0000
  H   H1367     1.0  0.36360  0.96630  0.12205  1.0000
  H   H1368     1.0  0.48466  0.82995  0.13533  1.0000
  P   P55       1.0  0.38558  0.82923  0.20152  1.0000
  C   C1695     1.0  0.40540  0.92220  0.16681  1.0000
  C   C1696     1.0  0.47045  0.83532  0.14047  1.0000
  C   C1697     1.0  0.42912  0.91965  0.16656  1.0000
  C   C1698     1.0  0.48042  0.90944  0.17220  1.0000
  C   C1699     1.0  0.53092  0.94525  0.13334  1.0000
  C   C1700     1.0  0.56798  0.82794  0.18657  1.0000
  C   C1701     1.0  0.43083  0.82218  0.19534  1.0000
  C   C1702     1.0  0.61556  0.77587  0.08212  1.0000
  C   C1703     1.0  0.45782  0.86860  0.15046  1.0000
  H   H1369     1.0  0.49572  0.87583  0.14220  1.0000
  C   C1704     1.0  0.43531  0.90738  0.15508  1.0000
  C   C1705     1.0  0.57944  0.74256  0.16532  1.0000
  H   H1370     1.0  0.62517  0.79654  0.08450  1.0000
  H   H1371     1.0  0.52058  0.96077  0.19218  1.0000
  C   C1706     1.0  0.50537  0.79053  0.21036  1.0000
  C   C1707     1.0  0.58023  0.74742  0.19561  1.0000
  H   H1372     1.0  0.62656  0.98136  0.06789  1.0000
  H   H1373     1.0  0.48237  0.52720  0.14881  1.0000
  C   C1708     1.0  0.45478  0.82157  0.19888  1.0000
  H   H1374     1.0  0.36950  0.91484  0.15576  1.0000
  C   C1709     1.0  0.38785  0.91280  0.15557  1.0000
  H   H1375     1.0  0.41124  0.82783  0.22866  1.0000
  H   H1376     1.0  0.47159  0.66589  0.22661  1.0000
  C   C1710     1.0  0.48721  0.92360  0.14212  1.0000
  C   C1711     1.0  0.37578  0.82049  0.18332  1.0000
  C   C1712     1.0  0.57982  0.72213  0.19759  1.0000
  C   C1713     1.0  0.56499  0.71866  0.15853  1.0000
  C   C1714     1.0  0.56362  0.80142  0.18803  1.0000
  C   C1715     1.0  0.39387  0.90064  0.14410  1.0000
  C   C1716     1.0  0.45839  0.74711  0.20817  1.0000
  H   H1377     1.0  0.33758  0.86954  0.18603  1.0000
  H   H1378     1.0  0.63751  0.69541  0.12372  1.0000
  C   C1717     1.0  0.60559  0.75596  0.16194  1.0000
  C   C1718     1.0  0.64640  0.94023  0.07717  1.0000
  H   H1379     1.0  0.52147  0.92218  0.15223  1.0000
  H   H1380     1.0  0.45290  0.82608  0.23461  1.0000
  H   H1381     1.0  0.63215  0.81619  0.12831  1.0000
  H   H1382     1.0  0.36110  0.53784  0.04687  1.0000
  C   C1719     1.0  0.54304  0.73980  0.24027  1.0000
  C   C1720     1.0  0.36283  0.95758  0.08142  1.0000
  C   C1721     1.0  0.57632  0.70884  0.14823  1.0000
  H   H1383     1.0  0.43575  0.52950  0.21799  1.0000
  H   H1384     1.0  0.42157  0.88798  0.13497  1.0000
  H   H1385     1.0  0.52915  0.75773  0.22374  1.0000
  H   H1386     1.0  0.40054  0.93142  0.17574  1.0000
  C   C1722     1.0  0.37226  0.79555  0.17823  1.0000
  H   H1387     1.0  0.58879  0.69610  0.21161  1.0000
  H   H1388     1.0  0.57188  0.70719  0.18953  1.0000
  H   H1389     1.0  0.53945  0.60146  0.18730  1.0000
  C   C1723     1.0  0.51382  0.54077  0.13438  1.0000
  C   C1724     1.0  0.43358  0.65380  0.23543  1.0000
  C   C1725     1.0  0.49593  0.93539  0.17608  1.0000
  H   H1390     1.0  0.60214  0.61246  0.04586  1.0000
  H   H1391     1.0  0.54526  0.70716  0.16137  1.0000
  H   H1392     1.0  0.60382  0.58200  0.00258  1.0000
  C   C1726     1.0  0.65343  0.87639  0.03128  1.0000
  C   C1727     1.0  0.53792  0.56032  0.13127  1.0000
  H   H1393     1.0  0.35942  0.76844  0.16075  1.0000
  H   H1394     1.0  0.45772  0.92848  0.12879  1.0000
  H   H1395     1.0  0.42574  0.82245  0.18429  1.0000
  H   H1396     1.0  0.61327  0.86337  0.05005  1.0000
  C   C1728     1.0  0.52164  0.95453  0.12168  1.0000
  H   H1397     1.0  0.55471  0.79113  0.19756  1.0000
  H   H1398     1.0  0.63102  0.61088  0.02686  1.0000
  C   C1729     1.0  0.50804  0.94083  0.18937  1.0000
  H   H1399     1.0  0.57372  0.65861  0.01953  1.0000
  H   H1400     1.0  0.58018  0.70202  0.07305  1.0000
  C   C1730     1.0  0.59097  0.76632  0.20627  1.0000
  P   P56       1.0  0.64284  0.63603  0.99909  1.0000
  H   H1401     1.0  0.57360  0.63622  0.04230  1.0000
  C   C1731     1.0  0.51382  0.92969  0.14346  1.0000
  S   S241      1.0  0.47908  0.57810  0.22247  1.0000
  C   C1732     1.0  0.37806  0.94875  0.09005  1.0000
  C   C1733     1.0  0.54530  0.57627  0.20290  1.0000
  S   S242      1.0  0.33122  0.89820  0.11882  1.0000
  C   C1734     1.0  0.58931  0.71568  0.21014  1.0000
  H   H1402     1.0  0.52265  0.54699  0.24093  1.0000
  C   C1735     1.0  0.50199  0.53640  0.19092  1.0000
  C   C1736     1.0  0.49522  0.94848  0.12020  1.0000
  C   C1737     1.0  0.62823  0.75885  0.08434  1.0000
  H   H1403     1.0  0.62516  0.78251  0.11020  1.0000
  C   C1738     1.0  0.58581  0.63519  0.03377  1.0000
  C   C1739     1.0  0.60509  0.85543  0.07196  1.0000
  S   S243      1.0  0.33304  0.84046  0.12435  1.0000
  C   C1740     1.0  0.41953  0.52924  0.15680  1.0000
  H   H1404     1.0  0.62525  0.71896  0.08158  1.0000
  C   C1741     1.0  0.36139  0.83043  0.16052  1.0000
  H   H1405     1.0  0.43468  0.87566  0.20067  1.0000
  H   H1406     1.0  0.61732  0.99130  0.04344  1.0000
  C   C1742     1.0  0.58604  0.64793  0.02097  1.0000
  C   C1743     1.0  0.41132  0.75728  0.22805  1.0000
  H   H1407     1.0  0.39741  0.50453  0.23247  1.0000
  H   H1408     1.0  0.62275  0.83893  0.02622  1.0000
  H   H1409     1.0  0.55140  0.94967  0.13441  1.0000
  H   H1410     1.0  0.49897  0.95137  0.16875  1.0000
  H   H1411     1.0  0.38139  0.76992  0.22127  1.0000
  C   C1744     1.0  0.51497  0.53094  0.20242  1.0000
  C   C1745     1.0  0.64550  0.85977  0.06135  1.0000
  H   H1412     1.0  0.64965  0.67586  0.08706  1.0000
  H   H1413     1.0  0.65674  0.95146  0.03675  1.0000
  C   C1746     1.0  0.63902  0.85162  0.08656  1.0000
  C   C1747     1.0  0.41998  0.52501  0.18225  1.0000
  H   H1414     1.0  0.40980  0.51771  0.19202  1.0000
  C   C1748     1.0  0.40654  0.51921  0.16934  1.0000
  H   H1415     1.0  0.40898  0.52509  0.14681  1.0000
  H   H1416     1.0  0.38599  0.50716  0.16908  1.0000
  C   C1749     1.0  0.65512  0.68227  0.07635  1.0000
  H   H1417     1.0  0.47517  0.52430  0.24207  1.0000
  C   C1750     1.0  0.63969  0.99895  0.06270  1.0000
  C   C1751     1.0  0.65461  0.85578  0.07469  1.0000
  P   P57       1.0  0.45105  0.74231  0.23736  1.0000
  C   C1752     1.0  0.41508  0.66214  0.24076  1.0000
  S   S244      1.0  0.38322  0.88664  0.24195  1.0000
  C   C1753     1.0  0.38949  0.76291  0.23002  1.0000
  C   C1754     1.0  0.45689  0.67222  0.23040  1.0000
  C   C1755     1.0  0.42210  0.74851  0.23943  1.0000
  H   H1418     1.0  0.43004  0.63310  0.23537  1.0000
  C   C1756     1.0  0.65323  0.52545  0.24246  1.0000
  H   H1419     1.0  0.34854  0.83209  0.29931  1.0000
  C   C1757     1.0  0.41348  0.95983  0.31662  1.0000
  C   C1758     1.0  0.60481  0.96075  0.30758  1.0000
  C   C1759     1.0  0.55626  0.51858  0.28451  1.0000
  H   H1420     1.0  0.41264  0.83170  0.27265  1.0000
  Fe  Fe124     1.0  0.55152  0.63428  0.25588  1.0000
  S   S245      1.0  0.55479  0.62188  0.27872  1.0000
  S   S246      1.0  0.51350  0.63751  0.25071  1.0000
  Fe  Fe125     1.0  0.55928  0.90765  0.25785  1.0000
  S   S247      1.0  0.54062  0.87203  0.27153  1.0000
  S   S248      1.0  0.57884  0.95003  0.26628  1.0000
  C   C1760     1.0  0.51526  0.55161  0.27628  1.0000
  S   S249      1.0  0.46532  0.84408  0.26508  1.0000
  C   C1761     1.0  0.47394  0.52879  0.26461  1.0000
  S   S250      1.0  0.57092  0.82040  0.26220  1.0000
  Fe  Fe126     1.0  0.60795  0.52278  0.34726  1.0000
  S   S251      1.0  0.63307  0.52791  0.32818  1.0000
  H   H1421     1.0  0.38004  0.84840  0.26397  1.0000
  H   H1422     1.0  0.40052  0.96106  0.30836  1.0000
  Fe  Fe127     1.0  0.64084  0.57086  0.32961  1.0000
  S   S252      1.0  0.61413  0.56562  0.34767  1.0000
  C   C1762     1.0  0.59213  0.96396  0.28309  1.0000
  H   H1423     1.0  0.34708  0.96673  0.32642  1.0000
  C   C1763     1.0  0.62898  0.58296  0.25522  1.0000
  C   C1764     1.0  0.59346  0.94868  0.29465  1.0000
  C   C1765     1.0  0.48609  0.91456  0.27798  1.0000
  H   H1424     1.0  0.58607  0.92758  0.29358  1.0000
  C   C1766     1.0  0.57891  0.61309  0.28677  1.0000
  C   C1767     1.0  0.57456  0.60181  0.30034  1.0000
  C   C1768     1.0  0.59359  0.59555  0.30742  1.0000
  C   C1769     1.0  0.61736  0.60090  0.30105  1.0000
  C   C1770     1.0  0.62164  0.61201  0.28745  1.0000
  C   C1771     1.0  0.60246  0.61791  0.28029  1.0000
  H   H1425     1.0  0.55646  0.59816  0.30546  1.0000
  H   H1426     1.0  0.59007  0.58715  0.31791  1.0000
  H   H1427     1.0  0.52679  0.56097  0.28548  1.0000
  H   H1428     1.0  0.60617  0.62682  0.26993  1.0000
  Fe  Fe128     1.0  0.55501  0.85086  0.25563  1.0000
  C   C1772     1.0  0.61128  0.94769  0.35577  1.0000
  C   C1773     1.0  0.41293  0.97074  0.32982  1.0000
  C   C1774     1.0  0.61479  0.98823  0.30925  1.0000
  C   C1775     1.0  0.44930  0.57039  0.24631  1.0000
  H   H1429     1.0  0.44444  0.62671  0.29059  1.0000
  H   H1430     1.0  0.57641  0.77224  0.26946  1.0000
  H   H1431     1.0  0.46373  0.58859  0.25025  1.0000
  H   H1432     1.0  0.59112  0.96513  0.36869  1.0000
  H   H1433     1.0  0.37472  0.91566  0.29652  1.0000
  C   C1776     1.0  0.48826  0.53851  0.27709  1.0000
  C   C1777     1.0  0.44537  0.94431  0.32552  1.0000
  C   C1778     1.0  0.38989  0.85344  0.29957  1.0000
  C   C1779     1.0  0.51323  0.54408  0.25105  1.0000
  H   H1434     1.0  0.61688  0.65115  0.32361  1.0000
  C   C1780     1.0  0.63170  0.98936  0.36772  1.0000
  P   P58       1.0  0.63854  0.54161  0.26765  1.0000
  H   H1435     1.0  0.48493  0.62883  0.27961  1.0000
  C   C1781     1.0  0.44245  0.85587  0.25865  1.0000
  C   C1782     1.0  0.41757  0.84629  0.26436  1.0000
  C   C1783     1.0  0.39913  0.85570  0.25948  1.0000
  Fe  Fe129     1.0  0.34102  0.87115  0.24754  1.0000
  H   H1436     1.0  0.52567  0.95909  0.30125  1.0000
  H   H1437     1.0  0.39401  0.83599  0.30033  1.0000
  C   C1784     1.0  0.36190  0.97610  0.29165  1.0000
  C   C1785     1.0  0.48643  0.53129  0.25170  1.0000
  H   H1438     1.0  0.42509  0.56401  0.26456  1.0000
  H   H1439     1.0  0.37416  0.99084  0.28448  1.0000
  H   H1440     1.0  0.46770  0.88202  0.24339  1.0000
  H   H1441     1.0  0.34518  0.94716  0.27514  1.0000
  C   C1786     1.0  0.43057  0.94755  0.31416  1.0000
  C   C1787     1.0  0.62016  0.64910  0.35404  1.0000
  P   P59       1.0  0.43070  0.93304  0.29711  1.0000
  C   C1788     1.0  0.56618  0.76915  0.25944  1.0000
  H   H1442     1.0  0.62843  0.71506  0.29523  1.0000
  C   C1789     1.0  0.41052  0.93803  0.27071  1.0000
  H   H1443     1.0  0.53369  0.51249  0.32101  1.0000
  C   C1790     1.0  0.34648  0.96272  0.31523  1.0000
  H   H1444     1.0  0.48471  0.96243  0.30726  1.0000
  C   C1791     1.0  0.44510  0.95562  0.33867  1.0000
  C   C1792     1.0  0.60248  0.53636  0.28860  1.0000
  H   H1445     1.0  0.54334  0.50522  0.26338  1.0000
  C   C1793     1.0  0.37849  0.76021  0.24337  1.0000
  C   C1794     1.0  0.44873  0.87472  0.24796  1.0000
  H   H1446     1.0  0.32613  0.98594  0.36039  1.0000
  C   C1795     1.0  0.63201  0.70802  0.30542  1.0000
  H   H1447     1.0  0.60594  0.94866  0.31635  1.0000
  H   H1448     1.0  0.41640  0.58641  0.30322  1.0000
  H   H1449     1.0  0.64285  0.63135  0.36521  1.0000
  H   H1450     1.0  0.47612  0.97586  0.26447  1.0000
  S   S253      1.0  0.64268  0.59501  0.30975  1.0000
  C   C1796     1.0  0.44101  0.56582  0.29931  1.0000
  C   C1797     1.0  0.49558  0.98534  0.26872  1.0000
  H   H1451     1.0  0.57484  0.53433  0.30445  1.0000
  H   H1452     1.0  0.45712  0.93307  0.32427  1.0000
  C   C1798     1.0  0.44985  0.61006  0.29131  1.0000
  C   C1799     1.0  0.55988  0.51365  0.27044  1.0000
  C   C1800     1.0  0.59502  0.64737  0.35114  1.0000
  H   H1453     1.0  0.45719  0.95382  0.34727  1.0000
  C   C1801     1.0  0.57725  0.60705  0.36458  1.0000
  C   C1802     1.0  0.63627  0.60738  0.24860  1.0000
  H   H1454     1.0  0.59413  0.93045  0.35324  1.0000
  C   C1803     1.0  0.57364  0.62621  0.35623  1.0000
  H   H1455     1.0  0.33310  0.90298  0.34632  1.0000
  H   H1456     1.0  0.63602  0.93490  0.34379  1.0000
  C   C1804     1.0  0.64094  0.68970  0.33186  1.0000
  C   C1805     1.0  0.64776  0.57354  0.25946  1.0000
  H   H1457     1.0  0.59190  0.66249  0.34508  1.0000
  C   C1806     1.0  0.50873  0.92994  0.28522  1.0000
  H   H1458     1.0  0.61869  0.54550  0.29575  1.0000
  C   C1807     1.0  0.52764  0.55430  0.26333  1.0000
  Fe  Fe130     1.0  0.64905  0.57277  0.36167  1.0000
  H   H1459     1.0  0.49716  0.59110  0.28089  1.0000
  C   C1808     1.0  0.46255  0.91570  0.28155  1.0000
  C   C1809     1.0  0.60632  0.53140  0.27448  1.0000
  C   C1810     1.0  0.40501  0.90084  0.29777  1.0000
  H   H1460     1.0  0.55431  0.62492  0.35391  1.0000
  H   H1461     1.0  0.50096  0.50719  0.30209  1.0000
  P   P60       1.0  0.64774  0.67735  0.34845  1.0000
  H   H1462     1.0  0.58738  0.51697  0.25435  1.0000
  H   H1463     1.0  0.42985  0.87945  0.29977  1.0000
  C   C1811     1.0  0.50651  0.52376  0.30921  1.0000
  H   H1464     1.0  0.42139  0.51954  0.27945  1.0000
  C   C1812     1.0  0.53231  0.54801  0.32908  1.0000
  H   H1465     1.0  0.33922  0.87218  0.29770  1.0000
  C   C1813     1.0  0.62529  0.67208  0.32161  1.0000
  C   C1814     1.0  0.64832  0.72557  0.31536  1.0000
  C   C1815     1.0  0.44327  0.50878  0.29545  1.0000
  C   C1816     1.0  0.32970  0.93807  0.30984  1.0000
  H   H1466     1.0  0.53700  0.51375  0.28833  1.0000
  S   S254      1.0  0.52366  0.89915  0.24397  1.0000
  H   H1467     1.0  0.40002  0.98062  0.33148  1.0000
  C   C1817     1.0  0.42135  0.50484  0.28702  1.0000
  H   H1468     1.0  0.64478  0.75259  0.37534  1.0000
  H   H1469     1.0  0.40525  0.91714  0.26944  1.0000
  H   H1470     1.0  0.60870  0.57178  0.25707  1.0000
  C   C1818     1.0  0.65545  0.99245  0.36203  1.0000
  C   C1819     1.0  0.63871  0.51764  0.25483  1.0000
  H   H1471     1.0  0.64002  0.61637  0.28247  1.0000
  H   H1472     1.0  0.42855  0.54846  0.30489  1.0000
  S   S255      1.0  0.65520  0.59544  0.38255  1.0000
  C   C1820     1.0  0.60190  0.99143  0.28481  1.0000
  C   C1821     1.0  0.50255  0.56341  0.31712  1.0000
  H   H1473     1.0  0.38081  0.74979  0.26514  1.0000
  C   C1822     1.0  0.55073  0.99813  0.34149  1.0000
  C   C1823     1.0  0.42318  0.95108  0.28303  1.0000
  C   C1824     1.0  0.35903  0.87376  0.29807  1.0000
  C   C1825     1.0  0.64588  0.71988  0.36356  1.0000
  Fe  Fe131     1.0  0.50627  0.86261  0.25694  1.0000
  H   H1474     1.0  0.36916  0.93721  0.35936  1.0000
  H   H1475     1.0  0.54677  0.55033  0.33725  1.0000
  C   C1826     1.0  0.43039  0.88416  0.24312  1.0000
  C   C1827     1.0  0.46142  0.93205  0.29258  1.0000
  S   S256      1.0  0.64109  0.52963  0.36260  1.0000
  H   H1476     1.0  0.41896  0.73927  0.26176  1.0000
  C   C1828     1.0  0.34545  0.95128  0.28630  1.0000
  C   C1829     1.0  0.62066  0.68125  0.30851  1.0000
  H   H1477     1.0  0.56078  0.59076  0.36867  1.0000
  H   H1478     1.0  0.40558  0.69494  0.24560  1.0000
  C   C1830     1.0  0.47259  0.61124  0.28509  1.0000
  C   C1831     1.0  0.60222  0.60911  0.36784  1.0000
  H   H1479     1.0  0.40507  0.98920  0.25303  1.0000
  H   H1480     1.0  0.54833  0.56539  0.26279  1.0000
  H   H1481     1.0  0.48685  0.90170  0.26961  1.0000
  H   H1482     1.0  0.45311  0.51981  0.26461  1.0000
  C   C1832     1.0  0.50422  0.75483  0.26955  1.0000
  C   C1833     1.0  0.50632  0.77890  0.27504  1.0000
  C   C1834     1.0  0.49096  0.79127  0.26950  1.0000
  C   C1835     1.0  0.47373  0.77978  0.25834  1.0000
  C   C1836     1.0  0.47160  0.75563  0.25267  1.0000
  C   C1837     1.0  0.48715  0.74333  0.25832  1.0000
  H   H1483     1.0  0.34141  0.81181  0.24746  1.0000
  C   C1838     1.0  0.60956  0.96717  0.36446  1.0000
  H   H1484     1.0  0.44524  0.90368  0.27574  1.0000
  C   C1839     1.0  0.47946  0.58967  0.28584  1.0000
  C   C1840     1.0  0.42743  0.55641  0.25441  1.0000
  C   C1841     1.0  0.65137  0.73671  0.37523  1.0000
  C   C1842     1.0  0.40408  0.95178  0.25993  1.0000
  C   C1843     1.0  0.43000  0.97821  0.28419  1.0000
  H   H1485     1.0  0.65551  0.50215  0.28054  1.0000
  H   H1486     1.0  0.49443  0.57807  0.31614  1.0000
  C   C1844     1.0  0.55704  0.74416  0.25300  1.0000
  H   H1487     1.0  0.64829  0.93822  0.30065  1.0000
  H   H1488     1.0  0.36192  0.76509  0.24495  1.0000
  C   C1845     1.0  0.52496  0.52668  0.31985  1.0000
  H   H1489     1.0  0.51195  0.96716  0.25381  1.0000
  C   C1846     1.0  0.36231  0.98216  0.30611  1.0000
  C   C1847     1.0  0.38912  0.75156  0.25474  1.0000
  C   C1848     1.0  0.37926  0.89845  0.29740  1.0000
  P   P61       1.0  0.47221  0.53859  0.29350  1.0000
  H   H1490     1.0  0.51658  0.74556  0.27364  1.0000
  H   H1491     1.0  0.52042  0.78836  0.28330  1.0000
  H   H1492     1.0  0.49293  0.81018  0.27362  1.0000
  H   H1493     1.0  0.39711  0.64781  0.24477  1.0000
  H   H1494     1.0  0.48680  0.72524  0.25395  1.0000
  H   H1495     1.0  0.46263  0.79019  0.25394  1.0000
  S   S257      1.0  0.38124  0.51589  0.25976  1.0000
  H   H1496     1.0  0.60845  0.66751  0.30069  1.0000
  H   H1497     1.0  0.65250  0.63486  0.33242  1.0000
  C   C1849     1.0  0.48451  0.94829  0.29941  1.0000
  H   H1498     1.0  0.60508  0.59450  0.37451  1.0000
  C   C1850     1.0  0.65469  0.69950  0.36332  1.0000
  C   C1851     1.0  0.49505  0.54200  0.30780  1.0000
  C   C1852     1.0  0.50794  0.94684  0.29589  1.0000
  H   H1499     1.0  0.52706  0.58306  0.33477  1.0000
  C   C1853     1.0  0.40860  0.53266  0.24943  1.0000
  C   C1854     1.0  0.41076  0.74564  0.25278  1.0000
  C   C1855     1.0  0.46358  0.56666  0.29283  1.0000
  C   C1856     1.0  0.62362  0.62996  0.36252  1.0000
  H   H1500     1.0  0.52699  0.92911  0.28238  1.0000
  C   C1857     1.0  0.56128  0.78988  0.25325  1.0000
  C   C1858     1.0  0.43410  0.58738  0.29845  1.0000
  C   C1859     1.0  0.57753  0.53000  0.29358  1.0000
  C   C1860     1.0  0.36430  0.85123  0.29902  1.0000
  H   H1501     1.0  0.56019  0.72815  0.25808  1.0000
  C   C1861     1.0  0.41021  0.87818  0.29911  1.0000
  C   C1862     1.0  0.52111  0.56636  0.32772  1.0000
  H   H1502     1.0  0.42906  0.97814  0.35089  1.0000
  H   H1503     1.0  0.39383  0.94139  0.25058  1.0000
  C   C1863     1.0  0.40559  0.87470  0.24884  1.0000
  H   H1504     1.0  0.36498  0.97804  0.36684  1.0000
  H   H1505     1.0  0.64576  0.99879  0.45291  1.0000
  H   H1506     1.0  0.33244  0.99548  0.41050  1.0000
  C   C1864     1.0  0.58482  0.52019  0.26539  1.0000
  C   C1865     1.0  0.41048  0.97869  0.26130  1.0000
  C   C1866     1.0  0.42358  0.99193  0.27340  1.0000
  C   C1867     1.0  0.63512  0.95049  0.35027  1.0000
  S   S258      1.0  0.57516  0.67125  0.24388  1.0000
  C   C1868     1.0  0.32885  0.93224  0.29534  1.0000
  C   C1869     1.0  0.56012  0.99469  0.32843  1.0000
  H   H1507     1.0  0.55641  0.98899  0.26341  1.0000
  C   C1870     1.0  0.51572  0.98050  0.26267  1.0000
  H   H1508     1.0  0.55607  0.99034  0.35097  1.0000
  C   C1871     1.0  0.54078  0.99271  0.26814  1.0000
  H   H1509     1.0  0.65517  0.96707  0.32122  1.0000
  C   C1872     1.0  0.35178  0.94027  0.35675  1.0000
  C   C1873     1.0  0.34959  0.96344  0.36080  1.0000
  C   C1874     1.0  0.42912  0.96913  0.34076  1.0000
  H   H1510     1.0  0.43988  0.98873  0.29352  1.0000
  H   H1511     1.0  0.63458  0.72267  0.35485  1.0000
  H   H1512     1.0  0.62171  0.61457  0.24533  1.0000
  H   H1513     1.0  0.57277  0.98426  0.32782  1.0000
  S   S259      1.0  0.32604  0.90306  0.24813  1.0000
  C   C1875     1.0  0.65304  0.71643  0.32848  1.0000
  C   C1876     1.0  0.32743  0.96777  0.35722  1.0000
  C   C1877     1.0  0.33145  0.92099  0.34947  1.0000
  C   C1878     1.0  0.65734  0.97322  0.35311  1.0000
  S   S260      1.0  0.57643  0.88716  0.24279  1.0000
  H   H1514     1.0  0.65753  0.74625  0.31281  1.0000
  C   C1879     1.0  0.55510  0.56680  0.71247  1.0000
  P   P62       1.0  0.33410  0.85772  0.62745  1.0000
  Fe  Fe132     1.0  0.34056  0.88001  0.68277  1.0000
  H   H1515     1.0  0.62959  0.96437  0.61945  1.0000
  S   S261      1.0  0.37221  0.86367  0.68120  1.0000
  C   C1880     1.0  0.41343  0.97118  0.69604  1.0000
  S   S262      1.0  0.34434  0.92177  0.68474  1.0000
  C   C1881     1.0  0.37034  0.85897  0.60745  1.0000
  Fe  Fe133     1.0  0.53186  0.90394  0.68025  1.0000
  S   S263      1.0  0.54558  0.88596  0.69851  1.0000
  S   S264      1.0  0.49623  0.91482  0.67975  1.0000
  Fe  Fe134     1.0  0.58513  0.92169  0.66568  1.0000
  S   S265      1.0  0.60173  0.90566  0.68317  1.0000
  S   S266      1.0  0.60522  0.94058  0.64516  1.0000
  Fe  Fe135     1.0  0.56426  0.86988  0.68200  1.0000
  S   S267      1.0  0.57496  0.83385  0.68171  1.0000
  Fe  Fe136     1.0  0.58204  0.92292  0.69825  1.0000
  S   S268      1.0  0.59820  0.94055  0.72004  1.0000
  S   S269      1.0  0.54827  0.88552  0.66373  1.0000
  S   S270      1.0  0.56784  0.94141  0.68079  1.0000
  Fe  Fe137     1.0  0.59004  0.66621  0.66122  1.0000
  S   S271      1.0  0.59508  0.69080  0.68080  1.0000
  S   S272      1.0  0.61052  0.68410  0.64051  1.0000
  Fe  Fe138     1.0  0.54089  0.62084  0.67304  1.0000
  S   S273      1.0  0.54264  0.64342  0.69296  1.0000
  S   S274      1.0  0.51370  0.57782  0.66808  1.0000
  Fe  Fe139     1.0  0.55230  0.67969  0.67934  1.0000
  S   S275      1.0  0.53172  0.70809  0.68099  1.0000
  Fe  Fe140     1.0  0.58541  0.65275  0.69294  1.0000
  S   S276      1.0  0.60333  0.65150  0.71471  1.0000
  S   S277      1.0  0.54722  0.65626  0.65936  1.0000
  S   S278      1.0  0.58361  0.62895  0.67342  1.0000
  C   C1882     1.0  0.56211  0.79884  0.68098  1.0000
  C   C1883     1.0  0.57941  0.78622  0.68156  1.0000
  C   C1884     1.0  0.57049  0.75860  0.68149  1.0000
  C   C1885     1.0  0.54406  0.74310  0.68060  1.0000
  C   C1886     1.0  0.52671  0.75569  0.67986  1.0000
  C   C1887     1.0  0.53563  0.78337  0.68012  1.0000
  H   H1516     1.0  0.59988  0.79794  0.68230  1.0000
  H   H1517     1.0  0.58396  0.74921  0.68238  1.0000
  H   H1518     1.0  0.50619  0.74396  0.67927  1.0000
  H   H1519     1.0  0.52200  0.79267  0.67972  1.0000
  C   C1888     1.0  0.35596  0.89271  0.74151  1.0000
  C   C1889     1.0  0.53022  0.77895  0.72696  1.0000
  C   C1890     1.0  0.47338  0.52902  0.66621  1.0000
  C   C1891     1.0  0.48148  0.55475  0.67155  1.0000
  C   C1892     1.0  0.41916  0.52095  0.63939  1.0000
  C   C1893     1.0  0.43829  0.54253  0.68115  1.0000
  H   H1520     1.0  0.37854  0.88007  0.60889  1.0000
  H   H1521     1.0  0.48680  0.52362  0.66030  1.0000
  H   H1522     1.0  0.54035  0.56606  0.69131  1.0000
  H   H1523     1.0  0.46957  0.58082  0.68347  1.0000
  C   C1894     1.0  0.40671  0.87844  0.68137  1.0000
  C   C1895     1.0  0.42054  0.86218  0.68063  1.0000
  C   C1896     1.0  0.44783  0.87282  0.68029  1.0000
  C   C1897     1.0  0.46174  0.90001  0.68048  1.0000
  C   C1898     1.0  0.44790  0.91630  0.68125  1.0000
  C   C1899     1.0  0.42064  0.90563  0.68191  1.0000
  H   H1524     1.0  0.41005  0.84113  0.68026  1.0000
  H   H1525     1.0  0.45806  0.85998  0.67970  1.0000
  H   H1526     1.0  0.45835  0.93736  0.68143  1.0000
  H   H1527     1.0  0.41037  0.91843  0.68256  1.0000
  H   H1528     1.0  0.44033  0.50975  0.62385  1.0000
  C   C1900     1.0  0.43841  0.52595  0.62933  1.0000
  C   C1901     1.0  0.61640  0.50976  0.73466  1.0000
  C   C1902     1.0  0.64083  0.59781  0.73396  1.0000
  C   C1903     1.0  0.65565  0.93812  0.70148  1.0000
  H   H1529     1.0  0.64049  0.83838  0.56034  1.0000
  C   C1904     1.0  0.61651  0.62945  0.72180  1.0000
  C   C1905     1.0  0.62455  0.61374  0.71320  1.0000
  C   C1906     1.0  0.63683  0.59824  0.71924  1.0000
  H   H1530     1.0  0.64605  0.97178  0.70077  1.0000
  C   C1907     1.0  0.63903  0.63564  0.57385  1.0000
  H   H1531     1.0  0.62201  0.61412  0.70187  1.0000
  C   C1908     1.0  0.43776  0.98726  0.69102  1.0000
  C   C1909     1.0  0.52734  0.52726  0.70030  1.0000
  C   C1910     1.0  0.61312  0.97340  0.72666  1.0000
  H   H1532     1.0  0.40412  0.89095  0.71311  1.0000
  H   H1533     1.0  0.59867  0.53649  0.73950  1.0000
  C   C1911     1.0  0.62782  0.74848  0.70232  1.0000
  C   C1912     1.0  0.64211  0.69386  0.63349  1.0000
  H   H1534     1.0  0.33867  0.90990  0.63728  1.0000
  H   H1535     1.0  0.65058  0.73360  0.65410  1.0000
  H   H1536     1.0  0.63275  0.71209  0.61529  1.0000
  H   H1537     1.0  0.58990  0.80188  0.63558  1.0000
  H   H1538     1.0  0.65141  0.93570  0.65759  1.0000
  C   C1913     1.0  0.63729  0.94900  0.63915  1.0000
  C   C1914     1.0  0.63262  0.77077  0.64443  1.0000
  H   H1539     1.0  0.59674  0.87902  0.64742  1.0000
  C   C1915     1.0  0.43009  0.51686  0.67569  1.0000
  H   H1540     1.0  0.63698  0.86841  0.57849  1.0000
  C   C1916     1.0  0.60259  0.86638  0.64087  1.0000
  C   C1917     1.0  0.63793  0.94184  0.58533  1.0000
  C   C1918     1.0  0.62145  0.87736  0.63064  1.0000
  H   H1541     1.0  0.62803  0.66742  0.56794  1.0000
  C   C1919     1.0  0.60798  0.86924  0.72976  1.0000
  H   H1542     1.0  0.63436  0.95727  0.57982  1.0000
  P   P63       1.0  0.54297  0.50557  0.73972  1.0000
  C   C1920     1.0  0.39099  0.89146  0.72125  1.0000
  C   C1921     1.0  0.54276  0.95884  0.72289  1.0000
  C   C1922     1.0  0.33816  0.81582  0.61291  1.0000
  H   H1543     1.0  0.56513  0.72599  0.62923  1.0000
  H   H1544     1.0  0.49320  0.87659  0.73102  1.0000
  C   C1923     1.0  0.60353  0.75372  0.62434  1.0000
  H   H1545     1.0  0.63846  0.74090  0.69548  1.0000
  C   C1924     1.0  0.62007  0.62863  0.73653  1.0000
  C   C1925     1.0  0.64764  0.70760  0.62059  1.0000
  C   C1926     1.0  0.54132  0.52467  0.72448  1.0000
  H   H1546     1.0  0.49242  0.77948  0.72414  1.0000
  C   C1927     1.0  0.46376  0.56127  0.67918  1.0000
  H   H1547     1.0  0.39865  0.86011  0.59213  1.0000
  H   H1548     1.0  0.46380  0.92660  0.70899  1.0000
  C   C1928     1.0  0.39878  0.91153  0.73141  1.0000
  P   P64       1.0  0.65319  0.87598  0.60864  1.0000
  S   S279      1.0  0.65856  0.57975  0.74082  1.0000
  H   H1549     1.0  0.36000  0.85697  0.71323  1.0000
  C   C1929     1.0  0.41662  0.54176  0.64649  1.0000
  H   H1550     1.0  0.64295  0.78071  0.62254  1.0000
  C   C1930     1.0  0.54798  0.97969  0.73229  1.0000
  C   C1931     1.0  0.45524  0.55178  0.62644  1.0000
  C   C1932     1.0  0.45339  0.57276  0.63390  1.0000
  C   C1933     1.0  0.43357  0.56757  0.64375  1.0000
  P   P65       1.0  0.47406  0.60610  0.62942  1.0000
  C   C1934     1.0  0.47395  0.62840  0.64318  1.0000
  C   C1935     1.0  0.50764  0.61130  0.62810  1.0000
  C   C1936     1.0  0.51673  0.59287  0.63347  1.0000
  C   C1937     1.0  0.54318  0.59840  0.63369  1.0000
  C   C1938     1.0  0.56075  0.62235  0.62855  1.0000
  C   C1939     1.0  0.55186  0.64080  0.62317  1.0000
  C   C1940     1.0  0.52544  0.63542  0.62305  1.0000
  C   C1941     1.0  0.47161  0.65211  0.63998  1.0000
  C   C1942     1.0  0.47273  0.66963  0.65080  1.0000
  C   C1943     1.0  0.47648  0.66373  0.66481  1.0000
  C   C1944     1.0  0.47940  0.64045  0.66802  1.0000
  C   C1945     1.0  0.47828  0.62293  0.65724  1.0000
  C   C1946     1.0  0.46114  0.61286  0.61306  1.0000
  C   C1947     1.0  0.47422  0.61498  0.60030  1.0000
  C   C1948     1.0  0.46351  0.61947  0.58764  1.0000
  C   C1949     1.0  0.43957  0.62151  0.58760  1.0000
  C   C1950     1.0  0.42623  0.61890  0.60023  1.0000
  C   C1951     1.0  0.43689  0.61442  0.61290  1.0000
  H   H1551     1.0  0.38031  0.81189  0.58854  1.0000
  H   H1552     1.0  0.62296  0.82094  0.61742  1.0000
  H   H1553     1.0  0.40818  0.97288  0.73957  1.0000
  H   H1554     1.0  0.46982  0.55537  0.61847  1.0000
  H   H1555     1.0  0.43112  0.58330  0.64940  1.0000
  H   H1556     1.0  0.50369  0.57474  0.63816  1.0000
  H   H1557     1.0  0.55007  0.58452  0.63845  1.0000
  H   H1558     1.0  0.58132  0.62706  0.62921  1.0000
  H   H1559     1.0  0.56567  0.65974  0.61971  1.0000
  H   H1560     1.0  0.51899  0.65042  0.61947  1.0000
  H   H1561     1.0  0.46944  0.65741  0.62918  1.0000
  H   H1562     1.0  0.47123  0.68807  0.64834  1.0000
  H   H1563     1.0  0.47786  0.67754  0.67315  1.0000
  H   H1564     1.0  0.48320  0.63629  0.67882  1.0000
  H   H1565     1.0  0.48125  0.60529  0.65981  1.0000
  H   H1566     1.0  0.49247  0.61283  0.60006  1.0000
  H   H1567     1.0  0.47367  0.62111  0.57782  1.0000
  H   H1568     1.0  0.43123  0.62483  0.57777  1.0000
  H   H1569     1.0  0.40751  0.62011  0.60018  1.0000
  H   H1570     1.0  0.42619  0.61204  0.62259  1.0000
  H   H1571     1.0  0.52892  0.94370  0.70217  1.0000
  C   C1952     1.0  0.64649  0.83691  0.57113  1.0000
  C   C1953     1.0  0.63002  0.77435  0.70089  1.0000
  C   C1954     1.0  0.45792  0.97217  0.70990  1.0000
  P   P66       1.0  0.43108  0.93653  0.73071  1.0000
  C   C1955     1.0  0.34839  0.87278  0.73138  1.0000
  C   C1956     1.0  0.65671  0.81839  0.57460  1.0000
  C   C1957     1.0  0.58834  0.74000  0.64801  1.0000
  C   C1958     1.0  0.45163  0.91839  0.73075  1.0000
  H   H1572     1.0  0.65550  0.60805  0.57964  1.0000
  C   C1959     1.0  0.58382  0.73881  0.63344  1.0000
  C   C1960     1.0  0.55567  0.55196  0.72436  1.0000
  C   C1961     1.0  0.48007  0.90187  0.71883  1.0000
  C   C1962     1.0  0.61764  0.83392  0.62389  1.0000
  H   H1573     1.0  0.50278  0.71354  0.70606  1.0000
  H   H1574     1.0  0.56594  0.58789  0.71250  1.0000
  H   H1575     1.0  0.39613  0.97094  0.69076  1.0000
  C   C1963     1.0  0.59349  0.85423  0.71847  1.0000
  H   H1576     1.0  0.59790  0.91978  0.59012  1.0000
  C   C1964     1.0  0.61263  0.75591  0.65349  1.0000
  C   C1965     1.0  0.54076  0.55449  0.70050  1.0000
  H   H1577     1.0  0.60588  0.88456  0.60258  1.0000
  H   H1578     1.0  0.51994  0.98210  0.69487  1.0000
  H   H1579     1.0  0.62997  0.89848  0.62939  1.0000
  H   H1580     1.0  0.60007  0.75246  0.61303  1.0000
  C   C1966     1.0  0.34857  0.84307  0.61508  1.0000
  C   C1967     1.0  0.62117  0.99546  0.71785  1.0000
  C   C1968     1.0  0.50455  0.76886  0.72217  1.0000
  C   C1969     1.0  0.63189  0.61273  0.74260  1.0000
  H   H1581     1.0  0.40184  0.53772  0.65442  1.0000
  C   C1970     1.0  0.59144  0.81435  0.73019  1.0000
  C   C1971     1.0  0.35624  0.90745  0.63998  1.0000
  C   C1972     1.0  0.37559  0.92764  0.64735  1.0000
  C   C1973     1.0  0.39860  0.92520  0.65111  1.0000
  C   C1974     1.0  0.40225  0.90255  0.64748  1.0000
  C   C1975     1.0  0.38280  0.88221  0.64023  1.0000
  C   C1976     1.0  0.64391  0.96052  0.62573  1.0000
  C   C1977     1.0  0.38112  0.91194  0.74163  1.0000
  H   H1582     1.0  0.57379  0.81556  0.70993  1.0000
  H   H1583     1.0  0.64362  0.58680  0.71244  1.0000
  C   C1978     1.0  0.48158  0.88817  0.73098  1.0000
  H   H1584     1.0  0.34999  0.83803  0.65335  1.0000
  H   H1585     1.0  0.57652  0.83071  0.65055  1.0000
  H   H1586     1.0  0.63916  0.97738  0.66698  1.0000
  C   C1979     1.0  0.62787  0.76969  0.62979  1.0000
  H   H1587     1.0  0.37244  0.94498  0.65032  1.0000
  H   H1588     1.0  0.41344  0.94065  0.65702  1.0000
  H   H1589     1.0  0.41989  0.90044  0.65065  1.0000
  H   H1590     1.0  0.38577  0.86455  0.63787  1.0000
  C   C1980     1.0  0.54630  0.76563  0.72415  1.0000
  C   C1981     1.0  0.62910  0.86126  0.62202  1.0000
  C   C1982     1.0  0.32936  0.82780  0.65190  1.0000
  C   C1983     1.0  0.49460  0.74523  0.71471  1.0000
  C   C1984     1.0  0.51031  0.73167  0.71206  1.0000
  C   C1985     1.0  0.53608  0.74186  0.71666  1.0000
  H   H1591     1.0  0.38581  0.50560  0.70701  1.0000
  C   C1986     1.0  0.52800  0.51231  0.71215  1.0000
  H   H1592     1.0  0.47482  0.73753  0.71084  1.0000
  H   H1593     1.0  0.53751  0.79722  0.73280  1.0000
  H   H1594     1.0  0.61596  0.75623  0.66479  1.0000
  H   H1595     1.0  0.35822  0.97196  0.70951  1.0000
  C   C1987     1.0  0.64743  0.90250  0.60017  1.0000
  C   C1988     1.0  0.35930  0.97588  0.72073  1.0000
  H   H1596     1.0  0.58432  0.72836  0.72874  1.0000
  C   C1989     1.0  0.46511  0.91684  0.71867  1.0000
  P   P67       1.0  0.57947  0.77892  0.73048  1.0000
  C   C1990     1.0  0.65275  0.85242  0.59542  1.0000
  C   C1991     1.0  0.59875  0.82297  0.63415  1.0000
  C   C1992     1.0  0.59876  0.76731  0.71952  1.0000
  C   C1993     1.0  0.58526  0.82694  0.71869  1.0000
  C   C1994     1.0  0.64121  0.82335  0.66150  1.0000
  H   H1597     1.0  0.57315  0.72814  0.65506  1.0000
  C   C1995     1.0  0.59710  0.74148  0.72106  1.0000
  H   H1598     1.0  0.47527  0.97282  0.71522  1.0000
  C   C1996     1.0  0.38173  0.84774  0.59791  1.0000
  C   C1997     1.0  0.44799  0.51018  0.66832  1.0000
  C   C1998     1.0  0.59529  0.51624  0.73724  1.0000
  C   C1999     1.0  0.61815  0.97726  0.74128  1.0000
  H   H1599     1.0  0.58842  0.86371  0.70956  1.0000
  H   H1600     1.0  0.60974  0.71195  0.71352  1.0000
  C   C2000     1.0  0.61558  0.78379  0.70948  1.0000
  C   C2001     1.0  0.61742  0.92074  0.59114  1.0000
  H   H1601     1.0  0.61930  0.62148  0.57478  1.0000
  C   C2002     1.0  0.37140  0.82058  0.59588  1.0000
  C   C2003     1.0  0.52765  0.98154  0.70537  1.0000
  H   H1602     1.0  0.56752  0.56190  0.73336  1.0000
  C   C2004     1.0  0.59117  0.83918  0.64260  1.0000
  C   C2005     1.0  0.64391  0.66152  0.57005  1.0000
  C   C2006     1.0  0.43358  0.95547  0.71481  1.0000
  H   H1603     1.0  0.42472  0.54804  0.68686  1.0000
  C   C2007     1.0  0.62208  0.90095  0.59836  1.0000
  C   C2008     1.0  0.36595  0.87210  0.72129  1.0000
  H   H1604     1.0  0.49025  0.90061  0.70942  1.0000
  H   H1605     1.0  0.54707  0.94211  0.72591  1.0000
  H   H1606     1.0  0.62271  0.80787  0.65899  1.0000
  H   H1607     1.0  0.64248  0.78693  0.69292  1.0000
  C   C2009     1.0  0.46001  0.98782  0.69798  1.0000
  H   H1608     1.0  0.61723  0.80373  0.70802  1.0000
  C   C2010     1.0  0.53264  0.95978  0.70946  1.0000
  H   H1609     1.0  0.59878  0.98206  0.66022  1.0000
  C   C2011     1.0  0.61151  0.73210  0.71246  1.0000
  C   C2012     1.0  0.35955  0.88446  0.63644  1.0000
  H   H1610     1.0  0.54783  0.73118  0.71405  1.0000
  C   C2013     1.0  0.41128  0.95545  0.70793  1.0000
  H   H1611     1.0  0.39217  0.94347  0.71172  1.0000
  H   H1612     1.0  0.62366  0.84940  0.66832  1.0000
  H   H1613     1.0  0.64031  0.92766  0.70875  1.0000
  C   C2014     1.0  0.34960  0.80465  0.60336  1.0000
  C   C2015     1.0  0.64161  0.84698  0.66679  1.0000
  H   H1614     1.0  0.32858  0.86988  0.59740  1.0000
  H   H1615     1.0  0.61396  0.89040  0.72964  1.0000
  C   C2016     1.0  0.64450  0.85391  0.58148  1.0000
  H   H1616     1.0  0.40642  0.50095  0.64190  1.0000
  C   C2017     1.0  0.65610  0.94435  0.64720  1.0000
  C   C2018     1.0  0.34352  0.95652  0.72991  1.0000
  H   H1617     1.0  0.61722  0.99302  0.70662  1.0000
  H   H1618     1.0  0.65767  0.67769  0.65013  1.0000
  C   C2019     1.0  0.61276  0.99658  0.66703  1.0000
  C   C2020     1.0  0.63575  0.99407  0.67081  1.0000
  H   H1619     1.0  0.34161  0.78359  0.60181  1.0000
  H   H1620     1.0  0.51654  0.51783  0.69089  1.0000
  H   H1621     1.0  0.63572  0.52495  0.73490  1.0000
  C   C2021     1.0  0.60628  0.82956  0.74145  1.0000
  C   C2022     1.0  0.61448  0.85691  0.74122  1.0000
  H   H1622     1.0  0.32873  0.85823  0.73115  1.0000
  H   H1623     1.0  0.55624  0.97849  0.74249  1.0000
  C   C2023     1.0  0.45251  0.90377  0.74277  1.0000
  H   H1624     1.0  0.36302  0.99085  0.76098  1.0000
  H   H1625     1.0  0.33330  0.94739  0.75172  1.0000
  C   C2024     1.0  0.53466  0.54181  0.75710  1.0000
  C   C2025     1.0  0.60363  0.56187  0.98323  1.0000
  S   S280      1.0  0.63364  0.56008  0.78098  1.0000
  H   H1626     1.0  0.62256  0.75726  0.77154  1.0000
  H   H1627     1.0  0.59042  0.59030  0.84641  1.0000
  C   C2026     1.0  0.60740  0.56379  0.81802  1.0000
  C   C2027     1.0  0.42382  0.97482  0.74689  1.0000
  C   C2028     1.0  0.36089  0.91917  0.94202  1.0000
  H   H1628     1.0  0.34944  0.87804  0.93755  1.0000
  Fe  Fe141     1.0  0.62815  0.52591  0.92487  1.0000
  H   H1629     1.0  0.61398  0.64068  0.74331  1.0000
  S   S281      1.0  0.63513  0.56057  0.91058  1.0000
  C   C2029     1.0  0.64208  0.60901  0.97433  1.0000
  H   H1630     1.0  0.61080  0.90075  0.88842  1.0000
  H   H1631     1.0  0.53653  0.51372  0.82669  1.0000
  H   H1632     1.0  0.56214  0.95759  0.88172  1.0000
  H   H1633     1.0  0.52231  0.54382  0.74870  1.0000
  H   H1634     1.0  0.34512  0.92057  0.93587  1.0000
  C   C2030     1.0  0.60008  0.95668  0.88397  1.0000
  C   C2031     1.0  0.58273  0.54929  0.84391  1.0000
  H   H1635     1.0  0.44133  0.90373  0.75198  1.0000
  C   C2032     1.0  0.53756  0.55616  0.76957  1.0000
  H   H1636     1.0  0.53870  0.90982  0.88467  1.0000
  C   C2033     1.0  0.35456  0.97106  0.97518  1.0000
  H   H1637     1.0  0.61294  0.60319  0.82351  1.0000
  C   C2034     1.0  0.60482  0.58280  0.82672  1.0000
  C   C2035     1.0  0.55892  0.75996  0.75697  1.0000
  C   C2036     1.0  0.58303  0.75030  0.77601  1.0000
  C   C2037     1.0  0.37872  0.94130  0.94901  1.0000
  C   C2038     1.0  0.36207  0.98695  0.74977  1.0000
  H   H1638     1.0  0.62764  0.97589  0.90983  1.0000
  C   C2039     1.0  0.63345  0.58723  0.96537  1.0000
  C   C2040     1.0  0.59234  0.57553  0.83964  1.0000
  H   H1639     1.0  0.37613  0.96817  0.89604  1.0000
  C   C2041     1.0  0.57324  0.90228  0.88689  1.0000
  C   C2042     1.0  0.62551  0.99553  0.86285  1.0000
  H   H1640     1.0  0.58389  0.74343  0.78667  1.0000
  H   H1641     1.0  0.41149  0.95523  0.96349  1.0000
  C   C2043     1.0  0.39819  0.93870  0.95751  1.0000
  H   H1642     1.0  0.38508  0.95613  0.92012  1.0000
  C   C2044     1.0  0.58062  0.76746  0.74827  1.0000
  C   C2045     1.0  0.45128  0.99521  0.82378  1.0000
  C   C2046     1.0  0.60368  0.76677  0.75369  1.0000
  C   C2047     1.0  0.60023  0.91325  0.88710  1.0000
  H   H1643     1.0  0.61737  0.56960  0.80812  1.0000
  C   C2048     1.0  0.61419  0.56366  0.96979  1.0000
  C   C2049     1.0  0.35516  0.99670  0.92854  1.0000
  C   C2050     1.0  0.55291  0.55333  0.78066  1.0000
  H   H1644     1.0  0.58741  0.99180  0.85594  1.0000
  C   C2051     1.0  0.60481  0.75809  0.76748  1.0000
  C   C2052     1.0  0.55963  0.91837  0.88499  1.0000
  H   H1645     1.0  0.62570  0.86860  0.74997  1.0000
  C   C2053     1.0  0.44986  0.99626  0.76732  1.0000
  H   H1646     1.0  0.54099  0.76056  0.75313  1.0000
  S   S282      1.0  0.65687  0.52308  0.76369  1.0000
  C   C2054     1.0  0.36694  0.97892  0.93062  1.0000
  C   C2055     1.0  0.57298  0.94547  0.88341  1.0000
  H   H1647     1.0  0.57283  0.54407  0.85388  1.0000
  H   H1648     1.0  0.61205  0.96044  0.74824  1.0000
  H   H1649     1.0  0.42612  0.97763  0.84117  1.0000
  C   C2056     1.0  0.42954  0.99303  0.75791  1.0000
  C   C2057     1.0  0.63665  0.68556  0.96831  1.0000
  H   H1650     1.0  0.60108  0.52337  0.81553  1.0000
  H   H1651     1.0  0.56288  0.88128  0.88810  1.0000
  C   C2058     1.0  0.46446  0.98118  0.76575  1.0000
  C   C2059     1.0  0.33494  0.96836  0.98473  1.0000
  H   H1652     1.0  0.60759  0.52562  0.86429  1.0000
  C   C2060     1.0  0.40452  0.99908  0.95249  1.0000
  H   H1653     1.0  0.61137  0.82044  0.75047  1.0000
  H   H1654     1.0  0.58879  0.54354  0.98666  1.0000
  H   H1655     1.0  0.62362  0.68459  0.95960  1.0000
  C   C2061     1.0  0.34528  0.96219  0.74448  1.0000
  C   C2062     1.0  0.61363  0.94033  0.88552  1.0000
  H   H1656     1.0  0.47128  0.95250  0.75342  1.0000
  H   H1657     1.0  0.52783  0.56941  0.77065  1.0000
  H   H1658     1.0  0.61505  0.64582  0.97478  1.0000
  C   C2063     1.0  0.59834  0.53763  0.82236  1.0000
  C   C2064     1.0  0.65834  0.70866  0.97085  1.0000
  P   P68       1.0  0.37461  0.97186  0.94833  1.0000
  C   C2065     1.0  0.63192  0.66359  0.97690  1.0000
  H   H1659     1.0  0.62077  0.77281  0.74724  1.0000
  H   H1660     1.0  0.37395  0.97558  0.97916  1.0000
  Fe  Fe142     1.0  0.63087  0.51863  0.78198  1.0000
  C   C2066     1.0  0.58620  0.53023  0.83544  1.0000
  H   H1661     1.0  0.57253  0.50884  0.76580  1.0000
  C   C2067     1.0  0.40047  0.91454  0.95850  1.0000
  H   H1662     1.0  0.48017  0.98371  0.77309  1.0000
  S   S283      1.0  0.65345  0.51138  0.91259  1.0000
  C   C2068     1.0  0.58809  0.50857  0.88336  1.0000
  C   C2069     1.0  0.59022  0.51091  0.86870  1.0000
  C   C2070     1.0  0.44328  0.99392  0.83775  1.0000
  C   C2071     1.0  0.38305  0.89274  0.95121  1.0000
  H   H1663     1.0  0.63456  0.94855  0.88551  1.0000
  C   C2072     1.0  0.64901  0.66452  0.98805  1.0000
  C   C2073     1.0  0.34921  0.96842  0.96060  1.0000
  C   C2074     1.0  0.56531  0.53612  0.77927  1.0000
  C   C2075     1.0  0.61217  0.58373  0.99222  1.0000
  C   C2076     1.0  0.36978  0.97560  0.90516  1.0000
  H   H1664     1.0  0.60753  0.54681  0.96277  1.0000
  C   C2077     1.0  0.35728  0.99269  0.90321  1.0000
  H   H1665     1.0  0.57689  0.53355  0.78793  1.0000
  C   C2078     1.0  0.45900  0.96312  0.75467  1.0000
  C   C2079     1.0  0.36320  0.89503  0.94302  1.0000
  H   H1666     1.0  0.55518  0.56437  0.79035  1.0000
  H   H1667     1.0  0.54325  0.74528  0.77739  1.0000
  H   H1668     1.0  0.64174  0.58874  0.95496  1.0000
  H   H1669     1.0  0.58789  0.98842  0.90678  1.0000
  H   H1670     1.0  0.41560  0.91267  0.96503  1.0000
  H   H1671     1.0  0.42733  0.98604  0.93865  1.0000
  H   H1672     1.0  0.34204  0.89368  0.74902  1.0000
  C   C2080     1.0  0.60674  0.99483  0.85275  1.0000
  H   H1673     1.0  0.38474  0.87399  0.95204  1.0000
  C   C2081     1.0  0.54767  0.52502  0.75551  1.0000
  C   C2082     1.0  0.56283  0.52212  0.76671  1.0000
  H   H1674     1.0  0.63488  0.61274  0.75391  1.0000
  C   C2083     1.0  0.56013  0.75131  0.77077  1.0000
  C   C2084     1.0  0.37473  0.96879  0.91882  1.0000
  H   H1675     1.0  0.46842  0.87794  0.75227  1.0000
  C   C2085     1.0  0.64470  0.99224  0.90640  1.0000
  P   P69       1.0  0.61751  0.99140  0.88137  1.0000
  C   C2086     1.0  0.43829  0.95942  0.74528  1.0000
  H   H1676     1.0  0.35381  0.99827  0.89263  1.0000
  H   H1677     1.0  0.65716  0.62706  0.97076  1.0000
  H   H1678     1.0  0.38634  0.92712  0.74956  1.0000
  H   H1679     1.0  0.60374  0.52115  0.89008  1.0000
  S   S284      1.0  0.58617  0.50221  0.93106  1.0000
  H   H1680     1.0  0.44040  0.97993  0.81635  1.0000
  C   C2087     1.0  0.63126  0.60755  0.98773  1.0000
  C   C2088     1.0  0.61301  0.99874  0.83845  1.0000
  C   C2089     1.0  0.65003  0.99823  0.85828  1.0000
  H   H1681     1.0  0.56578  0.99807  0.79573  1.0000
  C   C2090     1.0  0.46768  0.88900  0.74294  1.0000
  H   H1682     1.0  0.93189  0.42787  0.04497  1.0000
  S   S285      1.0  0.95977  0.22761  0.02278  1.0000
  C   C2091     1.0  0.69123  0.07107  0.02162  1.0000
  Fe  Fe143     1.0  0.96381  0.18998  0.01706  1.0000
  S   S286      1.0  0.92976  0.15116  0.01037  1.0000
  Fe  Fe144     1.0  0.78725  0.02374  0.02232  1.0000
  S   S287      1.0  0.82102  0.06170  0.03006  1.0000
  C   C2092     1.0  0.86332  0.02642  0.01362  1.0000
  S   S288      1.0  0.74818  0.02509  0.01889  1.0000
  C   C2093     1.0  0.89916  0.12705  0.01603  1.0000
  C   C2094     1.0  0.88934  0.12702  0.02954  1.0000
  C   C2095     1.0  0.86545  0.10710  0.03354  1.0000
  C   C2096     1.0  0.85076  0.08689  0.02414  1.0000
  C   C2097     1.0  0.86031  0.08724  0.01053  1.0000
  C   C2098     1.0  0.88429  0.10702  0.00655  1.0000
  H   H1683     1.0  0.90035  0.14212  0.03701  1.0000
  C   C2099     1.0  0.86997  0.03014  0.99938  1.0000
  C   C2100     1.0  0.89669  0.18653  0.99285  1.0000
  C   C2101     1.0  0.98971  0.49649  0.18291  1.0000
  H   H1684     1.0  0.89458  0.16638  0.99397  1.0000
  C   C2102     1.0  0.99130  0.34957  0.05055  1.0000
  H   H1685     1.0  0.93015  0.46960  0.16712  1.0000
  H   H1686     1.0  0.77083  0.06254  0.99498  1.0000
  C   C2103     1.0  0.98271  0.31072  0.02989  1.0000
  H   H1687     1.0  0.70629  0.12506  0.02813  1.0000
  S   S289      1.0  0.78434  0.99945  0.00298  1.0000
  H   H1688     1.0  0.69665  0.05059  0.06851  1.0000
  H   H1689     1.0  0.80020  0.08736  0.05236  1.0000
  H   H1690     1.0  0.72063  0.03664  0.04627  1.0000
  C   C2104     1.0  0.93611  0.39094  0.04600  1.0000
  C   C2105     1.0  0.69299  0.14594  0.04292  1.0000
  C   C2106     1.0  0.97501  0.39166  0.05783  1.0000
  C   C2107     1.0  0.78035  0.08492  0.05044  1.0000
  H   H1691     1.0  0.96027  0.32442  0.11655  1.0000
  H   H1692     1.0  0.87028  0.04285  0.02091  1.0000
  H   H1693     1.0  0.98190  0.31733  0.06547  1.0000
  C   C2108     1.0  0.77431  0.10679  0.04827  1.0000
  H   H1694     1.0  0.78954  0.12626  0.04867  1.0000
  H   H1695     1.0  0.97309  0.45238  0.05777  1.0000
  H   H1696     1.0  0.67353  0.08409  0.06664  1.0000
  C   C2109     1.0  0.94008  0.44478  0.23602  1.0000
  C   C2110     1.0  0.66626  0.07276  0.00073  1.0000
  H   H1697     1.0  0.72428  0.06173  0.01751  1.0000
  C   C2111     1.0  0.96985  0.48091  0.17372  1.0000
  H   H1698     1.0  0.85847  0.10722  0.04411  1.0000
  C   C2112     1.0  0.98260  0.41861  0.06040  1.0000
  C   C2113     1.0  0.70381  0.06234  0.99840  1.0000
  C   C2114     1.0  0.84710  0.00163  0.01843  1.0000
  H   H1699     1.0  0.94520  0.35710  0.04856  1.0000
  C   C2115     1.0  0.74875  0.10349  0.04548  1.0000
  C   C2116     1.0  0.96392  0.49057  0.23036  1.0000
  H   H1700     1.0  0.92943  0.33302  0.10036  1.0000
  H   H1701     1.0  0.90185  0.19338  0.01523  1.0000
  C   C2117     1.0  0.94386  0.41776  0.04857  1.0000
  C   C2118     1.0  0.78025  0.12193  0.00899  1.0000
  H   H1702     1.0  0.94409  0.35488  0.07749  1.0000
  C   C2119     1.0  0.96677  0.33415  0.10652  1.0000
  C   C2120     1.0  0.94986  0.46472  0.22600  1.0000
  H   H1703     1.0  0.78494  0.13238  0.01894  1.0000
  H   H1704     1.0  0.84933  0.07204  0.00313  1.0000
  C   C2121     1.0  0.90097  0.20191  0.00500  1.0000
  H   H1705     1.0  0.91812  0.38023  0.04040  1.0000
  C   C2122     1.0  0.69736  0.12418  0.03828  1.0000
  H   H1706     1.0  0.97391  0.28355  0.04725  1.0000
  C   C2123     1.0  0.69034  0.10155  0.04670  1.0000
  H   H1707     1.0  0.88217  0.04955  0.99566  1.0000
  H   H1708     1.0  0.78266  0.08686  0.01763  1.0000
  C   C2124     1.0  0.73531  0.05638  0.04703  1.0000
  C   C2125     1.0  0.76084  0.05976  0.04987  1.0000
  C   C2126     1.0  0.72898  0.07822  0.04497  1.0000
  H   H1709     1.0  0.69839  0.16331  0.03636  1.0000
  H   H1710     1.0  0.66651  0.01061  0.08022  1.0000
  C   C2127     1.0  0.77886  0.09627  0.00827  1.0000
  H   H1711     1.0  0.76559  0.04276  0.05136  1.0000
  C   C2128     1.0  0.66215  0.01555  0.06968  1.0000
  H   H1712     1.0  0.74458  0.12067  0.04368  1.0000
  H   H1713     1.0  0.90961  0.24058  0.01327  1.0000
  C   C2129     1.0  0.68167  0.14532  0.05602  1.0000
  P   P70       1.0  0.69612  0.07357  0.04056  1.0000
  C   C2130     1.0  0.70803  0.06485  0.01300  1.0000
  H   H1714     1.0  0.92911  0.42473  0.23266  1.0000
  C   C2131     1.0  0.77594  0.13420  0.99683  1.0000
  C   C2132     1.0  0.95787  0.35152  0.08444  1.0000
  Fe  Fe145     1.0  0.98873  0.24638  0.00573  1.0000
  C   C2133     1.0  0.95158  0.37792  0.05061  1.0000
  C   C2134     1.0  0.96706  0.43156  0.05578  1.0000
  H   H1715     1.0  0.97313  0.46835  0.16598  1.0000
  H   H1716     1.0  0.94646  0.46016  0.21484  1.0000
  C   C2135     1.0  0.97944  0.30387  0.04415  1.0000
  C   C2136     1.0  0.94944  0.33904  0.09740  1.0000
  H   H1717     1.0  0.97963  0.29570  0.02195  1.0000
  C   C2137     1.0  0.90536  0.22843  0.00389  1.0000
  H   H1718     1.0  0.67828  0.16219  0.05962  1.0000
  C   C2138     1.0  0.94532  0.48154  0.17433  1.0000
  C   C2139     1.0  0.67474  0.12295  0.06449  1.0000
  C   C2140     1.0  0.98399  0.32319  0.05448  1.0000
  H   H1719     1.0  0.89146  0.10677  0.99605  1.0000
  C   C2141     1.0  0.67033  0.07512  0.01537  1.0000
  C   C2142     1.0  0.77234  0.08260  0.99550  1.0000
  H   H1720     1.0  0.77701  0.15407  0.99757  1.0000
  C   C2143     1.0  0.98381  0.35941  0.08058  1.0000
  C   C2144     1.0  0.94043  0.49778  0.18407  1.0000
  C   C2145     1.0  0.67925  0.03806  0.06294  1.0000
  C   C2146     1.0  0.67906  0.10114  0.05988  1.0000
  C   C2147     1.0  0.67403  0.04414  0.04911  1.0000
  C   C2148     1.0  0.99004  0.33690  0.02587  1.0000
  Fe  Fe146     1.0  0.74473  0.00017  0.99971  1.0000
  H   H1721     1.0  0.66599  0.12248  0.07466  1.0000
  H   H1722     1.0  0.92149  0.49848  0.18440  1.0000
  H   H1723     1.0  0.70393  0.08071  0.41669  1.0000
  Fe  Fe147     1.0  0.89527  0.31619  0.32684  1.0000
  S   S290      1.0  0.91556  0.33275  0.34722  1.0000
  S   S291      1.0  0.91728  0.33962  0.30767  1.0000
  Fe  Fe148     1.0  0.84593  0.27849  0.34267  1.0000
  S   S292      1.0  0.86431  0.29455  0.36384  1.0000
  S   S293      1.0  0.80357  0.24814  0.34469  1.0000
  Fe  Fe149     1.0  0.87838  0.33486  0.35374  1.0000
  S   S294      1.0  0.88068  0.37215  0.36515  1.0000
  Fe  Fe150     1.0  0.89966  0.29119  0.35520  1.0000
  S   S295      1.0  0.92457  0.27159  0.36516  1.0000
  S   S296      1.0  0.85794  0.31936  0.33318  1.0000
  S   S297      1.0  0.88137  0.27403  0.33425  1.0000
  Fe  Fe151     1.0  0.68351  0.09914  0.34359  1.0000
  C   C2149     1.0  0.90374  0.10590  0.39071  1.0000
  S   S298      1.0  0.72550  0.12661  0.33781  1.0000
  H   H1724     1.0  0.69187  0.48088  0.36526  1.0000
  C   C2150     1.0  0.68684  0.02068  0.45478  1.0000
  S   S299      1.0  0.67963  0.05839  0.34981  1.0000
  Fe  Fe152     1.0  0.96880  0.19409  0.46400  1.0000
  C   C2151     1.0  0.83416  0.11010  0.49159  1.0000
  Fe  Fe153     1.0  0.95568  0.21763  0.43674  1.0000
  C   C2152     1.0  0.72462  0.02836  0.35061  1.0000
  S   S300      1.0  0.93278  0.24159  0.42961  1.0000
  Fe  Fe154     1.0  0.95223  0.16151  0.43710  1.0000
  S   S301      1.0  0.92732  0.12108  0.42873  1.0000
  S   S302      1.0  0.93353  0.18249  0.44997  1.0000
  Fe  Fe155     1.0  0.79770  0.01800  0.45784  1.0000
  H   H1725     1.0  0.84068  0.09444  0.48980  1.0000
  S   S303      1.0  0.82977  0.05538  0.46570  1.0000
  C   C2153     1.0  0.96843  0.49670  0.24478  1.0000
  H   H1726     1.0  0.74503  0.08367  0.33043  1.0000
  H   H1727     1.0  0.93657  0.47019  0.33321  1.0000
  H   H1728     1.0  0.70773  0.13335  0.45530  1.0000
  C   C2154     1.0  0.75823  0.07355  0.43068  1.0000
  H   H1729     1.0  0.84062  0.14845  0.42854  1.0000
  C   C2155     1.0  0.90067  0.10229  0.43919  1.0000
  C   C2156     1.0  0.89819  0.11011  0.45292  1.0000
  C   C2157     1.0  0.87660  0.09522  0.46098  1.0000
  C   C2158     1.0  0.85721  0.07248  0.45540  1.0000
  C   C2159     1.0  0.85993  0.06425  0.44179  1.0000
  C   C2160     1.0  0.88166  0.07910  0.43374  1.0000
  H   H1730     1.0  0.91313  0.12740  0.45742  1.0000
  H   H1731     1.0  0.87510  0.10122  0.47164  1.0000
  H   H1732     1.0  0.84534  0.04648  0.43750  1.0000
  H   H1733     1.0  0.88381  0.07260  0.42327  1.0000
  C   C2161     1.0  0.88851  0.09601  0.36652  1.0000
  H   H1734     1.0  0.67029  0.39080  0.40429  1.0000
  C   C2162     1.0  0.83502  0.06980  0.40134  1.0000
  C   C2163     1.0  0.68383  0.03623  0.39670  1.0000
  C   C2164     1.0  0.68142  0.02641  0.41058  1.0000
  H   H1735     1.0  0.78428  0.01114  0.39701  1.0000
  C   C2165     1.0  0.78061  0.06947  0.42785  1.0000
  H   H1736     1.0  0.98214  0.26531  0.34489  1.0000
  C   C2166     1.0  0.70391  0.03555  0.38843  1.0000
  H   H1737     1.0  0.94333  0.08514  0.37215  1.0000
  H   H1738     1.0  0.71292  0.05314  0.31386  1.0000
  H   H1739     1.0  0.95538  0.23190  0.40378  1.0000
  C   C2167     1.0  0.92594  0.26307  0.38311  1.0000
  C   C2168     1.0  0.94130  0.24928  0.38689  1.0000
  C   C2169     1.0  0.94323  0.24222  0.40103  1.0000
  C   C2170     1.0  0.93001  0.24916  0.41158  1.0000
  C   C2171     1.0  0.91479  0.26314  0.40781  1.0000
  C   C2172     1.0  0.91257  0.26990  0.39362  1.0000
  H   H1740     1.0  0.95187  0.24413  0.37883  1.0000
  C   C2173     1.0  0.70298  0.06561  0.44621  1.0000
  H   H1741     1.0  0.90488  0.26907  0.41590  1.0000
  H   H1742     1.0  0.90081  0.28065  0.39083  1.0000
  C   C2174     1.0  0.78245  0.21405  0.34294  1.0000
  C   C2175     1.0  0.79017  0.19542  0.33680  1.0000
  C   C2176     1.0  0.77257  0.16892  0.33544  1.0000
  C   C2177     1.0  0.74694  0.16041  0.34021  1.0000
  C   C2178     1.0  0.73940  0.17889  0.34665  1.0000
  C   C2179     1.0  0.75698  0.20542  0.34796  1.0000
  H   H1743     1.0  0.80954  0.20155  0.33281  1.0000
  H   H1744     1.0  0.77872  0.15497  0.33040  1.0000
  H   H1745     1.0  0.71986  0.17288  0.35039  1.0000
  H   H1746     1.0  0.75067  0.21949  0.35276  1.0000
  C   C2180     1.0  0.87880  0.44796  0.34509  1.0000
  C   C2181     1.0  0.88194  0.44601  0.35969  1.0000
  C   C2182     1.0  0.88231  0.42268  0.36563  1.0000
  C   C2183     1.0  0.87974  0.40103  0.35709  1.0000
  C   C2184     1.0  0.87669  0.40302  0.34248  1.0000
  C   C2185     1.0  0.87607  0.42622  0.33657  1.0000
  H   H1747     1.0  0.88399  0.46242  0.36642  1.0000
  H   H1748     1.0  0.88463  0.42144  0.37693  1.0000
  H   H1749     1.0  0.87470  0.38666  0.33574  1.0000
  H   H1750     1.0  0.87347  0.42728  0.32528  1.0000
  H   H1751     1.0  0.78153  0.03152  0.37403  1.0000
  C   C2186     1.0  0.94693  0.34326  0.29963  1.0000
  C   C2187     1.0  0.95492  0.32246  0.29854  1.0000
  C   C2188     1.0  0.70738  0.04466  0.45231  1.0000
  H   H1752     1.0  0.94326  0.30363  0.30308  1.0000
  H   H1753     1.0  0.87431  0.09396  0.35828  1.0000
  P   P71       1.0  0.94491  0.44818  0.30617  1.0000
  C   C2189     1.0  0.94677  0.43948  0.32446  1.0000
  C   C2190     1.0  0.73117  0.11192  0.46134  1.0000
  C   C2191     1.0  0.85876  0.15352  0.34756  1.0000
  H   H1754     1.0  0.74497  0.15351  0.43884  1.0000
  C   C2192     1.0  0.79646  0.04231  0.38165  1.0000
  H   H1755     1.0  0.85016  0.07998  0.40896  1.0000
  H   H1756     1.0  0.74038  0.06160  0.42532  1.0000
  C   C2193     1.0  0.95310  0.41801  0.32785  1.0000
  C   C2194     1.0  0.97721  0.32556  0.29083  1.0000
  H   H1757     1.0  0.79656  0.13872  0.35684  1.0000
  C   C2195     1.0  0.91622  0.42418  0.29787  1.0000
  C   C2196     1.0  0.90584  0.43103  0.28564  1.0000
  C   C2197     1.0  0.88381  0.41269  0.27901  1.0000
  C   C2198     1.0  0.87204  0.38734  0.28449  1.0000
  C   C2199     1.0  0.88223  0.38037  0.29661  1.0000
  C   C2200     1.0  0.90412  0.39868  0.30332  1.0000
  C   C2201     1.0  0.81448  0.06745  0.37842  1.0000
  H   H1758     1.0  0.93517  0.21778  0.49069  1.0000
  H   H1759     1.0  0.98240  0.30897  0.28949  1.0000
  H   H1760     1.0  0.95654  0.10108  0.46521  1.0000
  C   C2202     1.0  0.96534  0.31627  0.33698  1.0000
  C   C2203     1.0  0.70660  0.11571  0.40598  1.0000
  H   H1761     1.0  0.95702  0.40669  0.31958  1.0000
  C   C2204     1.0  0.71893  0.01551  0.40790  1.0000
  H   H1762     1.0  0.82746  0.16129  0.33808  1.0000
  H   H1763     1.0  0.87573  0.41814  0.26968  1.0000
  H   H1764     1.0  0.85497  0.37306  0.27940  1.0000
  H   H1765     1.0  0.87326  0.36067  0.30088  1.0000
  H   H1766     1.0  0.91126  0.39253  0.31272  1.0000
  C   C2205     1.0  0.85461  0.15049  0.42045  1.0000
  C   C2206     1.0  0.93194  0.35426  0.38215  1.0000
  C   C2207     1.0  0.94108  0.38070  0.38588  1.0000
  H   H1767     1.0  0.93650  0.43516  0.25809  1.0000
  H   H1768     1.0  0.75149  0.09027  0.47138  1.0000
  H   H1769     1.0  0.72746  0.02226  0.36114  1.0000
  C   C2208     1.0  0.94930  0.34272  0.37918  1.0000
  C   C2209     1.0  0.72127  0.02516  0.39399  1.0000
  H   H1770     1.0  0.97144  0.29675  0.42178  1.0000
  C   C2210     1.0  0.90923  0.08898  0.36368  1.0000
  H   H1771     1.0  0.71208  0.15356  0.39759  1.0000
  C   C2211     1.0  0.74227  0.11394  0.48637  1.0000
  C   C2212     1.0  0.88612  0.10539  0.37995  1.0000
  H   H1772     1.0  0.70795  0.15113  0.47912  1.0000
  C   C2213     1.0  0.81606  0.13945  0.35742  1.0000
  C   C2214     1.0  0.67756  0.06251  0.44295  1.0000
  H   H1773     1.0  0.94186  0.32221  0.37632  1.0000
  H   H1774     1.0  0.91117  0.08203  0.35326  1.0000
  C   C2215     1.0  0.69886  0.01615  0.41617  1.0000
  H   H1775     1.0  0.87238  0.16392  0.33946  1.0000
  H   H1776     1.0  0.88650  0.14409  0.35955  1.0000
  C   C2216     1.0  0.80377  0.08434  0.43481  1.0000
  C   C2217     1.0  0.75882  0.09251  0.44056  1.0000
  H   H1777     1.0  0.91129  0.34282  0.38135  1.0000
  H   H1778     1.0  0.92743  0.38961  0.38791  1.0000
  H   H1779     1.0  0.97238  0.34970  0.35018  1.0000
  S   S304      1.0  0.97250  0.19597  0.42282  1.0000
  S   S305      1.0  0.87833  0.47689  0.33683  1.0000
  H   H1780     1.0  0.91641  0.18898  0.41185  1.0000
  H   H1781     1.0  0.81014  0.11825  0.37695  1.0000
  C   C2218     1.0  0.74269  0.10426  0.47282  1.0000
  C   C2219     1.0  0.84817  0.13298  0.40906  1.0000
  C   C2220     1.0  0.79795  0.03080  0.39460  1.0000
  C   C2221     1.0  0.86640  0.13553  0.39860  1.0000
  H   H1782     1.0  0.81367  0.07547  0.36807  1.0000
  C   C2222     1.0  0.83366  0.08155  0.38837  1.0000
  C   C2223     1.0  0.75123  0.12904  0.37566  1.0000
  C   C2224     1.0  0.75064  0.10835  0.38429  1.0000
  C   C2225     1.0  0.76832  0.11302  0.39548  1.0000
  C   C2226     1.0  0.78634  0.13851  0.39818  1.0000
  C   C2227     1.0  0.78640  0.15962  0.38987  1.0000
  C   C2228     1.0  0.76929  0.15450  0.37827  1.0000
  P   P72       1.0  0.80961  0.19270  0.39316  1.0000
  C   C2229     1.0  0.82143  0.19781  0.41123  1.0000
  C   C2230     1.0  0.83536  0.19868  0.38079  1.0000
  C   C2231     1.0  0.85746  0.19424  0.38456  1.0000
  C   C2232     1.0  0.87815  0.20105  0.37528  1.0000
  C   C2233     1.0  0.87654  0.21153  0.36203  1.0000
  C   C2234     1.0  0.85410  0.21481  0.35796  1.0000
  C   C2235     1.0  0.83355  0.20828  0.36727  1.0000
  C   C2236     1.0  0.84652  0.21604  0.41442  1.0000
  C   C2237     1.0  0.85588  0.21931  0.42834  1.0000
  C   C2238     1.0  0.84006  0.20502  0.43925  1.0000
  C   C2239     1.0  0.81466  0.18776  0.43627  1.0000
  C   C2240     1.0  0.80530  0.18439  0.42233  1.0000
  C   C2241     1.0  0.79549  0.21642  0.39005  1.0000
  C   C2242     1.0  0.76866  0.20909  0.39055  1.0000
  C   C2243     1.0  0.75788  0.22719  0.38710  1.0000
  C   C2244     1.0  0.77385  0.25283  0.38336  1.0000
  C   C2245     1.0  0.80061  0.26054  0.38334  1.0000
  C   C2246     1.0  0.81144  0.24250  0.38678  1.0000
  H   H1783     1.0  0.73763  0.12533  0.36690  1.0000
  H   H1784     1.0  0.73644  0.08872  0.38225  1.0000
  H   H1785     1.0  0.76801  0.09680  0.40201  1.0000
  H   H1786     1.0  0.80019  0.14163  0.40670  1.0000
  H   H1787     1.0  0.76980  0.17016  0.37121  1.0000
  H   H1788     1.0  0.85904  0.18628  0.39479  1.0000
  H   H1789     1.0  0.89570  0.19883  0.37846  1.0000
  H   H1790     1.0  0.89281  0.21745  0.35496  1.0000
  H   H1791     1.0  0.85270  0.22285  0.34768  1.0000
  H   H1792     1.0  0.81651  0.21140  0.36401  1.0000
  H   H1793     1.0  0.85899  0.22768  0.40616  1.0000
  H   H1794     1.0  0.87554  0.23286  0.43064  1.0000
  H   H1795     1.0  0.84749  0.20755  0.45000  1.0000
  H   H1796     1.0  0.80221  0.17705  0.44475  1.0000
  H   H1797     1.0  0.78553  0.17127  0.42019  1.0000
  H   H1798     1.0  0.75597  0.18930  0.39320  1.0000
  H   H1799     1.0  0.73712  0.22121  0.38695  1.0000
  H   H1800     1.0  0.76553  0.26668  0.38025  1.0000
  H   H1801     1.0  0.81293  0.28031  0.38019  1.0000
  H   H1802     1.0  0.83222  0.24874  0.38639  1.0000
  H   H1803     1.0  0.96043  0.28073  0.32605  1.0000
  H   H1804     1.0  0.82272  0.11500  0.44986  1.0000
  P   P73       1.0  0.85857  0.11289  0.38395  1.0000
  H   H1805     1.0  0.69602  0.10517  0.39673  1.0000
  H   H1806     1.0  0.77976  0.05427  0.42048  1.0000
  C   C2247     1.0  0.96186  0.36727  0.29313  1.0000
  C   C2248     1.0  0.86663  0.14210  0.35894  1.0000
  H   H1807     1.0  0.70613  0.04320  0.37780  1.0000
  C   C2249     1.0  0.97400  0.11419  0.47054  1.0000
  H   H1808     1.0  0.82909  0.11742  0.40847  1.0000
  H   H1809     1.0  0.81847  0.03541  0.41441  1.0000
  C   C2250     1.0  0.80473  0.10380  0.44436  1.0000
  C   C2251     1.0  0.81724  0.04451  0.40443  1.0000
  C   C2252     1.0  0.88340  0.24055  0.47533  1.0000
  C   C2253     1.0  0.96826  0.29262  0.33537  1.0000
  C   C2254     1.0  0.95297  0.41006  0.34190  1.0000
  H   H1810     1.0  0.90154  0.11149  0.40139  1.0000
  C   C2255     1.0  0.89088  0.15619  0.39953  1.0000
  H   H1811     1.0  0.67351  0.07858  0.43858  1.0000
  C   C2256     1.0  0.83346  0.15211  0.34678  1.0000
  H   H1812     1.0  0.67234  0.00973  0.36467  1.0000
  H   H1813     1.0  0.82091  0.08061  0.43290  1.0000
  H   H1814     1.0  0.78369  0.12365  0.45434  1.0000
  C   C2257     1.0  0.98515  0.30143  0.41325  1.0000
  H   H1815     1.0  0.88454  0.18396  0.43037  1.0000
  C   C2258     1.0  0.89731  0.17343  0.41100  1.0000
  C   C2259     1.0  0.84900  0.12855  0.36944  1.0000
  C   C2260     1.0  0.71827  0.12855  0.46375  1.0000
  H   H1816     1.0  0.94610  0.41725  0.36348  1.0000
  C   C2261     1.0  0.90354  0.24062  0.46687  1.0000
  H   H1817     1.0  0.68812  0.00749  0.32060  1.0000
  H   H1818     1.0  0.93807  0.09976  0.39625  1.0000
  C   C2262     1.0  0.98451  0.37052  0.28572  1.0000
  S   S306      1.0  0.75826  0.01863  0.45588  1.0000
  C   C2263     1.0  0.92442  0.09891  0.38785  1.0000
  C   C2264     1.0  0.72408  0.11521  0.42956  1.0000
  C   C2265     1.0  0.87926  0.17056  0.42148  1.0000
  P   P74       1.0  0.72951  0.09702  0.44425  1.0000
  H   H1819     1.0  0.72672  0.04696  0.45521  1.0000
  C   C2266     1.0  0.92729  0.09062  0.37431  1.0000
  C   C2267     1.0  0.82383  0.12790  0.36877  1.0000
  C   C2268     1.0  0.78246  0.10829  0.44703  1.0000
  H   H1820     1.0  0.90518  0.15880  0.39150  1.0000
  C   C2269     1.0  0.94209  0.44597  0.34944  1.0000
  H   H1821     1.0  0.84143  0.16930  0.47771  1.0000
  H   H1822     1.0  0.73461  0.03537  0.47878  1.0000
  C   C2270     1.0  0.73481  0.06324  0.33333  1.0000
  H   H1823     1.0  0.73663  0.02461  0.38748  1.0000
  C   C2271     1.0  0.94275  0.47975  0.30469  1.0000
  H   H1824     1.0  0.96735  0.32322  0.40177  1.0000
  C   C2272     1.0  0.73009  0.13115  0.48860  1.0000
  C   C2273     1.0  0.92061  0.22411  0.48654  1.0000
  C   C2274     1.0  0.73394  0.14272  0.42982  1.0000
  S   S307      1.0  0.66092  0.10316  0.36224  1.0000
  C   C2275     1.0  0.98688  0.32276  0.35996  1.0000
  C   C2276     1.0  0.97602  0.35759  0.37978  1.0000
  C   C2277     1.0  0.94726  0.42394  0.35267  1.0000
  C   C2278     1.0  0.94165  0.45366  0.33539  1.0000
  C   C2279     1.0  0.72955  0.15656  0.41835  1.0000
  H   H1825     1.0  0.67397  0.43412  0.35309  1.0000
  C   C2280     1.0  0.84287  0.13200  0.48269  1.0000
  H   H1826     1.0  0.95569  0.38335  0.29373  1.0000
  C   C2281     1.0  0.92212  0.23239  0.47249  1.0000
  H   H1827     1.0  0.95534  0.32271  0.32888  1.0000
  S   S308      1.0  0.98953  0.23151  0.45204  1.0000
  S   S309      1.0  0.66196  0.05007  0.39050  1.0000
  H   H1828     1.0  0.95326  0.42647  0.27925  1.0000
  C   C2282     1.0  0.71667  0.04604  0.32399  1.0000
  H   H1829     1.0  0.95373  0.12305  0.48751  1.0000
  C   C2283     1.0  0.98980  0.29895  0.35823  1.0000
  H   H1830     1.0  0.75221  0.06803  0.35404  1.0000
  H   H1831     1.0  0.95645  0.39267  0.34441  1.0000
  C   C2284     1.0  0.97173  0.43653  0.28442  1.0000
  C   C2285     1.0  0.68745  0.48625  0.37554  1.0000
  C   C2286     1.0  0.98512  0.38411  0.38378  1.0000
  C   C2287     1.0  0.94437  0.45069  0.25040  1.0000
  H   H1832     1.0  0.96194  0.48077  0.26600  1.0000
  H   H1833     1.0  0.86920  0.24728  0.47099  1.0000
  C   C2288     1.0  0.97486  0.33142  0.34913  1.0000
  C   C2289     1.0  0.71098  0.10186  0.41740  1.0000
  H   H1834     1.0  0.73677  0.17778  0.41867  1.0000
  C   C2290     1.0  0.71804  0.13839  0.47731  1.0000
  H   H1835     1.0  0.90501  0.24725  0.45599  1.0000
  C   C2291     1.0  0.71574  0.14302  0.40647  1.0000
  H   H1836     1.0  0.98848  0.26829  0.30125  1.0000
  C   C2292     1.0  0.66199  0.44189  0.34716  1.0000
  H   H1837     1.0  0.90296  0.46487  0.31145  1.0000
  C   C2293     1.0  0.66529  0.44532  0.33258  1.0000
  H   H1838     1.0  0.93725  0.45649  0.35777  1.0000
  H   H1839     1.0  0.91468  0.45060  0.28128  1.0000
  C   C2294     1.0  0.96766  0.39560  0.38677  1.0000
  C   C2295     1.0  0.70653  0.01073  0.34122  1.0000
  C   C2296     1.0  0.88183  0.23223  0.48941  1.0000
  H   H1840     1.0  0.66431  0.43100  0.39760  1.0000
  C   C2297     1.0  0.73877  0.05441  0.34665  1.0000
  H   H1841     1.0  0.89571  0.17276  0.49219  1.0000
  C   C2298     1.0  0.95864  0.47652  0.25480  1.0000
  C   C2299     1.0  0.91941  0.48184  0.30792  1.0000
  C   C2300     1.0  0.97342  0.44835  0.29767  1.0000
  H   H1842     1.0  0.93782  0.23255  0.46596  1.0000
  H   H1843     1.0  0.67970  0.44026  0.32739  1.0000
  H   H1844     1.0  0.85628  0.13326  0.47434  1.0000
  H   H1845     1.0  0.78011  0.05792  0.48641  1.0000
  H   H1846     1.0  0.69655  0.00840  0.42678  1.0000
  C   C2301     1.0  0.66341  0.47235  0.38177  1.0000
  S   S310      1.0  0.96048  0.18460  0.48725  1.0000
  C   C2302     1.0  0.83436  0.15223  0.48453  1.0000
  S   S311      1.0  0.74140  0.00262  0.41429  1.0000
  C   C2303     1.0  0.73918  0.04326  0.48934  1.0000
  C   C2304     1.0  0.97243  0.12647  0.48312  1.0000
  C   C2305     1.0  0.98292  0.31650  0.40181  1.0000
  H   H1847     1.0  0.69049  0.00447  0.45938  1.0000
  S   S312      1.0  0.98628  0.17069  0.45183  1.0000
  H   H1848     1.0  0.66583  0.02660  0.41701  1.0000
  C   C2306     1.0  0.98063  0.28405  0.34595  1.0000
  H   H1849     1.0  0.97468  0.41612  0.38969  1.0000
  C   C2307     1.0  0.66165  0.01750  0.45118  1.0000
  C   C2308     1.0  0.70254  0.01996  0.32790  1.0000
  H   H1850     1.0  0.73467  0.49714  0.34772  1.0000
  H   H1851     1.0  0.99213  0.36949  0.32126  1.0000
  C   C2309     1.0  0.66028  0.39135  0.39450  1.0000
  Fe  Fe156     1.0  0.95617  0.18370  0.57752  1.0000
  S   S313      1.0  0.96622  0.22720  0.57554  1.0000
  S   S314      1.0  0.91860  0.15280  0.56857  1.0000
  C   C2310     1.0  0.68245  0.48941  0.72186  1.0000
  H   H1852     1.0  0.71865  0.06674  0.68456  1.0000
  H   H1853     1.0  0.89651  0.06057  0.62460  1.0000
  C   C2311     1.0  0.90592  0.04154  0.59848  1.0000
  C   C2312     1.0  0.86359  0.05489  0.51566  1.0000
  H   H1854     1.0  0.70937  0.04675  0.51970  1.0000
  C   C2313     1.0  0.98023  0.11919  0.57123  1.0000
  C   C2314     1.0  0.91608  0.27794  0.71902  1.0000
  H   H1855     1.0  0.84075  0.02050  0.59349  1.0000
  H   H1856     1.0  0.75021  0.03409  0.63526  1.0000
  H   H1857     1.0  0.82396  0.00705  0.49384  1.0000
  H   H1858     1.0  0.87250  0.39881  0.74229  1.0000
  Fe  Fe157     1.0  0.79253  0.02838  0.59109  1.0000
  S   S315      1.0  0.82441  0.06525  0.60006  1.0000
  H   H1859     1.0  0.98073  0.28359  0.54771  1.0000
  H   H1860     1.0  0.74090  0.03045  0.68025  1.0000
  H   H1861     1.0  0.96967  0.12766  0.55041  1.0000
  H   H1862     1.0  0.67450  0.00994  0.65230  1.0000
  H   H1863     1.0  0.68046  0.40004  0.70423  1.0000
  C   C2315     1.0  0.96216  0.35077  0.73045  1.0000
  C   C2316     1.0  0.71925  0.06794  0.72042  1.0000
  C   C2317     1.0  0.96820  0.35966  0.71645  1.0000
  C   C2318     1.0  0.96496  0.27076  0.54112  1.0000
  H   H1864     1.0  0.95356  0.36215  0.70983  1.0000
  C   C2319     1.0  0.73789  0.03072  0.64439  1.0000
  C   C2320     1.0  0.84341  0.23259  0.53162  1.0000
  H   H1865     1.0  0.95187  0.25194  0.50696  1.0000
  H   H1866     1.0  0.96849  0.30190  0.64778  1.0000
  C   C2321     1.0  0.72489  0.04954  0.51241  1.0000
  C   C2322     1.0  0.98117  0.34716  0.73879  1.0000
  Fe  Fe158     1.0  0.99107  0.23198  0.59525  1.0000
  H   H1867     1.0  0.67585  0.47139  0.71586  1.0000
  H   H1868     1.0  0.88339  0.26723  0.70485  1.0000
  H   H1869     1.0  0.69942  0.03485  0.73382  1.0000
  C   C2323     1.0  0.84403  0.00792  0.55228  1.0000
  C   C2324     1.0  0.89358  0.12779  0.57772  1.0000
  C   C2325     1.0  0.87626  0.10613  0.57008  1.0000
  C   C2326     1.0  0.85536  0.08644  0.57681  1.0000
  C   C2327     1.0  0.85102  0.08875  0.59115  1.0000
  C   C2328     1.0  0.86851  0.11023  0.59880  1.0000
  C   C2329     1.0  0.88977  0.12958  0.59215  1.0000
  H   H1870     1.0  0.87896  0.10462  0.55889  1.0000
  H   H1871     1.0  0.84228  0.06979  0.57086  1.0000
  H   H1872     1.0  0.86547  0.11203  0.60993  1.0000
  H   H1873     1.0  0.90278  0.14626  0.59810  1.0000
  H   H1874     1.0  0.98505  0.10874  0.59255  1.0000
  C   C2330     1.0  0.93696  0.09996  0.56138  1.0000
  C   C2331     1.0  0.88156  0.04250  0.59666  1.0000
  H   H1875     1.0  0.98121  0.42008  0.70695  1.0000
  C   C2332     1.0  0.82603  0.18525  0.52976  1.0000
  C   C2333     1.0  0.84872  0.18674  0.52330  1.0000
  C   C2334     1.0  0.86909  0.21112  0.52119  1.0000
  C   C2335     1.0  0.96299  0.11643  0.56001  1.0000
  P   P75       1.0  0.89888  0.21317  0.51339  1.0000
  C   C2336     1.0  0.90052  0.18126  0.51467  1.0000
  H   H1876     1.0  0.70626  0.43965  0.71804  1.0000
  C   C2337     1.0  0.76491  0.05539  0.49388  1.0000
  C   C2338     1.0  0.95293  0.46246  0.69835  1.0000
  H   H1877     1.0  0.92632  0.01558  0.59945  1.0000
  C   C2339     1.0  0.89802  0.16580  0.50258  1.0000
  C   C2340     1.0  0.89918  0.14115  0.50372  1.0000
  C   C2341     1.0  0.90230  0.13146  0.51694  1.0000
  C   C2342     1.0  0.90403  0.14630  0.52907  1.0000
  C   C2343     1.0  0.90326  0.17112  0.52796  1.0000
  C   C2344     1.0  0.92497  0.23585  0.52411  1.0000
  C   C2345     1.0  0.92186  0.23703  0.53878  1.0000
  H   H1878     1.0  0.93930  0.33022  0.68685  1.0000
  H   H1879     1.0  0.72942  0.13835  0.49914  1.0000
  H   H1880     1.0  0.92155  0.22488  0.63294  1.0000
  H   H1881     1.0  0.81059  0.16632  0.53168  1.0000
  H   H1882     1.0  0.85050  0.16891  0.52008  1.0000
  H   H1883     1.0  0.84143  0.25038  0.53491  1.0000
  C   C2346     1.0  0.94172  0.25449  0.54720  1.0000
  S   S316      1.0  0.73064  0.00999  0.54990  1.0000
  C   C2347     1.0  0.89990  0.09786  0.63257  1.0000
  H   H1884     1.0  0.89836  0.12990  0.49426  1.0000
  P   P76       1.0  0.68483  0.01084  0.68316  1.0000
  H   H1885     1.0  0.90393  0.11272  0.51776  1.0000
  H   H1886     1.0  0.90677  0.13898  0.53934  1.0000
  H   H1887     1.0  0.90517  0.18237  0.53752  1.0000
  H   H1888     1.0  0.90421  0.22432  0.54381  1.0000
  C   C2348     1.0  0.86619  0.23409  0.52525  1.0000
  C   C2349     1.0  0.99075  0.34328  0.66520  1.0000
  P   P77       1.0  0.96535  0.29535  0.67875  1.0000
  C   C2350     1.0  0.84785  0.06867  0.51778  1.0000
  P   P78       1.0  0.80432  0.07971  0.51361  1.0000
  H   H1889     1.0  0.97207  0.05364  0.59001  1.0000
  C   C2351     1.0  0.80748  0.08840  0.53214  1.0000
  C   C2352     1.0  0.79399  0.06965  0.54230  1.0000
  C   C2353     1.0  0.79616  0.07639  0.55661  1.0000
  C   C2354     1.0  0.81268  0.10153  0.56095  1.0000
  C   C2355     1.0  0.82751  0.11976  0.55101  1.0000
  C   C2356     1.0  0.82500  0.11321  0.53666  1.0000
  P   P79       1.0  0.93400  0.07155  0.60169  1.0000
  C   C2357     1.0  0.82320  0.06016  0.51142  1.0000
  C   C2358     1.0  0.94608  0.28660  0.69458  1.0000
  H   H1890     1.0  0.86737  0.02230  0.50515  1.0000
  H   H1891     1.0  0.95050  0.27099  0.62823  1.0000
  H   H1892     1.0  0.90955  0.27528  0.68328  1.0000
  H   H1893     1.0  0.94689  0.37553  0.68046  1.0000
  C   C2359     1.0  0.85498  0.03267  0.50704  1.0000
  C   C2360     1.0  0.94541  0.08846  0.58520  1.0000
  H   H1894     1.0  0.85497  0.08605  0.52435  1.0000
  H   H1895     1.0  0.78147  0.04988  0.53920  1.0000
  H   H1896     1.0  0.78517  0.06201  0.56437  1.0000
  H   H1897     1.0  0.81467  0.10649  0.57210  1.0000
  H   H1898     1.0  0.84134  0.13876  0.55453  1.0000
  H   H1899     1.0  0.83724  0.12718  0.52919  1.0000
  H   H1900     1.0  0.75407  0.06846  0.52781  1.0000
  H   H1901     1.0  0.92935  0.24008  0.67753  1.0000
  C   C2361     1.0  0.97876  0.38048  0.66687  1.0000
  H   H1902     1.0  0.88168  0.25314  0.52364  1.0000
  C   C2362     1.0  0.95897  0.36643  0.67608  1.0000
  C   C2363     1.0  0.90055  0.22401  0.49517  1.0000
  C   C2364     1.0  0.93837  0.11995  0.61248  1.0000
  C   C2365     1.0  0.70557  0.02033  0.66794  1.0000
  C   C2366     1.0  0.95938  0.06380  0.60976  1.0000
  C   C2367     1.0  0.90649  0.08163  0.62358  1.0000
  C   C2368     1.0  0.97076  0.32885  0.67434  1.0000
  C   C2369     1.0  0.94273  0.41479  0.71214  1.0000
  C   C2370     1.0  0.92367  0.42488  0.71121  1.0000
  C   C2371     1.0  0.71498  0.05931  0.69525  1.0000
  H   H1903     1.0  0.95630  0.48056  0.69277  1.0000
  H   H1904     1.0  0.91071  0.20959  0.65764  1.0000
  H   H1905     1.0  0.75081  0.10753  0.49518  1.0000
  C   C2372     1.0  0.92872  0.44866  0.70428  1.0000
  H   H1906     1.0  0.93871  0.39631  0.71757  1.0000
  C   C2373     1.0  0.75055  0.06138  0.51707  1.0000
  C   C2374     1.0  0.91259  0.12509  0.63157  1.0000
  S   S317      1.0  0.75104  0.02381  0.58982  1.0000
  C   C2375     1.0  0.69325  0.49088  0.73548  1.0000
  H   H1907     1.0  0.97260  0.19789  0.53816  1.0000
  H   H1908     1.0  0.80990  0.16592  0.49647  1.0000
  C   C2376     1.0  0.94287  0.28647  0.72018  1.0000
  H   H1909     1.0  0.90491  0.41412  0.71579  1.0000
  S   S318      1.0  0.98977  0.18498  0.56463  1.0000
  H   H1910     1.0  0.98686  0.06196  0.64189  1.0000
  H   H1911     1.0  0.93929  0.25506  0.55850  1.0000
  C   C2377     1.0  0.68714  0.42708  0.72156  1.0000
  H   H1912     1.0  0.88256  0.06155  0.52059  1.0000
  C   C2378     1.0  0.82339  0.20818  0.53394  1.0000
  C   C2379     1.0  0.70428  0.04152  0.72304  1.0000
  H   H1913     1.0  0.92344  0.09867  0.55289  1.0000
  H   H1914     1.0  0.97858  0.29831  0.70935  1.0000
  H   H1915     1.0  0.98207  0.40041  0.66408  1.0000
  C   C2380     1.0  0.96841  0.19229  0.51563  1.0000
  C   C2381     1.0  0.85951  0.01950  0.59468  1.0000
  H   H1916     1.0  0.76915  0.03994  0.65947  1.0000
  C   C2382     1.0  0.69979  0.03268  0.69780  1.0000
  H   H1917     1.0  0.95178  0.07210  0.63118  1.0000
  C   C2383     1.0  0.96695  0.42852  0.70620  1.0000
  H   H1918     1.0  0.80591  0.20703  0.53907  1.0000
  H   H1919     1.0  0.69929  0.03010  0.49514  1.0000
  H   H1920     1.0  0.72608  0.08157  0.72919  1.0000
  C   C2384     1.0  0.97244  0.45275  0.69949  1.0000
  C   C2385     1.0  0.95539  0.28209  0.65019  1.0000
  H   H1921     1.0  0.91378  0.45630  0.70347  1.0000
  C   C2386     1.0  0.95786  0.29088  0.70805  1.0000
  C   C2387     1.0  0.69453  0.02395  0.71182  1.0000
  C   C2388     1.0  0.97511  0.05556  0.60134  1.0000
  C   C2389     1.0  0.90416  0.27350  0.70570  1.0000
  C   C2390     1.0  0.73242  0.02861  0.66976  1.0000
  C   C2391     1.0  0.92556  0.09257  0.61333  1.0000
  C   C2392     1.0  0.95476  0.34061  0.67969  1.0000
  C   C2393     1.0  0.98148  0.45306  0.66538  1.0000
  C   C2394     1.0  0.94840  0.25246  0.51809  1.0000
  C   C2395     1.0  0.74850  0.03387  0.65803  1.0000
  C   C2396     1.0  0.93193  0.13612  0.62160  1.0000
  H   H1922     1.0  0.79412  0.12710  0.51216  1.0000
  C   C2397     1.0  0.72474  0.07681  0.70653  1.0000
  S   S319      1.0  0.99171  0.25442  0.61578  1.0000
  C   C2398     1.0  0.91906  0.27788  0.69352  1.0000
  H   H1923     1.0  0.98004  0.43228  0.73476  1.0000
  H   H1924     1.0  0.73607  0.09739  0.70453  1.0000
  C   C2399     1.0  0.96365  0.06591  0.62444  1.0000
  H   H1925     1.0  0.96486  0.44135  0.64458  1.0000
  H   H1926     1.0  0.90780  0.07400  0.57485  1.0000
  C   C2400     1.0  0.92902  0.23847  0.64167  1.0000
  H   H1927     1.0  0.90463  0.27533  0.72846  1.0000
  C   C2401     1.0  0.77086  0.06366  0.50798  1.0000
  H   H1928     1.0  0.95297  0.17315  0.51646  1.0000
  C   C2402     1.0  0.90789  0.01708  0.59809  1.0000
  C   C2403     1.0  0.80794  0.12847  0.50404  1.0000
  C   C2404     1.0  0.98353  0.06014  0.63057  1.0000
  H   H1929     1.0  0.95317  0.12894  0.60472  1.0000
  C   C2405     1.0  0.92815  0.08607  0.57392  1.0000
  C   C2406     1.0  0.97147  0.10553  0.58383  1.0000
  C   C2407     1.0  0.97669  0.20295  0.50225  1.0000
  H   H1930     1.0  0.94165  0.15724  0.62078  1.0000
  H   H1931     1.0  0.98760  0.25771  0.66979  1.0000
  C   C2408     1.0  0.94520  0.26453  0.63900  1.0000
  C   C2409     1.0  0.71126  0.02253  0.64248  1.0000
  C   C2410     1.0  0.69509  0.01711  0.65417  1.0000
  H   H1932     1.0  0.96406  0.45403  0.66947  1.0000
  C   C2411     1.0  0.92301  0.22990  0.65557  1.0000
  H   H1933     1.0  0.76824  0.00435  0.52997  1.0000
  C   C2412     1.0  0.71919  0.04027  0.49859  1.0000
  C   C2413     1.0  0.81670  0.15036  0.49512  1.0000
  H   H1934     1.0  0.86611  0.23244  0.49572  1.0000
  C   C2414     1.0  0.81461  0.03759  0.50293  1.0000
  S   S320      1.0  0.93066  0.34461  0.73684  1.0000
  H   H1935     1.0  0.87958  0.06107  0.59700  1.0000
  H   H1936     1.0  0.85453  0.02566  0.55825  1.0000
  H   H1937     1.0  0.82515  0.02612  0.53855  1.0000
  C   C2415     1.0  0.93338  0.24735  0.66682  1.0000
  C   C2416     1.0  0.97984  0.20617  0.52798  1.0000
  H   H1938     1.0  0.66297  0.04962  0.69069  1.0000
  H   H1939     1.0  0.95210  0.29049  0.73053  1.0000
  H   H1940     1.0  0.68226  0.00387  0.71423  1.0000
  C   C2417     1.0  0.94947  0.27369  0.66422  1.0000
  H   H1941     1.0  0.90732  0.13766  0.63845  1.0000
  C   C2418     1.0  0.96823  0.26984  0.52658  1.0000
  H   H1942     1.0  0.88474  0.08929  0.64022  1.0000
  S   S321      1.0  0.79163  0.00870  0.57033  1.0000
  C   C2419     1.0  0.83049  0.02400  0.50073  1.0000
  C   C2420     1.0  0.81692  0.10838  0.50248  1.0000
  S   S322      1.0  0.97829  0.18800  0.59802  1.0000
  C   C2421     1.0  0.67255  0.40473  0.71369  1.0000
  H   H1943     1.0  0.79597  0.03051  0.49774  1.0000
  C   C2422     1.0  0.98189  0.44601  0.65123  1.0000
  C   C2423     1.0  0.82751  0.00818  0.54118  1.0000
  H   H1944     1.0  0.98657  0.28199  0.52196  1.0000
  C   C2424     1.0  0.67709  0.43317  0.73390  1.0000
  Fe  Fe159     1.0  0.74957  0.00145  0.56962  1.0000
  H   H1945     1.0  0.70305  0.01956  0.63189  1.0000
  H   H1946     1.0  0.74776  0.13570  0.93888  1.0000
  C   C2425     1.0  0.84536  0.08952  0.97327  1.0000
  H   H1947     1.0  0.93384  0.30893  0.95751  1.0000
  H   H1948     1.0  0.66977  0.15069  0.82643  1.0000
  H   H1949     1.0  0.71532  0.45232  0.77146  1.0000
  H   H1950     1.0  0.79590  0.45528  0.84367  1.0000
  H   H1951     1.0  0.87194  0.46917  0.86651  1.0000
  Fe  Fe160     1.0  0.68875  0.13184  0.92123  1.0000
  S   S323      1.0  0.71527  0.17027  0.93108  1.0000
  S   S324      1.0  0.70066  0.09835  0.91766  1.0000
  Fe  Fe161     1.0  0.85608  0.28543  0.76755  1.0000
  S   S325      1.0  0.89813  0.29221  0.77006  1.0000
  H   H1952     1.0  0.90111  0.37852  0.81656  1.0000
  Fe  Fe162     1.0  0.86771  0.34335  0.77351  1.0000
  S   S326      1.0  0.91023  0.35409  0.77671  1.0000
  S   S327      1.0  0.84776  0.37174  0.77350  1.0000
  Fe  Fe163     1.0  0.90774  0.32944  0.75738  1.0000
  Fe  Fe164     1.0  0.89725  0.31632  0.78917  1.0000
  S   S328      1.0  0.91610  0.31165  0.80994  1.0000
  S   S329      1.0  0.85481  0.30726  0.78725  1.0000
  H   H1953     1.0  0.67955  0.06397  0.98096  1.0000
  C   C2426     1.0  0.90910  0.39675  0.74697  1.0000
  H   H1954     1.0  0.94662  0.39952  0.75336  1.0000
  H   H1955     1.0  0.85599  0.40577  0.89593  1.0000
  Fe  Fe165     1.0  0.69416  0.12744  0.78334  1.0000
  S   S330      1.0  0.72899  0.16316  0.79130  1.0000
  S   S331      1.0  0.68868  0.08481  0.78503  1.0000
  H   H1956     1.0  0.82756  0.37916  0.80490  1.0000
  Fe  Fe166     1.0  0.90352  0.29569  0.92067  1.0000
  S   S332      1.0  0.86318  0.28353  0.92882  1.0000
  S   S333      1.0  0.93178  0.27990  0.93116  1.0000
  Fe  Fe167     1.0  0.88985  0.31907  0.89305  1.0000
  S   S334      1.0  0.84899  0.30806  0.89988  1.0000
  S   S335      1.0  0.89521  0.34125  0.87211  1.0000
  Fe  Fe168     1.0  0.86618  0.32333  0.92109  1.0000
  S   S336      1.0  0.84859  0.34583  0.93434  1.0000
  Fe  Fe169     1.0  0.84987  0.26985  0.90673  1.0000
  S   S337      1.0  0.82034  0.23071  0.89917  1.0000
  S   S338      1.0  0.90743  0.33665  0.91424  1.0000
  S   S339      1.0  0.88983  0.27970  0.89871  1.0000
  H   H1957     1.0  0.90633  0.22269  0.94446  1.0000
  C   C2427     1.0  0.85408  0.43103  0.93426  1.0000
  C   C2428     1.0  0.83866  0.41207  0.94372  1.0000
  C   C2429     1.0  0.83730  0.38635  0.94335  1.0000
  C   C2430     1.0  0.85150  0.37890  0.93358  1.0000
  C   C2431     1.0  0.86729  0.39777  0.92405  1.0000
  C   C2432     1.0  0.86852  0.42387  0.92435  1.0000
  H   H1958     1.0  0.82751  0.41728  0.95143  1.0000
  H   H1959     1.0  0.82514  0.37209  0.95078  1.0000
  H   H1960     1.0  0.87846  0.39222  0.91653  1.0000
  H   H1961     1.0  0.88065  0.43837  0.91703  1.0000
  C   C2433     1.0  0.86637  0.40501  0.77745  1.0000
  C   C2434     1.0  0.89136  0.41289  0.78304  1.0000
  C   C2435     1.0  0.76804  0.22105  0.87434  1.0000
  C   C2436     1.0  0.89614  0.45843  0.78290  1.0000
  C   C2437     1.0  0.87093  0.45068  0.77760  1.0000
  C   C2438     1.0  0.85600  0.42392  0.77497  1.0000
  H   H1962     1.0  0.86312  0.46525  0.77534  1.0000
  H   H1963     1.0  0.69285  0.08170  0.82459  1.0000
  C   C2439     1.0  0.90723  0.31677  0.82727  1.0000
  C   C2440     1.0  0.88881  0.32726  0.82969  1.0000
  C   C2441     1.0  0.88453  0.33378  0.84355  1.0000
  C   C2442     1.0  0.89779  0.32882  0.85519  1.0000
  C   C2443     1.0  0.91517  0.31701  0.85281  1.0000
  C   C2444     1.0  0.91998  0.31120  0.83892  1.0000
  H   H1964     1.0  0.87845  0.33105  0.82085  1.0000
  H   H1965     1.0  0.87122  0.34312  0.84523  1.0000
  H   H1966     1.0  0.92593  0.31359  0.86159  1.0000
  H   H1967     1.0  0.93421  0.30302  0.83718  1.0000
  C   C2445     1.0  0.79794  0.22449  0.76801  1.0000
  C   C2446     1.0  0.75437  0.18702  0.78168  1.0000
  C   C2447     1.0  0.76960  0.21092  0.78829  1.0000
  C   C2448     1.0  0.79111  0.22967  0.78145  1.0000
  H   H1968     1.0  0.76508  0.21474  0.79889  1.0000
  H   H1969     1.0  0.80287  0.24779  0.78671  1.0000
  C   C2449     1.0  0.74467  0.18689  0.92238  1.0000
  C   C2450     1.0  0.75229  0.17481  0.91147  1.0000
  C   C2451     1.0  0.77582  0.18831  0.90467  1.0000
  C   C2452     1.0  0.79159  0.21416  0.90849  1.0000
  C   C2453     1.0  0.78405  0.22625  0.91944  1.0000
  C   C2454     1.0  0.76064  0.21259  0.92641  1.0000
  H   H1970     1.0  0.74006  0.15508  0.90823  1.0000
  H   H1971     1.0  0.78173  0.17871  0.89635  1.0000
  H   H1972     1.0  0.79612  0.24620  0.92242  1.0000
  H   H1973     1.0  0.75477  0.22204  0.93483  1.0000
  C   C2455     1.0  0.68903  0.10965  0.96266  1.0000
  C   C2456     1.0  0.71450  0.11164  0.96357  1.0000
  C   C2457     1.0  0.68760  0.48257  0.88778  1.0000
  C   C2458     1.0  0.78504  0.10532  0.92646  1.0000
  C   C2459     1.0  0.69597  0.08601  0.84735  1.0000
  C   C2460     1.0  0.76375  0.27893  0.91514  1.0000
  C   C2461     1.0  0.71677  0.02386  0.96866  1.0000
  C   C2462     1.0  0.93152  0.41641  0.94515  1.0000
  C   C2463     1.0  0.93452  0.41039  0.75168  1.0000
  C   C2464     1.0  0.67933  0.03544  0.95285  1.0000
  C   C2465     1.0  0.70535  0.04667  0.94912  1.0000
  C   C2466     1.0  0.72387  0.04070  0.95689  1.0000
  C   C2467     1.0  0.72534  0.18623  0.87306  1.0000
  H   H1974     1.0  0.71121  0.05993  0.94022  1.0000
  C   C2468     1.0  0.69080  0.01284  0.97251  1.0000
  C   C2469     1.0  0.96495  0.27612  0.97592  1.0000
  C   C2470     1.0  0.95353  0.29411  0.97297  1.0000
  C   C2471     1.0  0.94234  0.29486  0.95958  1.0000
  C   C2472     1.0  0.94326  0.27822  0.94873  1.0000
  C   C2473     1.0  0.95472  0.26025  0.95168  1.0000
  C   C2474     1.0  0.96506  0.25886  0.96522  1.0000
  H   H1975     1.0  0.95349  0.30772  0.98109  1.0000
  H   H1976     1.0  0.77219  0.28430  0.87454  1.0000
  C   C2475     1.0  0.68770  0.48211  0.87302  1.0000
  H   H1977     1.0  0.93141  0.48635  0.89304  1.0000
  H   H1978     1.0  0.88853  0.44658  0.74699  1.0000
  C   C2476     1.0  0.87606  0.24913  0.86400  1.0000
  C   C2477     1.0  0.86995  0.22558  0.87131  1.0000
  C   C2478     1.0  0.85034  0.20267  0.86622  1.0000
  C   C2479     1.0  0.83659  0.20337  0.85390  1.0000
  C   C2480     1.0  0.84201  0.22718  0.84675  1.0000
  C   C2481     1.0  0.86223  0.24996  0.85178  1.0000
  P   P80       1.0  0.82347  0.22901  0.83131  1.0000
  C   C2482     1.0  0.79197  0.20208  0.83085  1.0000
  C   C2483     1.0  0.81955  0.25978  0.83210  1.0000
  C   C2484     1.0  0.82017  0.27402  0.81972  1.0000
  C   C2485     1.0  0.81804  0.29827  0.82043  1.0000
  C   C2486     1.0  0.81542  0.30850  0.83349  1.0000
  C   C2487     1.0  0.81441  0.29425  0.84585  1.0000
  C   C2488     1.0  0.81619  0.26985  0.84516  1.0000
  C   C2489     1.0  0.78984  0.17657  0.82770  1.0000
  C   C2490     1.0  0.76557  0.15597  0.82638  1.0000
  C   C2491     1.0  0.74321  0.16059  0.82819  1.0000
  C   C2492     1.0  0.74508  0.18579  0.83146  1.0000
  C   C2493     1.0  0.76934  0.20649  0.83282  1.0000
  C   C2494     1.0  0.84140  0.22866  0.81566  1.0000
  C   C2495     1.0  0.82878  0.21413  0.80368  1.0000
  C   C2496     1.0  0.84252  0.21491  0.79140  1.0000
  C   C2497     1.0  0.86892  0.23032  0.79090  1.0000
  C   C2498     1.0  0.88166  0.24482  0.80273  1.0000
  C   C2499     1.0  0.86798  0.24416  0.81503  1.0000
  H   H1979     1.0  0.89131  0.26691  0.86790  1.0000
  H   H1980     1.0  0.88028  0.22517  0.88100  1.0000
  H   H1981     1.0  0.84555  0.18447  0.87197  1.0000
  H   H1982     1.0  0.82133  0.18544  0.85032  1.0000
  H   H1983     1.0  0.86710  0.26859  0.84642  1.0000
  H   H1984     1.0  0.82270  0.26665  0.80954  1.0000
  H   H1985     1.0  0.81896  0.30937  0.81085  1.0000
  H   H1986     1.0  0.81457  0.32764  0.83404  1.0000
  H   H1987     1.0  0.81293  0.30239  0.85602  1.0000
  H   H1988     1.0  0.81563  0.25920  0.85487  1.0000
  H   H1989     1.0  0.80696  0.17277  0.82581  1.0000
  H   H1990     1.0  0.76402  0.13652  0.82350  1.0000
  H   H1991     1.0  0.72764  0.18925  0.83260  1.0000
  H   H1992     1.0  0.77027  0.22589  0.83513  1.0000
  H   H1993     1.0  0.80821  0.20266  0.80355  1.0000
  H   H1994     1.0  0.83251  0.20418  0.78208  1.0000
  H   H1995     1.0  0.87937  0.23145  0.78123  1.0000
  H   H1996     1.0  0.90208  0.25718  0.80226  1.0000
  H   H1997     1.0  0.87822  0.25631  0.82385  1.0000
  C   C2500     1.0  0.77870  0.20349  0.87005  1.0000
  C   C2501     1.0  0.78237  0.20083  0.76129  1.0000
  H   H1998     1.0  0.71079  0.19854  0.90364  1.0000
  H   H1999     1.0  0.71780  0.28641  0.82911  1.0000
  S   S340      1.0  0.67135  0.12958  0.89967  1.0000
  C   C2502     1.0  0.76277  0.17732  0.86726  1.0000
  C   C2503     1.0  0.73609  0.16866  0.86883  1.0000
  H   H2000     1.0  0.67321  0.46596  0.86740  1.0000
  S   S341      1.0  0.86556  0.32084  0.75364  1.0000
  H   H2001     1.0  0.70466  0.17921  0.87416  1.0000
  C   C2504     1.0  0.92387  0.47837  0.94541  1.0000
  C   C2505     1.0  0.79015  0.17159  0.96717  1.0000
  H   H2002     1.0  0.77111  0.16364  0.86416  1.0000
  H   H2003     1.0  0.72379  0.14824  0.86690  1.0000
  H   H2004     1.0  0.83657  0.41790  0.77076  1.0000
  C   C2506     1.0  0.72280  0.25306  0.83823  1.0000
  C   C2507     1.0  0.69403  0.20154  0.89967  1.0000
  Fe  Fe170     1.0  0.68011  0.09410  0.89659  1.0000
  C   C2508     1.0  0.74126  0.21257  0.87587  1.0000
  H   H2005     1.0  0.79945  0.21012  0.86949  1.0000
  C   C2509     1.0  0.97397  0.44960  0.78093  1.0000
  H   H2006     1.0  0.76444  0.42847  0.74932  1.0000
  C   C2510     1.0  0.79121  0.11200  0.95173  1.0000
  C   C2511     1.0  0.95930  0.41985  0.80092  1.0000
  H   H2007     1.0  0.93294  0.47087  0.75520  1.0000
  H   H2008     1.0  0.90862  0.46705  0.81462  1.0000
  C   C2512     1.0  0.96741  0.18830  0.96209  1.0000
  H   H2009     1.0  0.80175  0.22762  0.94829  1.0000
  C   C2513     1.0  0.79703  0.10278  0.93908  1.0000
  C   C2514     1.0  0.89612  0.19733  0.97947  1.0000
  C   C2515     1.0  0.84745  0.17240  0.94785  1.0000
  H   H2010     1.0  0.70398  0.03225  0.91902  1.0000
  H   H2011     1.0  0.81368  0.16833  0.93539  1.0000
  C   C2516     1.0  0.77282  0.12320  0.95194  1.0000
  C   C2517     1.0  0.87362  0.14299  0.96766  1.0000
  C   C2518     1.0  0.92744  0.18235  0.94281  1.0000
  C   C2519     1.0  0.84510  0.38695  0.81126  1.0000
  C   C2520     1.0  0.86341  0.37595  0.81014  1.0000
  C   C2521     1.0  0.88671  0.38673  0.81767  1.0000
  C   C2522     1.0  0.89151  0.40820  0.82656  1.0000
  C   C2523     1.0  0.87305  0.41916  0.82793  1.0000
  C   C2524     1.0  0.84982  0.40847  0.82015  1.0000
  P   P81       1.0  0.87923  0.44601  0.84009  1.0000
  C   C2525     1.0  0.87389  0.43377  0.85801  1.0000
  C   C2526     1.0  0.91221  0.46851  0.83745  1.0000
  C   C2527     1.0  0.98579  0.46575  0.80493  1.0000
  S   S342      1.0  0.74113  0.01696  0.97788  1.0000
  H   H2012     1.0  0.67381  0.09151  0.95910  1.0000
  C   C2528     1.0  0.93832  0.39487  0.94307  1.0000
  C   C2529     1.0  0.68778  0.02415  0.91175  1.0000
  C   C2530     1.0  0.68327  0.13120  0.96601  1.0000
  C   C2531     1.0  0.92522  0.44577  0.89015  1.0000
  C   C2532     1.0  0.86123  0.41368  0.88542  1.0000
  C   C2533     1.0  0.86372  0.43923  0.88236  1.0000
  C   C2534     1.0  0.87015  0.44932  0.86872  1.0000
  C   C2535     1.0  0.85761  0.46242  0.83677  1.0000
  C   C2536     1.0  0.87200  0.40833  0.86130  1.0000
  H   H2013     1.0  0.90753  0.46482  0.93950  1.0000
  H   H2014     1.0  0.70522  0.05307  0.89565  1.0000
  C   C2537     1.0  0.72334  0.25115  0.86390  1.0000
  C   C2538     1.0  0.83210  0.45105  0.84162  1.0000
  C   C2539     1.0  0.93229  0.42349  0.91082  1.0000
  C   C2540     1.0  0.96068  0.42426  0.78635  1.0000
  H   H2015     1.0  0.93989  0.18409  0.97829  1.0000
  H   H2016     1.0  0.90958  0.41613  0.83245  1.0000
  H   H2017     1.0  0.83551  0.41685  0.82072  1.0000
  H   H2018     1.0  0.90194  0.37582  0.74508  1.0000
  C   C2541     1.0  0.81546  0.46404  0.83981  1.0000
  H   H2019     1.0  0.71491  0.30562  0.85232  1.0000
  C   C2542     1.0  0.66382  0.15161  0.83717  1.0000
  H   H2020     1.0  0.92231  0.47522  0.85967  1.0000
  C   C2543     1.0  0.69635  0.20193  0.80038  1.0000
  H   H2021     1.0  0.69850  0.17146  0.97285  1.0000
  C   C2544     1.0  0.83996  0.10856  0.98053  1.0000
  C   C2545     1.0  0.68293  0.06625  0.99227  1.0000
  C   C2546     1.0  0.67020  0.18821  0.90607  1.0000
  H   H2022     1.0  0.71854  0.28341  0.87446  1.0000
  H   H2023     1.0  0.97037  0.43724  0.82152  1.0000
  H   H2024     1.0  0.91977  0.44534  0.87913  1.0000
  H   H2025     1.0  0.98657  0.49127  0.95427  1.0000
  H   H2026     1.0  0.82517  0.43224  0.84693  1.0000
  C   C2547     1.0  0.97198  0.18923  0.94760  1.0000
  C   C2548     1.0  0.95197  0.18613  0.93796  1.0000
  C   C2549     1.0  0.78634  0.18877  0.95729  1.0000
  C   C2550     1.0  0.77080  0.12106  0.98378  1.0000
  S   S343      1.0  0.70018  0.09212  0.87622  1.0000
  H   H2027     1.0  0.91215  0.17967  0.93516  1.0000
  C   C2551     1.0  0.76732  0.11717  0.92650  1.0000
  C   C2552     1.0  0.76121  0.12610  0.93916  1.0000
  P   P82       1.0  0.95014  0.44762  0.93694  1.0000
  C   C2553     1.0  0.67390  0.22133  0.88312  1.0000
  C   C2554     1.0  0.74647  0.25936  0.90643  1.0000
  S   S344      1.0  0.91684  0.49158  0.78519  1.0000
  C   C2555     1.0  0.68848  0.03582  0.89857  1.0000
  C   C2556     1.0  0.78635  0.30236  0.89458  1.0000
  C   C2557     1.0  0.76786  0.09473  0.98336  1.0000
  H   H2028     1.0  0.72443  0.14475  0.82665  1.0000
  C   C2558     1.0  0.90163  0.43666  0.74786  1.0000
  H   H2029     1.0  0.81112  0.09401  0.93903  1.0000
  S   S345      1.0  0.85448  0.46310  0.93603  1.0000
  H   H2030     1.0  0.80203  0.31891  0.89004  1.0000
  H   H2031     1.0  0.71683  0.09330  0.84753  1.0000
  Fe  Fe171     1.0  0.66178  0.07344  0.92629  1.0000
  H   H2032     1.0  0.99146  0.46961  0.91605  1.0000
  S   S346      1.0  0.82637  0.24612  0.75950  1.0000
  C   C2559     1.0  0.98358  0.45182  0.93684  1.0000
  H   H2033     1.0  0.88219  0.23610  0.92639  1.0000
  C   C2560     1.0  0.68814  0.45326  0.78667  1.0000
  C   C2561     1.0  0.66724  0.02587  0.88934  1.0000
  H   H2034     1.0  0.89939  0.39854  0.78524  1.0000
  H   H2035     1.0  0.84832  0.21302  0.98074  1.0000
  C   C2562     1.0  0.90598  0.43944  0.78594  1.0000
  C   C2563     1.0  0.74908  0.26105  0.89167  1.0000
  C   C2564     1.0  0.68087  0.19679  0.81233  1.0000
  H   H2036     1.0  0.87820  0.38592  0.96524  1.0000
  Fe  Fe172     1.0  0.66257  0.07784  0.76554  1.0000
  H   H2037     1.0  0.67314  0.46688  0.89356  1.0000
  H   H2038     1.0  0.74387  0.04925  0.95375  1.0000
  C   C2565     1.0  0.73445  0.13530  0.96767  1.0000
  H   H2039     1.0  0.97399  0.24512  0.96720  1.0000
  C   C2566     1.0  0.90214  0.36732  0.95708  1.0000
  H   H2040     1.0  0.94456  0.48757  0.91801  1.0000
  C   C2567     1.0  0.92704  0.45042  0.75257  1.0000
  P   P83       1.0  0.76734  0.13781  0.96791  1.0000
  H   H2041     1.0  0.93225  0.40567  0.91550  1.0000
  C   C2568     1.0  0.93184  0.46883  0.89799  1.0000
  H   H2042     1.0  0.92513  0.44545  0.79042  1.0000
  H   H2043     1.0  0.95583  0.24742  0.94339  1.0000
  H   H2044     1.0  0.66998  0.12821  0.86960  1.0000
  C   C2569     1.0  0.94714  0.47478  0.94616  1.0000
  C   C2570     1.0  0.89540  0.38863  0.95935  1.0000
  C   C2571     1.0  0.81285  0.18044  0.97547  1.0000
  H   H2045     1.0  0.78091  0.24105  0.87671  1.0000
  H   H2046     1.0  0.78743  0.19665  0.75088  1.0000
  H   H2047     1.0  0.74914  0.16396  0.76282  1.0000
  C   C2572     1.0  0.93901  0.46934  0.91223  1.0000
  C   C2573     1.0  0.87248  0.21831  0.93242  1.0000
  H   H2048     1.0  0.94860  0.40026  0.80497  1.0000
  C   C2574     1.0  0.98719  0.47021  0.79034  1.0000
  H   H2049     1.0  0.86497  0.01252  0.97886  1.0000
  H   H2050     1.0  0.83734  0.15474  0.95374  1.0000
  H   H2051     1.0  0.68500  0.99979  0.98150  1.0000
  H   H2052     1.0  0.71871  0.09487  0.96083  1.0000
  H   H2053     1.0  0.75851  0.11975  0.91666  1.0000
  H   H2054     1.0  0.71721  0.21041  0.80143  1.0000
  C   C2575     1.0  0.76061  0.18226  0.76803  1.0000
  C   C2576     1.0  0.90994  0.41306  0.95340  1.0000
  C   C2577     1.0  0.87368  0.18764  0.95058  1.0000
  H   H2055     1.0  0.78971  0.09844  0.91662  1.0000
  C   C2578     1.0  0.68244  0.07961  0.83434  1.0000
  H   H2056     1.0  0.90372  0.42890  0.95500  1.0000
  H   H2057     1.0  0.76194  0.27727  0.92652  1.0000
  H   H2058     1.0  0.95110  0.40786  0.77934  1.0000
  P   P84       1.0  0.97592  0.45449  0.76201  1.0000
  C   C2579     1.0  0.68266  0.08331  0.86009  1.0000
  C   C2580     1.0  0.92367  0.37046  0.94900  1.0000
  C   C2581     1.0  0.97163  0.44065  0.81022  1.0000
  C   C2582     1.0  0.80464  0.21451  0.95600  1.0000
  H   H2059     1.0  0.81692  0.16744  0.98272  1.0000
  C   C2583     1.0  0.93917  0.44660  0.91880  1.0000
  H   H2060     1.0  0.76218  0.08343  0.97370  1.0000
  C   C2584     1.0  0.90541  0.23953  0.99061  1.0000
  H   H2061     1.0  0.79734  0.31537  0.91603  1.0000
  C   C2585     1.0  0.72846  0.15667  0.97141  1.0000
  C   C2586     1.0  0.68401  0.45994  0.76150  1.0000
  H   H2062     1.0  0.80146  0.11078  0.96126  1.0000
  C   C2587     1.0  0.66566  0.45739  0.78910  1.0000
  H   H2063     1.0  0.66361  0.12983  0.96493  1.0000
  C   C2588     1.0  0.70295  0.15464  0.97047  1.0000
  H   H2064     1.0  0.83592  0.20903  0.92189  1.0000
  C   C2589     1.0  0.78369  0.30041  0.90923  1.0000
  C   C2590     1.0  0.98767  0.48884  0.75712  1.0000
  H   H2065     1.0  0.73148  0.24290  0.91136  1.0000
  H   H2066     1.0  0.72758  0.22220  0.85002  1.0000
  C   C2591     1.0  0.88609  0.21067  0.94273  1.0000
  C   C2592     1.0  0.92530  0.42309  0.89657  1.0000
  H   H2067     1.0  0.89396  0.12923  0.95256  1.0000
  S   S347      1.0  0.67105  0.12114  0.76313  1.0000
  C   C2593     1.0  0.84642  0.20303  0.92982  1.0000
  C   C2594     1.0  0.83393  0.18003  0.93747  1.0000
  H   H2068     1.0  0.82686  0.49259  0.96683  1.0000
  C   C2595     1.0  0.92132  0.47510  0.82365  1.0000
  C   C2596     1.0  0.66124  0.46374  0.76405  1.0000
  H   H2069     1.0  0.71656  0.05701  0.99185  1.0000
  C   C2597     1.0  0.72470  0.24029  0.85072  1.0000
  C   C2598     1.0  0.89257  0.40977  0.74522  1.0000
  H   H2070     1.0  0.65909  0.45735  0.79975  1.0000
  C   C2599     1.0  0.67218  0.01840  0.96454  1.0000
  C   C2600     1.0  0.92294  0.18231  0.95737  1.0000
  H   H2071     1.0  0.76938  0.18220  0.95044  1.0000
  C   C2601     1.0  0.71958  0.27469  0.86439  1.0000
  C   C2602     1.0  0.87889  0.12373  0.96036  1.0000
  H   H2072     1.0  0.98285  0.43619  0.95791  1.0000
  H   H2073     1.0  0.84126  0.24311  0.96328  1.0000
  C   C2603     1.0  0.90095  0.22413  0.97843  1.0000
  H   H2074     1.0  0.74342  0.17505  0.97479  1.0000
  C   C2604     1.0  0.71751  0.28730  0.85188  1.0000
  H   H2075     1.0  0.91985  0.40510  0.89051  1.0000
  H   H2076     1.0  0.89018  0.34817  0.96122  1.0000
  C   C2605     1.0  0.83096  0.20626  0.97424  1.0000
  H   H2077     1.0  0.69706  0.19845  0.77777  1.0000
  H   H2078     1.0  0.85989  0.35958  0.80305  1.0000
  H   H2079     1.0  0.97689  0.34029  0.74954  1.0000
  C   C2606     1.0  0.66582  0.00251  0.91571  1.0000
  C   C2607     1.0  0.94298  0.18477  0.96699  1.0000
  C   C2608     1.0  0.82695  0.22325  0.96446  1.0000
  H   H2080     1.0  0.90191  0.23348  0.96830  1.0000
  P   P85       1.0  0.89134  0.17741  0.96378  1.0000
  H   H2081     1.0  0.86446  0.37879  0.87746  1.0000
  C   C2609     1.0  0.94374  0.43739  0.75463  1.0000
  C   C2610     1.0  0.76931  0.28271  0.88584  1.0000
  H   H2082     1.0  0.72450  0.24498  0.82808  1.0000
  C   C2611     1.0  0.71916  0.27651  0.83881  1.0000
  C   C2612     1.0  0.69618  0.21847  0.88825  1.0000
  C   C2613     1.0  0.85379  0.13514  0.97763  1.0000
  C   C2614     1.0  0.86577  0.39841  0.87497  1.0000
  H   H2083     1.0  0.87502  0.39586  0.85341  1.0000
  H   H2084     1.0  0.95551  0.18681  0.92672  1.0000
  H   H2085     1.0  0.92860  0.35378  0.94703  1.0000
  H   H2086     1.0  0.83471  0.06893  0.97565  1.0000
  P   P86       1.0  0.72725  0.23574  0.88016  1.0000
  H   H2087     1.0  0.86915  0.08236  0.95763  1.0000
  H   H2088     1.0  0.66771  0.03598  0.87947  1.0000
  H   H2089     1.0  0.68993  0.20196  0.82264  1.0000
  C   C2615     1.0  0.92898  0.47943  0.84894  1.0000
  C   C2616     1.0  0.86479  0.09711  0.96317  1.0000
  C   C2617     1.0  0.86611  0.48696  0.83004  1.0000
  H   H2090     1.0  0.67550  0.00533  0.84055  1.0000
  H   H2091     1.0  0.98286  0.19046  0.96956  1.0000
  H   H2092     1.0  0.86067  0.45122  0.89058  1.0000
  H   H2093     1.0  0.99104  0.19233  0.94385  1.0000
  C   C2618     1.0  0.68499  0.19520  0.78699  1.0000
  H   H2094     1.0  0.95461  0.39671  0.93659  1.0000
  H   H2095     1.0  0.68545  0.13010  0.84520  1.0000
  H   H2096     1.0  0.66887  0.17554  0.91506  1.0000
  H   H2097     1.0  0.84928  0.14956  0.98336  1.0000
  C   C2619     1.0  0.69735  0.45458  0.77294  1.0000
  H   H2098     1.0  0.69904  0.45013  0.79548  1.0000
  H   H2099     1.0  0.67484  0.23413  0.87434  1.0000
  C   C2620     1.0  0.73471  0.44341  0.74640  1.0000
  C   C2621     1.0  0.96826  0.49323  0.95357  1.0000
  C   C2622     1.0  0.94670  0.49269  0.82136  1.0000
  H   H2100     1.0  0.96436  0.49857  0.77224  1.0000
  C   C2623     1.0  0.82412  0.48846  0.83313  1.0000
  S   S348      1.0  0.66095  0.05647  0.74448  1.0000
  C   C2624     1.0  0.74974  0.49048  0.74340  1.0000
  C   C2625     1.0  0.67246  0.13941  0.84777  1.0000
  C   C2626     1.0  0.66371  0.13840  0.86155  1.0000
  H   H2101     1.0  0.66035  0.21612  0.84922  1.0000
  H   H2102     1.0  0.88563  0.49647  0.82626  1.0000
  C   C2627     1.0  0.95457  0.49660  0.84662  1.0000
  H   H2103     1.0  0.82541  0.10271  0.98864  1.0000
  C   C2628     1.0  0.78058  0.47037  0.74656  1.0000
  C   C2629     1.0  0.76030  0.44573  0.74751  1.0000
  H   H2104     1.0  0.71921  0.42423  0.74743  1.0000
  H   H2105     1.0  0.80043  0.47233  0.74767  1.0000
  H   H2106     1.0  0.81133  0.49864  0.83175  1.0000
  H   H2107     1.0  0.90978  0.26032  0.98972  1.0000
  H   H2108     1.0  0.95318  0.49816  0.81064  1.0000
  S   S349      1.0  0.65975  0.12209  0.79671  1.0000
  H   H2109     1.0  0.66020  0.25932  0.85504  1.0000
  C   C2630     1.0  0.86035  0.00904  0.98993  1.0000
  P   P87       1.0  0.69597  0.46256  0.74370  1.0000
  C   C2631     1.0  0.77528  0.49266  0.74439  1.0000
  C   C2632     1.0  0.72920  0.46580  0.74438  1.0000
  S   S350      1.0  0.98050  0.27751  0.99269  1.0000
  Fe  Fe173     1.0  0.96151  0.73379  0.01802  1.0000
  S   S351      1.0  0.91999  0.72305  0.02570  1.0000
  S   S352      1.0  0.97154  0.69900  0.01344  1.0000
  C   C2633     1.0  0.74045  0.88192  0.00693  1.0000
  S   S353      1.0  0.72402  0.96171  0.01145  1.0000
  S   S354      1.0  0.70647  0.98098  0.05119  1.0000
  Fe  Fe174     1.0  0.76387  0.96304  0.01617  1.0000
  S   S355      1.0  0.77590  0.92816  0.01927  1.0000
  H   H2110     1.0  0.68638  0.84699  0.02165  1.0000
  Fe  Fe175     1.0  0.79127  0.75556  0.01647  1.0000
  S   S356      1.0  0.83509  0.77028  0.01314  1.0000
  Fe  Fe176     1.0  0.74035  0.73267  0.03340  1.0000
  S   S357      1.0  0.71613  0.73263  0.01448  1.0000
  S   S358      1.0  0.72263  0.71748  0.05497  1.0000
  Fe  Fe177     1.0  0.74661  0.77333  0.01052  1.0000
  C   C2634     1.0  0.95284  0.88061  0.04193  1.0000
  S   S359      1.0  0.76391  0.71471  0.02174  1.0000
  S   S360      1.0  0.77002  0.77400  0.03004  1.0000
  C   C2635     1.0  0.68908  0.70237  0.05885  1.0000
  C   C2636     1.0  0.72482  0.92770  0.06225  1.0000
  H   H2111     1.0  0.82036  0.85769  0.00426  1.0000
  C   C2637     1.0  0.67520  0.95968  0.05718  1.0000
  H   H2112     1.0  0.77061  0.58316  0.00077  1.0000
  C   C2638     1.0  0.82774  0.64944  0.01313  1.0000
  C   C2639     1.0  0.76251  0.89384  0.01543  1.0000
  C   C2640     1.0  0.69752  0.88673  0.05085  1.0000
  S   S361      1.0  0.76990  0.98747  0.03585  1.0000
  C   C2641     1.0  0.74441  0.83942  0.00883  1.0000
  C   C2642     1.0  0.76594  0.85115  0.01772  1.0000
  C   C2643     1.0  0.77501  0.87819  0.02089  1.0000
  H   H2113     1.0  0.77596  0.83954  0.02191  1.0000
  H   H2114     1.0  0.79208  0.88713  0.02748  1.0000
  C   C2644     1.0  0.89546  0.73414  0.02038  1.0000
  C   C2645     1.0  0.85676  0.75407  0.01494  1.0000
  C   C2646     1.0  0.85122  0.73159  0.02323  1.0000
  C   C2647     1.0  0.87050  0.72181  0.02599  1.0000
  H   H2115     1.0  0.83248  0.72245  0.02805  1.0000
  H   H2116     1.0  0.86629  0.70506  0.03287  1.0000
  C   C2648     1.0  0.70807  0.62548  0.01172  1.0000
  H   H2117     1.0  0.67537  0.70546  0.03789  1.0000
  H   H2118     1.0  0.97123  0.50569  0.22246  1.0000
  C   C2649     1.0  0.68211  0.78292  0.07649  1.0000
  H   H2119     1.0  0.69268  0.82428  0.08059  1.0000
  C   C2650     1.0  0.70240  0.65635  0.02789  1.0000
  H   H2120     1.0  0.71493  0.84614  0.99670  1.0000
  H   H2121     1.0  0.85201  0.89857  0.01508  1.0000
  H   H2122     1.0  0.88195  0.61430  0.01842  1.0000
  H   H2123     1.0  0.71277  0.72069  0.10553  1.0000
  C   C2651     1.0  0.84246  0.92413  0.00095  1.0000
  C   C2652     1.0  0.66992  0.69885  0.04856  1.0000
  H   H2124     1.0  0.98253  0.93122  0.01201  1.0000
  C   C2653     1.0  0.84457  0.98386  0.99477  1.0000
  H   H2125     1.0  0.66032  0.76391  0.02780  1.0000
  C   C2654     1.0  0.71972  0.88339  0.04647  1.0000
  H   H2126     1.0  0.78059  0.67056  0.02126  1.0000
  H   H2127     1.0  0.72253  0.83924  0.06063  1.0000
  C   C2655     1.0  0.80945  0.65420  0.02116  1.0000
  C   C2656     1.0  0.95211  0.90548  0.04268  1.0000
  H   H2128     1.0  0.80693  0.64848  0.03218  1.0000
  H   H2129     1.0  0.68347  0.91214  0.06219  1.0000
  C   C2657     1.0  0.97417  0.91707  0.02035  1.0000
  H   H2130     1.0  0.76582  0.93908  0.06020  1.0000
  P   P88       1.0  0.66548  0.86361  0.04607  1.0000
  C   C2658     1.0  0.69078  0.81301  0.10868  1.0000
  H   H2131     1.0  0.85168  0.58381  0.00112  1.0000
  C   C2659     1.0  0.88225  0.62001  0.00744  1.0000
  H   H2132     1.0  0.88557  0.78264  0.00214  1.0000
  H   H2133     1.0  0.66983  0.66621  0.02382  1.0000
  H   H2134     1.0  0.91129  0.83672  0.02919  1.0000
  C   C2660     1.0  0.67111  0.95558  0.07182  1.0000
  C   C2661     1.0  0.68587  0.62368  0.00420  1.0000
  C   C2662     1.0  0.66519  0.90292  0.02737  1.0000
  H   H2135     1.0  0.91321  0.75748  0.05274  1.0000
  C   C2663     1.0  0.69033  0.74278  0.09933  1.0000
  H   H2136     1.0  0.87111  0.80270  0.03815  1.0000
  H   H2137     1.0  0.91944  0.76508  0.00690  1.0000
  H   H2138     1.0  0.70892  0.66924  0.03699  1.0000
  C   C2664     1.0  0.91309  0.77537  0.04814  1.0000
  H   H2139     1.0  0.76134  0.89954  0.04660  1.0000
  C   C2665     1.0  0.66567  0.79574  0.10482  1.0000
  H   H2140     1.0  0.68410  0.80380  0.01379  1.0000
  C   C2666     1.0  0.69469  0.72299  0.10673  1.0000
  Fe  Fe178     1.0  0.73052  0.98698  0.03098  1.0000
  H   H2141     1.0  0.69612  0.69654  0.08076  1.0000
  C   C2667     1.0  0.74423  0.90195  0.05015  1.0000
  H   H2142     1.0  0.72674  0.94528  0.06796  1.0000
  H   H2143     1.0  0.68485  0.68849  0.99847  1.0000
  H   H2144     1.0  0.73372  0.64356  0.02925  1.0000
  H   H2145     1.0  0.91408  0.65738  0.01055  1.0000
  C   C2668     1.0  0.66669  0.74547  0.10057  1.0000
  Fe  Fe179     1.0  0.74142  0.71715  0.00230  1.0000
  H   H2146     1.0  0.71842  0.86683  0.04010  1.0000
  S   S362      1.0  0.97710  0.75480  0.99777  1.0000
  C   C2669     1.0  0.97489  0.89220  0.01957  1.0000
  H   H2147     1.0  0.94332  0.91062  0.05164  1.0000
  C   C2670     1.0  0.84021  0.89969  0.00618  1.0000
  H   H2148     1.0  0.68167  0.91655  0.03317  1.0000
  H   H2149     1.0  0.68714  0.96462  0.07909  1.0000
  H   H2150     1.0  0.68015  0.61136  0.99491  1.0000
  C   C2671     1.0  0.79467  0.66673  0.01504  1.0000
  C   C2672     1.0  0.67352  0.83324  0.12614  1.0000
  H   H2151     1.0  0.71405  0.84538  0.12198  1.0000
  C   C2673     1.0  0.67616  0.82980  0.02802  1.0000
  C   C2674     1.0  0.83774  0.98048  0.00905  1.0000
  C   C2675     1.0  0.68148  0.69403  0.07274  1.0000
  H   H2152     1.0  0.96218  0.94296  0.03247  1.0000
  C   C2676     1.0  0.68509  0.76480  0.06714  1.0000
  C   C2677     1.0  0.93580  0.81717  0.03646  1.0000
  C   C2678     1.0  0.67559  0.70586  0.11544  1.0000
  H   H2153     1.0  0.67464  0.74393  0.06874  1.0000
  C   C2679     1.0  0.69465  0.83188  0.11918  1.0000
  C   C2680     1.0  0.88985  0.77861  0.04663  1.0000
  C   C2681     1.0  0.74680  0.92423  0.05787  1.0000
  C   C2682     1.0  0.71633  0.64182  0.02355  1.0000
  C   C2683     1.0  0.68026  0.65464  0.02038  1.0000
  H   H2154     1.0  0.72815  0.80692  0.04444  1.0000
  H   H2155     1.0  0.67648  0.84792  0.13424  1.0000
  H   H2156     1.0  0.70425  0.75938  0.04862  1.0000
  C   C2684     1.0  0.70030  0.90893  0.05888  1.0000
  C   C2685     1.0  0.86500  0.60294  0.99764  1.0000
  H   H2157     1.0  0.73045  0.89354  0.00274  1.0000
  C   C2686     1.0  0.88940  0.80087  0.03989  1.0000
  S   S363      1.0  0.73298  0.80573  0.00375  1.0000
  C   C2687     1.0  0.90045  0.64422  0.00302  1.0000
  C   C2688     1.0  0.69528  0.80987  0.07388  1.0000
  C   C2689     1.0  0.71204  0.81848  0.06246  1.0000
  C   C2690     1.0  0.71531  0.80030  0.05337  1.0000
  C   C2691     1.0  0.70178  0.77348  0.05570  1.0000
  C   C2692     1.0  0.73165  0.85497  0.00355  1.0000
  C   C2693     1.0  0.93597  0.79448  0.04304  1.0000
  C   C2694     1.0  0.90047  0.75562  0.01139  1.0000
  H   H2158     1.0  0.83950  0.64009  0.01792  1.0000
  C   C2695     1.0  0.98450  0.51253  0.19278  1.0000
  H   H2159     1.0  0.70542  0.75578  0.09264  1.0000
  H   H2160     1.0  0.87200  0.76335  0.05014  1.0000
  C   C2696     1.0  0.79844  0.67496  0.00096  1.0000
  H   H2161     1.0  0.97583  0.56017  0.22726  1.0000
  C   C2697     1.0  0.67182  0.63830  0.00847  1.0000
  H   H2162     1.0  0.70739  0.81181  0.10361  1.0000
  C   C2698     1.0  0.88127  0.76553  0.00874  1.0000
  H   H2163     1.0  0.95348  0.79099  0.04397  1.0000
  H   H2164     1.0  0.71926  0.61478  0.00814  1.0000
  C   C2699     1.0  0.67469  0.80532  0.02344  1.0000
  H   H2165     1.0  0.78702  0.68497  0.99648  1.0000
  P   P89       1.0  0.96517  0.84169  0.02946  1.0000
  C   C2700     1.0  0.94576  0.82083  0.00293  1.0000
  H   H2166     1.0  0.92679  0.81574  0.00727  1.0000
  H   H2167     1.0  0.94472  0.86677  0.05044  1.0000
  H   H2168     1.0  0.67879  0.69025  0.12099  1.0000
  C   C2701     1.0  0.91223  0.82005  0.03478  1.0000
  C   C2702     1.0  0.96407  0.87373  0.03031  1.0000
  C   C2703     1.0  0.83136  0.65734  0.99900  1.0000
  C   C2704     1.0  0.96797  0.83359  0.01126  1.0000
  H   H2169     1.0  0.85652  0.94170  0.00575  1.0000
  H   H2170     1.0  0.82487  0.96158  0.01293  1.0000
  C   C2705     1.0  0.96274  0.92369  0.03188  1.0000
  H   H2171     1.0  0.66470  0.93283  0.01292  1.0000
  H   H2172     1.0  0.81654  0.59810  0.99515  1.0000
  C   C2706     1.0  0.82249  0.87664  0.00004  1.0000
  H   H2173     1.0  0.66461  0.54592  0.24032  1.0000
  H   H2174     1.0  0.95630  0.52610  0.20073  1.0000
  H   H2175     1.0  0.67383  0.85608  0.07590  1.0000
  S   S364      1.0  0.76951  0.75765  0.99666  1.0000
  C   C2707     1.0  0.66453  0.83203  0.04068  1.0000
  C   C2708     1.0  0.66117  0.78281  0.03131  1.0000
  C   C2709     1.0  0.96003  0.51330  0.19328  1.0000
  P   P90       1.0  0.66084  0.77120  0.09136  1.0000
  H   H2176     1.0  0.66439  0.51289  0.22307  1.0000
  H   H2177     1.0  0.98397  0.88752  0.01059  1.0000
  H   H2178     1.0  0.66786  0.64159  0.24110  1.0000
  H   H2179     1.0  0.84128  0.99893  0.02939  1.0000
  C   C2710     1.0  0.81703  0.67057  0.99289  1.0000
  H   H2180     1.0  0.84570  0.65359  0.99297  1.0000
  Fe  Fe180     1.0  0.98777  0.72034  0.99333  1.0000
  S   S365      1.0  0.67648  0.58084  0.34357  1.0000
  H   H2181     1.0  0.93904  0.70967  0.47881  1.0000
  C   C2711     1.0  0.96558  0.54503  0.25671  1.0000
  S   S366      1.0  0.69632  0.51855  0.34263  1.0000
  C   C2712     1.0  0.84147  0.68656  0.40331  1.0000
  Fe  Fe181     1.0  0.85487  0.55689  0.34172  1.0000
  S   S367      1.0  0.86390  0.53402  0.35925  1.0000
  S   S368      1.0  0.82019  0.56890  0.33886  1.0000
  Fe  Fe182     1.0  0.91031  0.57370  0.32931  1.0000
  S   S369      1.0  0.92288  0.55220  0.34615  1.0000
  S   S370      1.0  0.93258  0.59764  0.31032  1.0000
  Fe  Fe183     1.0  0.88371  0.51909  0.34285  1.0000
  Fe  Fe184     1.0  0.90237  0.56877  0.36130  1.0000
  S   S371      1.0  0.91488  0.58534  0.38357  1.0000
  S   S372      1.0  0.87222  0.54009  0.32509  1.0000
  S   S373      1.0  0.89231  0.59216  0.34471  1.0000
  Fe  Fe185     1.0  0.94695  0.73335  0.43711  1.0000
  S   S374      1.0  0.90394  0.71818  0.43322  1.0000
  S   S375      1.0  0.95936  0.70008  0.44033  1.0000
  Fe  Fe186     1.0  0.77742  0.95923  0.45096  1.0000
  S   S376      1.0  0.73642  0.95557  0.44850  1.0000
  S   S377      1.0  0.79328  0.92751  0.44912  1.0000
  C   C2713     1.0  0.96832  0.67655  0.34156  1.0000
  Fe  Fe187     1.0  0.75291  0.99381  0.43647  1.0000
  C   C2714     1.0  0.71983  0.57151  0.37398  1.0000
  Fe  Fe188     1.0  0.74754  0.72889  0.45795  1.0000
  S   S378      1.0  0.77112  0.77203  0.45924  1.0000
  S   S379      1.0  0.73479  0.70196  0.47695  1.0000
  Fe  Fe189     1.0  0.74840  0.72715  0.42525  1.0000
  S   S380      1.0  0.77253  0.77085  0.42435  1.0000
  S   S381      1.0  0.74100  0.70527  0.40392  1.0000
  Fe  Fe190     1.0  0.79523  0.76432  0.44259  1.0000
  S   S382      1.0  0.83858  0.78573  0.44502  1.0000
  Fe  Fe191     1.0  0.74648  0.77503  0.44101  1.0000
  S   S383      1.0  0.72834  0.80505  0.44052  1.0000
  S   S384      1.0  0.77330  0.72067  0.44246  1.0000
  S   S385      1.0  0.72056  0.73184  0.44075  1.0000
  C   C2715     1.0  0.77479  0.89363  0.44642  1.0000
  C   C2716     1.0  0.74792  0.88350  0.44476  1.0000
  C   C2717     1.0  0.73394  0.85631  0.44300  1.0000
  C   C2718     1.0  0.74669  0.83908  0.44265  1.0000
  C   C2719     1.0  0.77358  0.84925  0.44411  1.0000
  C   C2720     1.0  0.78753  0.87638  0.44609  1.0000
  H   H2182     1.0  0.73789  0.89656  0.44486  1.0000
  H   H2183     1.0  0.71314  0.84859  0.44183  1.0000
  H   H2184     1.0  0.78358  0.83618  0.44371  1.0000
  H   H2185     1.0  0.80832  0.88407  0.44729  1.0000
  H   H2186     1.0  0.68616  0.56567  0.38623  1.0000
  C   C2721     1.0  0.81062  0.58026  0.37782  1.0000
  H   H2187     1.0  0.67272  0.74032  0.45757  1.0000
  H   H2188     1.0  0.91763  0.81694  0.47115  1.0000
  C   C2722     1.0  0.67392  0.58906  0.25705  1.0000
  C   C2723     1.0  0.88664  0.73755  0.43690  1.0000
  C   C2724     1.0  0.85975  0.72617  0.43540  1.0000
  C   C2725     1.0  0.84505  0.74099  0.43769  1.0000
  C   C2726     1.0  0.85703  0.76711  0.44192  1.0000
  C   C2727     1.0  0.88400  0.77852  0.44358  1.0000
  C   C2728     1.0  0.89886  0.76377  0.44108  1.0000
  H   H2189     1.0  0.85021  0.70575  0.43245  1.0000
  H   H2190     1.0  0.82446  0.73216  0.43606  1.0000
  H   H2191     1.0  0.89342  0.79876  0.44672  1.0000
  H   H2192     1.0  0.91966  0.77264  0.44229  1.0000
  H   H2193     1.0  0.84351  0.65079  0.39634  1.0000
  C   C2729     1.0  0.88963  0.70048  0.35714  1.0000
  C   C2730     1.0  0.93664  0.61740  0.38885  1.0000
  C   C2731     1.0  0.93775  0.62451  0.40317  1.0000
  C   C2732     1.0  0.95444  0.64966  0.40793  1.0000
  C   C2733     1.0  0.97102  0.66781  0.39850  1.0000
  C   C2734     1.0  0.97329  0.57239  0.25617  1.0000
  C   C2735     1.0  0.95284  0.63575  0.37934  1.0000
  H   H2194     1.0  0.92546  0.61049  0.41065  1.0000
  H   H2195     1.0  0.95495  0.65472  0.41897  1.0000
  C   C2736     1.0  0.71771  0.65878  0.33667  1.0000
  H   H2196     1.0  0.95237  0.63059  0.36830  1.0000
  C   C2737     1.0  0.67940  0.62606  0.38815  1.0000
  C   C2738     1.0  0.69969  0.64142  0.37946  1.0000
  C   C2739     1.0  0.71838  0.66548  0.38450  1.0000
  C   C2740     1.0  0.71710  0.67451  0.39825  1.0000
  C   C2741     1.0  0.69684  0.65912  0.40690  1.0000
  C   C2742     1.0  0.67815  0.63511  0.40187  1.0000
  H   H2197     1.0  0.70098  0.63476  0.36890  1.0000
  H   H2198     1.0  0.73390  0.67722  0.37768  1.0000
  H   H2199     1.0  0.69551  0.66574  0.41747  1.0000
  C   C2743     1.0  0.90634  0.67325  0.37930  1.0000
  C   C2744     1.0  0.73078  0.53300  0.34180  1.0000
  C   C2745     1.0  0.74488  0.51747  0.34479  1.0000
  C   C2746     1.0  0.77216  0.52796  0.34400  1.0000
  C   C2747     1.0  0.78573  0.55411  0.34001  1.0000
  C   C2748     1.0  0.77155  0.56955  0.33697  1.0000
  C   C2749     1.0  0.74435  0.55918  0.33790  1.0000
  H   H2200     1.0  0.70967  0.73919  0.47166  1.0000
  H   H2201     1.0  0.78266  0.51575  0.34636  1.0000
  H   H2202     1.0  0.78173  0.58969  0.33379  1.0000
  H   H2203     1.0  0.73393  0.57144  0.33554  1.0000
  C   C2750     1.0  0.97983  0.75177  0.38444  1.0000
  C   C2751     1.0  0.96141  0.72791  0.37960  1.0000
  C   C2752     1.0  0.96434  0.60386  0.30441  1.0000
  H   H2204     1.0  0.80407  0.57930  0.36695  1.0000
  H   H2205     1.0  0.66965  0.74609  0.39583  1.0000
  H   H2206     1.0  0.68380  0.50412  0.30101  1.0000
  P   P91       1.0  0.98675  0.53016  0.25034  1.0000
  H   H2207     1.0  0.69726  0.58492  0.30752  1.0000
  H   H2208     1.0  0.70239  0.95270  0.39541  1.0000
  C   C2753     1.0  0.95666  0.77475  0.37261  1.0000
  C   C2754     1.0  0.82048  0.68375  0.49065  1.0000
  H   H2209     1.0  0.97551  0.86295  0.45920  1.0000
  C   C2755     1.0  0.96150  0.84180  0.42524  1.0000
  H   H2210     1.0  0.95752  0.84915  0.35956  1.0000
  C   C2756     1.0  0.74650  0.58517  0.37285  1.0000
  H   H2211     1.0  0.93664  0.54711  0.30250  1.0000
  C   C2757     1.0  0.70118  0.51517  0.39579  1.0000
  C   C2758     1.0  0.77283  0.83121  0.47968  1.0000
  C   C2759     1.0  0.92476  0.71823  0.47899  1.0000
  H   H2212     1.0  0.83232  0.93913  0.47119  1.0000
  C   C2760     1.0  0.68855  0.56703  0.30141  1.0000
  H   H2213     1.0  0.82353  0.54898  0.37490  1.0000
  C   C2761     1.0  0.66192  0.93830  0.30889  1.0000
  C   C2762     1.0  0.70013  0.68591  0.34906  1.0000
  H   H2214     1.0  0.70357  0.70340  0.35518  1.0000
  C   C2763     1.0  0.69668  0.93843  0.33032  1.0000
  H   H2215     1.0  0.83820  0.54973  0.39980  1.0000
  C   C2764     1.0  0.93846  0.75087  0.36749  1.0000
  H   H2216     1.0  0.70463  0.54522  0.31453  1.0000
  C   C2765     1.0  0.66056  0.54291  0.28204  1.0000
  H   H2217     1.0  0.83705  0.85661  0.48776  1.0000
  C   C2766     1.0  0.72132  0.68040  0.34523  1.0000
  H   H2218     1.0  0.86618  0.68775  0.37576  1.0000
  C   C2767     1.0  0.94218  0.52969  0.26322  1.0000
  H   H2219     1.0  0.74055  0.69313  0.34876  1.0000
  Fe  Fe192     1.0  0.66682  0.53756  0.34356  1.0000
  H   H2220     1.0  0.92263  0.75106  0.36098  1.0000
  S   S386      1.0  0.99088  0.70936  0.47780  1.0000
  C   C2768     1.0  0.97333  0.61891  0.29211  1.0000
  H   H2221     1.0  0.68420  0.81480  0.47563  1.0000
  C   C2769     1.0  0.95230  0.65916  0.33152  1.0000
  S   S387      1.0  0.78486  0.98179  0.47139  1.0000
  H   H2222     1.0  0.68875  0.58223  0.26022  1.0000
  C   C2770     1.0  0.89934  0.66467  0.40446  1.0000
  C   C2771     1.0  0.68996  0.79844  0.47498  1.0000
  C   C2772     1.0  0.70684  0.57631  0.38536  1.0000
  H   H2223     1.0  0.70922  0.55705  0.36608  1.0000
  H   H2224     1.0  0.91347  0.63940  0.32368  1.0000
  C   C2773     1.0  0.89054  0.70999  0.34330  1.0000
  H   H2225     1.0  0.75338  0.86964  0.47626  1.0000
  H   H2226     1.0  0.83207  0.58047  0.41692  1.0000
  H   H2227     1.0  0.93598  0.50870  0.26418  1.0000
  C   C2774     1.0  0.70419  0.75576  0.47255  1.0000
  C   C2775     1.0  0.82569  0.93783  0.48198  1.0000
  H   H2228     1.0  0.88005  0.62408  0.41035  1.0000
  H   H2229     1.0  0.67575  0.95790  0.37582  1.0000
  C   C2776     1.0  0.81550  0.59821  0.40144  1.0000
  C   C2777     1.0  0.67519  0.92182  0.30790  1.0000
  C   C2778     1.0  0.88877  0.74134  0.47868  1.0000
  C   C2779     1.0  0.88400  0.71845  0.47094  1.0000
  C   C2780     1.0  0.90202  0.70697  0.47104  1.0000
  C   C2781     1.0  0.95792  0.68809  0.35149  1.0000
  H   H2230     1.0  0.70643  0.91351  0.48135  1.0000
  H   H2231     1.0  0.81274  0.61132  0.40905  1.0000
  Fe  Fe193     1.0  0.74521  0.98086  0.46815  1.0000
  H   H2232     1.0  0.72454  0.51835  0.37748  1.0000
  C   C2782     1.0  0.73663  0.96296  0.38300  1.0000
  C   C2783     1.0  0.82136  0.56273  0.38235  1.0000
  C   C2784     1.0  0.69566  0.96130  0.37383  1.0000
  S   S388      1.0  0.97569  0.75277  0.42028  1.0000
  C   C2785     1.0  0.93833  0.52833  0.30294  1.0000
  C   C2786     1.0  0.71062  0.89652  0.48399  1.0000
  C   C2787     1.0  0.69254  0.54466  0.30542  1.0000
  C   C2788     1.0  0.73276  0.97424  0.35856  1.0000
  H   H2233     1.0  0.86684  0.71018  0.46435  1.0000
  H   H2234     1.0  0.89877  0.68986  0.46456  1.0000
  C   C2789     1.0  0.94075  0.72719  0.37093  1.0000
  C   C2790     1.0  0.74765  0.97085  0.36975  1.0000
  P   P92       1.0  0.79471  0.62148  0.38114  1.0000
  C   C2791     1.0  0.76030  0.60418  0.38291  1.0000
  C   C2792     1.0  0.80694  0.65245  0.39040  1.0000
  C   C2793     1.0  0.79266  0.66825  0.39034  1.0000
  C   C2794     1.0  0.80260  0.69283  0.39689  1.0000
  C   C2795     1.0  0.68067  0.52141  0.29777  1.0000
  C   C2796     1.0  0.88340  0.62875  0.38779  1.0000
  C   C2797     1.0  0.74722  0.60857  0.39449  1.0000
  C   C2798     1.0  0.72052  0.59480  0.39561  1.0000
  S   S389      1.0  0.97249  0.75799  0.45440  1.0000
  C   C2799     1.0  0.80235  0.63036  0.36289  1.0000
  C   C2800     1.0  0.78563  0.63770  0.35442  1.0000
  C   C2801     1.0  0.79145  0.64457  0.34027  1.0000
  C   C2802     1.0  0.81395  0.64414  0.33448  1.0000
  C   C2803     1.0  0.83085  0.63727  0.34291  1.0000
  C   C2804     1.0  0.82536  0.63087  0.35712  1.0000
  H   H2235     1.0  0.77380  0.66165  0.38526  1.0000
  H   H2236     1.0  0.79123  0.70469  0.39707  1.0000
  H   H2237     1.0  0.84238  0.81767  0.47501  1.0000
  H   H2238     1.0  0.75747  0.62259  0.40263  1.0000
  H   H2239     1.0  0.71028  0.59869  0.40433  1.0000
  H   H2240     1.0  0.80683  0.83801  0.46752  1.0000
  H   H2241     1.0  0.76795  0.63778  0.35871  1.0000
  H   H2242     1.0  0.77824  0.64962  0.33368  1.0000
  H   H2243     1.0  0.81809  0.64861  0.32341  1.0000
  H   H2244     1.0  0.84784  0.63606  0.33832  1.0000
  H   H2245     1.0  0.83882  0.62573  0.36344  1.0000
  C   C2805     1.0  0.95984  0.80410  0.47585  1.0000
  C   C2806     1.0  0.97597  0.88218  0.37338  1.0000
  H   H2246     1.0  0.74456  0.90879  0.47113  1.0000
  H   H2247     1.0  0.87013  0.72115  0.32681  1.0000
  H   H2248     1.0  0.98331  0.67422  0.37687  1.0000
  H   H2249     1.0  0.90763  0.71433  0.33699  1.0000
  H   H2250     1.0  0.75997  0.82353  0.47067  1.0000
  H   H2251     1.0  0.81300  0.66805  0.46951  1.0000
  C   C2807     1.0  0.67616  0.77766  0.46590  1.0000
  C   C2808     1.0  0.98058  0.59397  0.31143  1.0000
  H   H2252     1.0  0.83087  0.71171  0.34109  1.0000
  H   H2253     1.0  0.89465  0.65903  0.34134  1.0000
  C   C2809     1.0  0.85778  0.81279  0.47941  1.0000
  H   H2254     1.0  0.73409  0.65463  0.33353  1.0000
  H   H2255     1.0  0.97087  0.70126  0.35914  1.0000
  H   H2256     1.0  0.90907  0.52974  0.27436  1.0000
  H   H2257     1.0  0.95474  0.79293  0.37003  1.0000
  H   H2258     1.0  0.89100  0.63862  0.36600  1.0000
  H   H2259     1.0  0.90233  0.67175  0.41527  1.0000
  C   C2810     1.0  0.93125  0.68211  0.35156  1.0000
  C   C2811     1.0  0.71068  0.95818  0.38502  1.0000
  H   H2260     1.0  0.92300  0.57798  0.27326  1.0000
  H   H2261     1.0  0.94630  0.79132  0.46818  1.0000
  S   S390      1.0  0.79372  0.99579  0.43765  1.0000
  C   C2812     1.0  0.68359  0.95527  0.33135  1.0000
  C   C2813     1.0  0.80867  0.59894  0.38716  1.0000
  H   H2262     1.0  0.74171  0.98107  0.34845  1.0000
  H   H2263     1.0  0.86035  0.69359  0.40844  1.0000
  C   C2814     1.0  0.82698  0.70199  0.40337  1.0000
  H   H2264     1.0  0.76783  0.97466  0.36824  1.0000
  C   C2815     1.0  0.88054  0.76054  0.38930  1.0000
  C   C2816     1.0  0.89459  0.74626  0.39414  1.0000
  C   C2817     1.0  0.91571  0.75792  0.40323  1.0000
  C   C2818     1.0  0.92284  0.78388  0.40761  1.0000
  C   C2819     1.0  0.90881  0.79844  0.40287  1.0000
  C   C2820     1.0  0.88770  0.78658  0.39357  1.0000
  P   P93       1.0  0.91921  0.83282  0.40724  1.0000
  C   C2821     1.0  0.89116  0.84089  0.40796  1.0000
  C   C2822     1.0  0.93616  0.84057  0.42408  1.0000
  C   C2823     1.0  0.92521  0.84756  0.43580  1.0000
  C   C2824     1.0  0.93938  0.85561  0.44840  1.0000
  C   C2825     1.0  0.91530  0.66453  0.34139  1.0000
  C   C2826     1.0  0.81491  0.70749  0.47023  1.0000
  C   C2827     1.0  0.68114  0.61353  0.25048  1.0000
  C   C2828     1.0  0.89188  0.86487  0.40269  1.0000
  C   C2829     1.0  0.87019  0.87108  0.40371  1.0000
  C   C2830     1.0  0.84772  0.85347  0.41002  1.0000
  C   C2831     1.0  0.84691  0.82962  0.41530  1.0000
  C   C2832     1.0  0.86852  0.82334  0.41429  1.0000
  C   C2833     1.0  0.94111  0.85217  0.39386  1.0000
  C   C2834     1.0  0.94052  0.84208  0.38022  1.0000
  C   C2835     1.0  0.95793  0.85705  0.37004  1.0000
  H   H2265     1.0  0.66257  0.62345  0.40869  1.0000
  H   H2266     1.0  0.88326  0.83030  0.46223  1.0000
  C   C2836     1.0  0.95914  0.87755  0.39708  1.0000
  H   H2267     1.0  0.86409  0.75141  0.38227  1.0000
  H   H2268     1.0  0.88916  0.72612  0.39091  1.0000
  H   H2269     1.0  0.92640  0.74667  0.40707  1.0000
  H   H2270     1.0  0.93917  0.79221  0.41475  1.0000
  H   H2271     1.0  0.87682  0.79750  0.38953  1.0000
  H   H2272     1.0  0.90583  0.84703  0.43528  1.0000
  C   C2837     1.0  0.81826  0.72906  0.47878  1.0000
  C   C2838     1.0  0.68321  0.75628  0.46473  1.0000
  H   H2273     1.0  0.85320  0.97625  0.48764  1.0000
  C   C2839     1.0  0.71836  0.77676  0.48137  1.0000
  H   H2274     1.0  0.90912  0.87888  0.39787  1.0000
  H   H2275     1.0  0.87080  0.88964  0.39968  1.0000
  H   H2276     1.0  0.83095  0.85832  0.41091  1.0000
  H   H2277     1.0  0.82959  0.81601  0.42032  1.0000
  H   H2278     1.0  0.86762  0.80489  0.41861  1.0000
  H   H2279     1.0  0.92677  0.82268  0.37741  1.0000
  C   C2840     1.0  0.88094  0.81989  0.47217  1.0000
  C   C2841     1.0  0.67498  0.66911  0.34487  1.0000
  H   H2280     1.0  0.93097  0.86128  0.45734  1.0000
  H   H2281     1.0  0.95988  0.88584  0.40750  1.0000
  C   C2842     1.0  0.89323  0.64631  0.37663  1.0000
  H   H2282     1.0  0.91877  0.70291  0.39581  1.0000
  C   C2843     1.0  0.83164  0.66202  0.39670  1.0000
  C   C2844     1.0  0.84632  0.69940  0.35939  1.0000
  H   H2283     1.0  0.96327  0.70991  0.38266  1.0000
  H   H2284     1.0  0.98210  0.50134  0.29780  1.0000
  H   H2285     1.0  0.98956  0.89370  0.36551  1.0000
  C   C2845     1.0  0.66467  0.52046  0.28615  1.0000
  C   C2846     1.0  0.82945  0.56307  0.39639  1.0000
  H   H2286     1.0  0.97407  0.58253  0.32096  1.0000
  C   C2847     1.0  0.73214  0.89390  0.47825  1.0000
  C   C2848     1.0  0.90032  0.81219  0.47724  1.0000
  C   C2849     1.0  0.93456  0.56873  0.26838  1.0000
  H   H2287     1.0  0.82913  0.69507  0.36560  1.0000
  C   C2850     1.0  0.92585  0.65331  0.33136  1.0000
  H   H2288     1.0  0.96103  0.62688  0.28667  1.0000
  C   C2851     1.0  0.97738  0.77520  0.38105  1.0000
  C   C2852     1.0  0.96158  0.52646  0.29956  1.0000
  H   H2289     1.0  0.83457  0.72103  0.40847  1.0000
  C   C2853     1.0  0.66758  0.69520  0.37528  1.0000
  C   C2854     1.0  0.71121  0.79813  0.48281  1.0000
  P   P94       1.0  0.91720  0.69598  0.36471  1.0000
  C   C2855     1.0  0.81591  0.68482  0.47617  1.0000
  C   C2856     1.0  0.90895  0.68233  0.39331  1.0000
  C   C2857     1.0  0.67272  0.56620  0.28976  1.0000
  C   C2858     1.0  0.66605  0.95486  0.32054  1.0000
  S   S391      1.0  0.71616  0.97182  0.48582  1.0000
  C   C2859     1.0  0.95228  0.80525  0.48981  1.0000
  C   C2860     1.0  0.86939  0.71399  0.33753  1.0000
  C   C2861     1.0  0.70661  0.96948  0.36050  1.0000
  H   H2290     1.0  0.81133  0.70824  0.45902  1.0000
  H   H2291     1.0  0.69017  0.62643  0.32495  1.0000
  P   P95       1.0  0.68845  0.97688  0.34640  1.0000
  C   C2862     1.0  0.91174  0.75294  0.48664  1.0000
  H   H2292     1.0  0.87487  0.75025  0.47791  1.0000
  H   H2293     1.0  0.67344  0.67881  0.37568  1.0000
  C   C2863     1.0  0.79944  0.83950  0.47785  1.0000
  C   C2864     1.0  0.92678  0.54154  0.26903  1.0000
  H   H2294     1.0  0.97788  0.54398  0.29654  1.0000
  C   C2865     1.0  0.73739  0.87184  0.48141  1.0000
  H   H2295     1.0  0.71568  0.53189  0.40110  1.0000
  H   H2296     1.0  0.75642  0.58089  0.36416  1.0000
  H   H2297     1.0  0.74821  0.96088  0.39181  1.0000
  Fe  Fe194     1.0  0.98915  0.72010  0.42415  1.0000
  H   H2298     1.0  0.87437  0.60788  0.38566  1.0000
  C   C2866     1.0  0.67158  0.64757  0.33620  1.0000
  H   H2299     1.0  0.96029  0.64986  0.32396  1.0000
  C   C2867     1.0  0.86737  0.69521  0.36513  1.0000
  C   C2868     1.0  0.88664  0.63787  0.40170  1.0000
  C   C2869     1.0  0.69292  0.64269  0.33197  1.0000
  C   C2870     1.0  0.82618  0.58055  0.40598  1.0000
  H   H2300     1.0  0.67188  0.90893  0.29886  1.0000
  H   H2301     1.0  0.79646  0.89914  0.47921  1.0000
  C   C2871     1.0  0.84730  0.70874  0.34558  1.0000
  C   C2872     1.0  0.97024  0.66058  0.38420  1.0000
  C   C2873     1.0  0.81642  0.84990  0.48924  1.0000
  C   C2874     1.0  0.95764  0.58408  0.26179  1.0000
  H   H2302     1.0  0.66638  0.73015  0.33586  1.0000
  H   H2303     1.0  0.70985  0.93770  0.33854  1.0000
  Fe  Fe195     1.0  0.98743  0.72625  0.45635  1.0000
  C   C2875     1.0  0.66232  0.62266  0.24623  1.0000
  C   C2876     1.0  0.97653  0.89243  0.38688  1.0000
  H   H2304     1.0  0.96382  0.60521  0.26145  1.0000
  H   H2305     1.0  0.81713  0.74648  0.47409  1.0000
  C   C2877     1.0  0.85410  0.79843  0.49192  1.0000
  C   C2878     1.0  0.89663  0.79734  0.48966  1.0000
  H   H2306     1.0  0.68374  0.70900  0.39591  1.0000
  C   C2879     1.0  0.67320  0.71213  0.38687  1.0000
  C   C2880     1.0  0.92965  0.74116  0.48667  1.0000
  C   C2881     1.0  0.70620  0.50757  0.38251  1.0000
  H   H2307     1.0  0.67351  0.50729  0.41244  1.0000
  C   C2882     1.0  0.66525  0.73299  0.38682  1.0000
  C   C2883     1.0  0.96449  0.85663  0.44946  1.0000
  H   H2308     1.0  0.98880  0.68077  0.34179  1.0000
  C   C2884     1.0  0.96385  0.50224  0.30038  1.0000
  C   C2885     1.0  0.69251  0.92183  0.31863  1.0000
  C   C2886     1.0  0.72174  0.85269  0.49081  1.0000
  C   C2887     1.0  0.80531  0.91525  0.48653  1.0000
  H   H2309     1.0  0.70262  0.90886  0.31790  1.0000
  C   C2888     1.0  0.83739  0.95878  0.49126  1.0000
  H   H2310     1.0  0.97067  0.83700  0.41632  1.0000
  C   C2889     1.0  0.67741  0.50134  0.40215  1.0000
  H   H2311     1.0  0.66942  0.58363  0.28705  1.0000
  C   C2890     1.0  0.98520  0.81891  0.47176  1.0000
  H   H2312     1.0  0.70135  0.62546  0.24866  1.0000
  C   C2891     1.0  0.91726  0.50602  0.30707  1.0000
  H   H2313     1.0  0.89936  0.50753  0.30999  1.0000
  H   H2314     1.0  0.73490  0.77630  0.48710  1.0000
  H   H2315     1.0  0.66029  0.77832  0.45956  1.0000
  C   C2892     1.0  0.97551  0.84971  0.43788  1.0000
  H   H2316     1.0  0.99058  0.91190  0.38949  1.0000
  H   H2317     1.0  0.99104  0.81748  0.46105  1.0000
  H   H2318     1.0  0.94779  0.75019  0.49230  1.0000
  H   H2319     1.0  0.99153  0.79363  0.38504  1.0000
  H   H2320     1.0  0.99175  0.58487  0.25179  1.0000
  Fe  Fe196     1.0  0.77803  0.97102  0.58269  1.0000
  S   S392      1.0  0.79673  0.94213  0.57984  1.0000
  S   S393      1.0  0.73571  0.96227  0.58068  1.0000
  H   H2321     1.0  0.95376  0.77965  0.64636  1.0000
  H   H2322     1.0  0.71228  0.92636  0.50874  1.0000
  Fe  Fe197     1.0  0.95047  0.75055  0.57747  1.0000
  S   S394      1.0  0.90639  0.73316  0.57715  1.0000
  S   S395      1.0  0.96798  0.72661  0.56567  1.0000
  Fe  Fe198     1.0  0.74273  0.79168  0.57703  1.0000
  S   S396      1.0  0.71405  0.74991  0.57650  1.0000
  S   S397      1.0  0.72468  0.82138  0.57639  1.0000
  Fe  Fe199     1.0  0.78877  0.77620  0.57848  1.0000
  S   S398      1.0  0.76352  0.73319  0.57843  1.0000
  S   S399      1.0  0.83266  0.79526  0.57950  1.0000
  Fe  Fe200     1.0  0.74129  0.74378  0.56118  1.0000
  S   S400      1.0  0.72361  0.71587  0.54291  1.0000
  Fe  Fe201     1.0  0.73825  0.74304  0.59372  1.0000
  S   S401      1.0  0.72298  0.71906  0.61378  1.0000
  S   S402      1.0  0.76793  0.78620  0.56027  1.0000
  S   S403      1.0  0.76559  0.78545  0.59521  1.0000
  C   C2893     1.0  0.91551  0.80013  0.52264  1.0000
  H   H2323     1.0  0.77394  0.68132  0.50893  1.0000
  C   C2894     1.0  0.66933  0.67992  0.56914  1.0000
  C   C2895     1.0  0.67195  0.77046  0.66484  1.0000
  C   C2896     1.0  0.68852  0.89501  0.63119  1.0000
  S   S404      1.0  0.78249  0.99119  0.60353  1.0000
  C   C2897     1.0  0.71801  0.58966  0.57591  1.0000
  H   H2324     1.0  0.66886  0.90681  0.69996  1.0000
  H   H2325     1.0  0.73112  0.67333  0.62734  1.0000
  C   C2898     1.0  0.66311  0.94319  0.58677  1.0000
  C   C2899     1.0  0.88949  0.69734  0.53999  1.0000
  C   C2900     1.0  0.80265  0.65735  0.53421  1.0000
  C   C2901     1.0  0.69168  0.70982  0.62114  1.0000
  H   H2326     1.0  0.78409  0.75660  0.53719  1.0000
  C   C2902     1.0  0.68623  0.69630  0.63412  1.0000
  H   H2327     1.0  0.78661  0.72097  0.52282  1.0000
  C   C2903     1.0  0.72229  0.65549  0.62117  1.0000
  C   C2904     1.0  0.72889  0.71455  0.52457  1.0000
  C   C2905     1.0  0.71768  0.68985  0.51822  1.0000
  C   C2906     1.0  0.66258  0.83349  0.59882  1.0000
  C   C2907     1.0  0.74282  0.73644  0.51615  1.0000
  H   H2328     1.0  0.70675  0.67287  0.52454  1.0000
  H   H2329     1.0  0.75122  0.75573  0.52086  1.0000
  H   H2330     1.0  0.67088  0.51005  0.70555  1.0000
  C   C2908     1.0  0.88639  0.75102  0.57743  1.0000
  C   C2909     1.0  0.89646  0.77822  0.57935  1.0000
  C   C2910     1.0  0.87977  0.79152  0.57984  1.0000
  C   C2911     1.0  0.85291  0.77780  0.57843  1.0000
  C   C2912     1.0  0.84287  0.75069  0.57630  1.0000
  C   C2913     1.0  0.85956  0.73737  0.57580  1.0000
  H   H2331     1.0  0.91708  0.78901  0.58055  1.0000
  H   H2332     1.0  0.88769  0.81252  0.58147  1.0000
  H   H2333     1.0  0.82225  0.74006  0.57526  1.0000
  H   H2334     1.0  0.85168  0.71636  0.57430  1.0000
  C   C2914     1.0  0.68749  0.96192  0.62815  1.0000
  H   H2335     1.0  0.67298  0.80255  0.59112  1.0000
  H   H2336     1.0  0.68496  0.55171  0.71911  1.0000
  C   C2915     1.0  0.77649  0.90855  0.57924  1.0000
  C   C2916     1.0  0.78733  0.88983  0.58058  1.0000
  C   C2917     1.0  0.77155  0.86291  0.58003  1.0000
  C   C2918     1.0  0.74494  0.85472  0.57785  1.0000
  C   C2919     1.0  0.73411  0.87340  0.57646  1.0000
  C   C2920     1.0  0.74983  0.90024  0.57723  1.0000
  H   H2337     1.0  0.80797  0.89614  0.58209  1.0000
  H   H2338     1.0  0.78003  0.84856  0.58108  1.0000
  H   H2339     1.0  0.71352  0.86709  0.57473  1.0000
  H   H2340     1.0  0.74131  0.91445  0.57611  1.0000
  C   C2921     1.0  0.82418  0.70544  0.49932  1.0000
  H   H2341     1.0  0.82090  0.66591  0.49513  1.0000
  C   C2922     1.0  0.91680  0.79903  0.53737  1.0000
  C   C2923     1.0  0.73492  0.91039  0.62872  1.0000
  C   C2924     1.0  0.87418  0.69671  0.51171  1.0000
  H   H2342     1.0  0.89574  0.69820  0.55095  1.0000
  C   C2925     1.0  0.74532  0.73327  0.50145  1.0000
  C   C2926     1.0  0.77627  0.66884  0.51723  1.0000
  H   H2343     1.0  0.88815  0.54120  0.69158  1.0000
  H   H2344     1.0  0.98518  0.57467  0.72537  1.0000
  C   C2927     1.0  0.70065  0.97935  0.51190  1.0000
  H   H2345     1.0  0.84428  0.52425  0.68120  1.0000
  H   H2346     1.0  0.80631  0.68580  0.58043  1.0000
  C   C2928     1.0  0.73162  0.90397  0.61439  1.0000
  C   C2929     1.0  0.70680  0.89313  0.60843  1.0000
  H   H2347     1.0  0.71098  0.66745  0.49906  1.0000
  H   H2348     1.0  0.75421  0.91955  0.63321  1.0000
  P   P96       1.0  0.72875  0.82430  0.49500  1.0000
  H   H2349     1.0  0.90936  0.69189  0.50688  1.0000
  C   C2930     1.0  0.71340  0.90579  0.63712  1.0000
  H   H2350     1.0  0.86965  0.77825  0.50629  1.0000
  C   C2931     1.0  0.68420  0.73926  0.68478  1.0000
  H   H2351     1.0  0.81703  0.54991  0.68307  1.0000
  H   H2352     1.0  0.74835  0.90800  0.60782  1.0000
  H   H2353     1.0  0.70467  0.88882  0.59724  1.0000
  C   C2932     1.0  0.90549  0.73673  0.64807  1.0000
  C   C2933     1.0  0.94198  0.52045  0.71709  1.0000
  H   H2354     1.0  0.94774  0.50440  0.71948  1.0000
  C   C2934     1.0  0.82869  0.95720  0.50512  1.0000
  H   H2355     1.0  0.70607  0.83895  0.66122  1.0000
  C   C2935     1.0  0.67911  0.97735  0.68782  1.0000
  C   C2936     1.0  0.94683  0.53248  0.70382  1.0000
  H   H2356     1.0  0.94426  0.64898  0.66568  1.0000
  H   H2357     1.0  0.93501  0.74781  0.54081  1.0000
  H   H2358     1.0  0.90432  0.77504  0.65038  1.0000
  C   C2937     1.0  0.86155  0.99525  0.59452  1.0000
  C   C2938     1.0  0.97050  0.82167  0.49957  1.0000
  C   C2939     1.0  0.66162  0.68833  0.64026  1.0000
  P   P97       1.0  0.66424  0.79023  0.65171  1.0000
  H   H2359     1.0  0.96555  0.82258  0.51049  1.0000
  C   C2940     1.0  0.66885  0.96709  0.62030  1.0000
  C   C2941     1.0  0.68765  0.53484  0.72351  1.0000
  C   C2942     1.0  0.83641  0.55754  0.68755  1.0000
  C   C2943     1.0  0.84617  0.98448  0.55606  1.0000
  C   C2944     1.0  0.73356  0.70831  0.49520  1.0000
  C   C2945     1.0  0.84603  0.58183  0.69439  1.0000
  H   H2360     1.0  0.88808  0.72784  0.68791  1.0000
  C   C2946     1.0  0.71500  0.56658  0.56879  1.0000
  H   H2361     1.0  0.68707  0.84035  0.50330  1.0000
  H   H2362     1.0  0.68761  0.92557  0.59549  1.0000
  H   H2363     1.0  0.92827  0.68345  0.59429  1.0000
  H   H2364     1.0  0.94391  0.56270  0.69058  1.0000
  H   H2365     1.0  0.73981  0.61432  0.53572  1.0000
  Fe  Fe202     1.0  0.74068  0.98501  0.60100  1.0000
  C   C2947     1.0  0.68760  0.78202  0.67666  1.0000
  H   H2366     1.0  0.68749  0.59241  0.59903  1.0000
  C   C2948     1.0  0.90484  0.69423  0.52929  1.0000
  H   H2367     1.0  0.83411  0.59301  0.69525  1.0000
  H   H2368     1.0  0.95648  0.63638  0.72176  1.0000
  C   C2949     1.0  0.98955  0.71586  0.50653  1.0000
  C   C2950     1.0  0.70367  0.98715  0.52610  1.0000
  C   C2951     1.0  0.92976  0.52926  0.72736  1.0000
  H   H2369     1.0  0.83847  0.97346  0.51216  1.0000
  C   C2952     1.0  0.89519  0.70979  0.66925  1.0000
  C   C2953     1.0  0.72347  0.65675  0.60644  1.0000
  C   C2954     1.0  0.82735  0.73127  0.52708  1.0000
  C   C2955     1.0  0.84963  0.74998  0.53350  1.0000
  C   C2956     1.0  0.84807  0.77053  0.54137  1.0000
  C   C2957     1.0  0.82447  0.77289  0.54271  1.0000
  C   C2958     1.0  0.80245  0.75494  0.53599  1.0000
  C   C2959     1.0  0.80392  0.73445  0.52803  1.0000
  H   H2370     1.0  0.86820  0.74869  0.53266  1.0000
  H   H2371     1.0  0.86498  0.78426  0.54683  1.0000
  H   H2372     1.0  0.82322  0.78849  0.54910  1.0000
  C   C2960     1.0  0.69786  0.61002  0.60508  1.0000
  H   H2373     1.0  0.70379  0.93090  0.68313  1.0000
  C   C2961     1.0  0.80781  0.93477  0.50972  1.0000
  P   P98       1.0  0.79682  0.93197  0.52774  1.0000
  C   C2962     1.0  0.80060  0.90357  0.53511  1.0000
  C   C2963     1.0  0.81565  0.96151  0.53742  1.0000
  C   C2964     1.0  0.83190  0.96129  0.54876  1.0000
  H   H2374     1.0  0.81991  0.85979  0.51134  1.0000
  H   H2375     1.0  0.69523  0.80296  0.67830  1.0000
  C   C2965     1.0  0.75673  0.63086  0.53228  1.0000
  C   C2966     1.0  0.93983  0.55354  0.70089  1.0000
  C   C2967     1.0  0.77966  0.88281  0.54104  1.0000
  C   C2968     1.0  0.78291  0.86069  0.54632  1.0000
  C   C2969     1.0  0.80709  0.85930  0.54596  1.0000
  C   C2970     1.0  0.82798  0.87981  0.54003  1.0000
  C   C2971     1.0  0.82469  0.90171  0.53446  1.0000
  C   C2972     1.0  0.76391  0.92915  0.52890  1.0000
  C   C2973     1.0  0.74867  0.92747  0.51678  1.0000
  C   C2974     1.0  0.72364  0.92656  0.51809  1.0000
  C   C2975     1.0  0.71374  0.92748  0.53141  1.0000
  C   C2976     1.0  0.72883  0.92929  0.54349  1.0000
  C   C2977     1.0  0.75387  0.93028  0.54225  1.0000
  H   H2376     1.0  0.69547  0.94732  0.64803  1.0000
  H   H2377     1.0  0.83304  0.94324  0.55234  1.0000
  H   H2378     1.0  0.87812  0.61047  0.70557  1.0000
  H   H2379     1.0  0.92606  0.52010  0.73771  1.0000
  C   C2978     1.0  0.92774  0.56268  0.71120  1.0000
  C   C2979     1.0  0.78080  0.63583  0.53855  1.0000
  H   H2380     1.0  0.76085  0.88358  0.54175  1.0000
  H   H2381     1.0  0.76680  0.84483  0.55104  1.0000
  H   H2382     1.0  0.80967  0.84245  0.55045  1.0000
  H   H2383     1.0  0.84677  0.87877  0.53985  1.0000
  H   H2384     1.0  0.84102  0.91743  0.52983  1.0000
  H   H2385     1.0  0.75612  0.92770  0.50630  1.0000
  H   H2386     1.0  0.70579  0.77544  0.69567  1.0000
  H   H2387     1.0  0.69468  0.92767  0.53233  1.0000
  H   H2388     1.0  0.72136  0.93057  0.55380  1.0000
  H   H2389     1.0  0.76561  0.93237  0.55171  1.0000
  H   H2390     1.0  0.98654  0.69540  0.50728  1.0000
  H   H2391     1.0  0.70418  0.79058  0.55195  1.0000
  C   C2980     1.0  0.97713  0.64684  0.67657  1.0000
  H   H2392     1.0  0.65892  0.80567  0.56654  1.0000
  H   H2393     1.0  0.75629  0.74994  0.49498  1.0000
  H   H2394     1.0  0.68584  0.59038  0.62506  1.0000
  H   H2395     1.0  0.71240  0.77251  0.50901  1.0000
  C   C2981     1.0  0.75451  0.64731  0.52158  1.0000
  H   H2396     1.0  0.71673  0.83742  0.54579  1.0000
  C   C2982     1.0  0.88627  0.57693  0.69956  1.0000
  C   C2983     1.0  0.80676  0.85175  0.50251  1.0000
  C   C2984     1.0  0.68519  0.64640  0.57543  1.0000
  C   C2985     1.0  0.68992  0.67254  0.57204  1.0000
  C   C2986     1.0  0.85174  0.54308  0.68652  1.0000
  H   H2397     1.0  0.88725  0.97517  0.59599  1.0000
  H   H2398     1.0  0.67734  0.57063  0.54121  1.0000
  H   H2399     1.0  0.85827  0.98403  0.56496  1.0000
  P   P99       1.0  0.91204  0.74056  0.62942  1.0000
  C   C2987     1.0  0.93610  0.77265  0.62546  1.0000
  C   C2988     1.0  0.92617  0.71845  0.62340  1.0000
  C   C2989     1.0  0.91981  0.70673  0.61002  1.0000
  C   C2990     1.0  0.93265  0.69166  0.60484  1.0000
  C   C2991     1.0  0.95182  0.68806  0.61302  1.0000
  C   C2992     1.0  0.95814  0.69951  0.62640  1.0000
  C   C2993     1.0  0.94571  0.71502  0.63148  1.0000
  C   C2994     1.0  0.93817  0.78233  0.61161  1.0000
  H   H2400     1.0  0.67759  0.87909  0.49732  1.0000
  H   H2401     1.0  0.86912  0.69693  0.50067  1.0000
  C   C2995     1.0  0.95072  0.64048  0.67449  1.0000
  H   H2402     1.0  0.73003  0.59513  0.58536  1.0000
  C   C2996     1.0  0.88145  0.73517  0.62093  1.0000
  C   C2997     1.0  0.87477  0.75645  0.61770  1.0000
  C   C2998     1.0  0.85042  0.75213  0.61198  1.0000
  C   C2999     1.0  0.83248  0.72659  0.60952  1.0000
  C   C3000     1.0  0.83885  0.70528  0.61285  1.0000
  C   C3001     1.0  0.86317  0.70953  0.61866  1.0000
  H   H2403     1.0  0.66913  0.83219  0.60944  1.0000
  C   C3002     1.0  0.79634  0.91368  0.50035  1.0000
  C   C3003     1.0  0.71331  0.78706  0.51675  1.0000
  C   C3004     1.0  0.90121  0.71286  0.65489  1.0000
  C   C3005     1.0  0.72007  0.68676  0.50374  1.0000
  H   H2404     1.0  0.90557  0.70989  0.60337  1.0000
  C   C3006     1.0  0.76298  0.83326  0.49294  1.0000
  H   H2405     1.0  0.96228  0.67698  0.60884  1.0000
  H   H2406     1.0  0.89389  0.76948  0.67575  1.0000
  H   H2407     1.0  0.95172  0.72474  0.64159  1.0000
  H   H2408     1.0  0.92521  0.77077  0.60337  1.0000
  C   C3007     1.0  0.92880  0.76190  0.53570  1.0000
  H   H2409     1.0  0.82444  0.74455  0.49978  1.0000
  C   C3008     1.0  0.70767  0.77893  0.53074  1.0000
  C   C3009     1.0  0.97520  0.82120  0.61858  1.0000
  H   H2410     1.0  0.68978  0.83764  0.63424  1.0000
  H   H2411     1.0  0.84549  0.76865  0.60930  1.0000
  H   H2412     1.0  0.81371  0.72343  0.60498  1.0000
  H   H2413     1.0  0.82490  0.68549  0.61100  1.0000
  H   H2414     1.0  0.86767  0.69283  0.62142  1.0000
  H   H2415     1.0  0.70643  0.88045  0.67068  1.0000
  H   H2416     1.0  0.82094  0.66060  0.53926  1.0000
  H   H2417     1.0  0.67228  0.89237  0.63784  1.0000
  C   C3010     1.0  0.70893  0.63155  0.62788  1.0000
  C   C3011     1.0  0.97350  0.81153  0.63235  1.0000
  H   H2418     1.0  0.73588  0.64353  0.51667  1.0000
  C   C3012     1.0  0.92002  0.78150  0.51431  1.0000
  H   H2419     1.0  0.78042  0.89610  0.50371  1.0000
  C   C3013     1.0  0.70017  0.55960  0.55636  1.0000
  H   H2420     1.0  0.67608  0.72595  0.60450  1.0000
  C   C3014     1.0  0.92735  0.76279  0.52098  1.0000
  C   C3015     1.0  0.72021  0.81352  0.51302  1.0000
  C   C3016     1.0  0.95760  0.80657  0.60821  1.0000
  C   C3017     1.0  0.89618  0.75376  0.66996  1.0000
  H   H2421     1.0  0.93256  0.74921  0.51496  1.0000
  H   H2422     1.0  0.92406  0.77872  0.55526  1.0000
  H   H2423     1.0  0.98977  0.72131  0.52919  1.0000
  H   H2424     1.0  0.68877  0.72715  0.69249  1.0000
  H   H2425     1.0  0.70112  0.69188  0.63946  1.0000
  C   C3018     1.0  0.68760  0.79807  0.63772  1.0000
  C   C3019     1.0  0.69661  0.82280  0.63113  1.0000
  C   C3020     1.0  0.71423  0.82847  0.62011  1.0000
  C   C3021     1.0  0.72267  0.80946  0.61543  1.0000
  C   C3022     1.0  0.71363  0.78476  0.62179  1.0000
  C   C3023     1.0  0.69612  0.77901  0.63288  1.0000
  H   H2426     1.0  0.70266  0.75852  0.53354  1.0000
  H   H2427     1.0  0.80045  0.98551  0.52528  1.0000
  C   C3024     1.0  0.69370  0.76645  0.68657  1.0000
  C   C3025     1.0  0.69509  0.96534  0.68275  1.0000
  C   C3026     1.0  0.95420  0.78720  0.63577  1.0000
  C   C3027     1.0  0.72167  0.83173  0.52362  1.0000
  H   H2428     1.0  0.71606  0.91156  0.64812  1.0000
  C   C3028     1.0  0.71164  0.63398  0.59829  1.0000
  H   H2429     1.0  0.97327  0.69695  0.63263  1.0000
  C   C3029     1.0  0.90224  0.75690  0.65561  1.0000
  C   C3030     1.0  0.78014  0.84348  0.50438  1.0000
  H   H2430     1.0  0.80736  0.70516  0.55661  1.0000
  C   C3031     1.0  0.72792  0.99612  0.53278  1.0000
  H   H2431     1.0  0.69785  0.54172  0.55084  1.0000
  C   C3032     1.0  0.68822  0.86449  0.66814  1.0000
  H   H2432     1.0  0.72114  0.84748  0.61499  1.0000
  H   H2433     1.0  0.73607  0.81389  0.60676  1.0000
  H   H2434     1.0  0.72011  0.76996  0.61809  1.0000
  H   H2435     1.0  0.68912  0.75958  0.63750  1.0000
  C   C3033     1.0  0.89720  0.69394  0.51517  1.0000
  C   C3034     1.0  0.68792  0.84088  0.66285  1.0000
  C   C3035     1.0  0.71564  0.82341  0.53759  1.0000
  H   H2436     1.0  0.72769  0.85235  0.52117  1.0000
  P   P100      1.0  0.91837  0.58968  0.70728  1.0000
  C   C3036     1.0  0.91779  0.60619  0.72361  1.0000
  H   H2437     1.0  0.76646  0.69440  0.54294  1.0000
  H   H2438     1.0  0.78252  0.62308  0.54684  1.0000
  C   C3037     1.0  0.74640  0.98980  0.51051  1.0000
  C   C3038     1.0  0.68503  0.88875  0.61675  1.0000
  H   H2439     1.0  0.84435  0.97740  0.59317  1.0000
  C   C3039     1.0  0.93853  0.64105  0.74066  1.0000
  C   C3040     1.0  0.93911  0.62865  0.72793  1.0000
  S   S405      1.0  0.71918  0.96937  0.62174  1.0000
  H   H2440     1.0  0.97450  0.61011  0.70572  1.0000
  H   H2441     1.0  0.92292  0.69253  0.53193  1.0000
  H   H2442     1.0  0.68708  0.98666  0.53189  1.0000
  C   C3041     1.0  0.94112  0.61206  0.69514  1.0000
  C   C3042     1.0  0.93274  0.62322  0.68376  1.0000
  C   C3043     1.0  0.67173  0.92641  0.69651  1.0000
  C   C3044     1.0  0.69134  0.93995  0.68706  1.0000
  H   H2443     1.0  0.89219  0.69144  0.67451  1.0000
  C   C3045     1.0  0.96764  0.61848  0.69706  1.0000
  H   H2444     1.0  0.95627  0.52576  0.69580  1.0000
  C   C3046     1.0  0.70865  0.79704  0.54113  1.0000
  H   H2445     1.0  0.67370  0.97632  0.61007  1.0000
  C   C3047     1.0  0.67961  0.51133  0.71594  1.0000
  H   H2446     1.0  0.68169  0.97259  0.50698  1.0000
  C   C3048     1.0  0.92304  0.77965  0.54387  1.0000
  H   H2447     1.0  0.85505  0.70279  0.54506  1.0000
  H   H2448     1.0  0.91328  0.81335  0.54379  1.0000
  H   H2449     1.0  0.87950  0.57863  0.72948  1.0000
  H   H2450     1.0  0.91320  0.55670  0.73255  1.0000
  H   H2451     1.0  0.73302  0.67569  0.60141  1.0000
  H   H2452     1.0  0.77311  0.84539  0.51471  1.0000
  C   C3049     1.0  0.68855  0.57584  0.55095  1.0000
  H   H2453     1.0  0.91245  0.61866  0.68197  1.0000
  S   S406      1.0  0.97787  0.75757  0.59613  1.0000
  H   H2454     1.0  0.76486  0.65605  0.59048  1.0000
  C   C3050     1.0  0.86641  0.69996  0.53659  1.0000
  P   P101      1.0  0.82832  0.70289  0.51816  1.0000
  C   C3051     1.0  0.80057  0.67425  0.52360  1.0000
  C   C3052     1.0  0.89281  0.73027  0.67680  1.0000
  H   H2455     1.0  0.66511  0.88595  0.67387  1.0000
  H   H2456     1.0  0.68293  0.61161  0.55351  1.0000
  H   H2457     1.0  0.91139  0.81578  0.51779  1.0000
  C   C3053     1.0  0.85837  0.69946  0.52240  1.0000
  C   C3054     1.0  0.87664  0.55275  0.69246  1.0000
  H   H2458     1.0  0.88822  0.77642  0.61965  1.0000
  P   P102      1.0  0.71140  0.63640  0.57931  1.0000
  C   C3055     1.0  0.66790  0.92372  0.59423  1.0000
  C   C3056     1.0  0.74183  0.65883  0.57248  1.0000
  C   C3057     1.0  0.74278  0.66914  0.55886  1.0000
  C   C3058     1.0  0.76628  0.68594  0.55326  1.0000
  C   C3059     1.0  0.78919  0.69195  0.56099  1.0000
  C   C3060     1.0  0.78855  0.68109  0.57441  1.0000
  C   C3061     1.0  0.76496  0.66446  0.58013  1.0000
  H   H2459     1.0  0.70759  0.63077  0.63930  1.0000
  H   H2460     1.0  0.67315  0.69999  0.56621  1.0000
  C   C3062     1.0  0.68104  0.95085  0.64172  1.0000
  C   C3063     1.0  0.69152  0.59892  0.55805  1.0000
  C   C3064     1.0  0.92252  0.55017  0.72441  1.0000
  C   C3065     1.0  0.70572  0.60563  0.57078  1.0000
  H   H2461     1.0  0.72430  0.55417  0.57287  1.0000
  H   H2462     1.0  0.90235  0.69655  0.64914  1.0000
  H   H2463     1.0  0.70940  0.68735  0.57167  1.0000
  H   H2464     1.0  0.72531  0.66457  0.55258  1.0000
  C   C3066     1.0  0.87093  0.59160  0.70029  1.0000
  C   C3067     1.0  0.89602  0.59628  0.73232  1.0000
  C   C3068     1.0  0.69872  0.53653  0.73694  1.0000
  S   S407      1.0  0.97457  0.78827  0.56689  1.0000
  H   H2465     1.0  0.95953  0.81375  0.59743  1.0000
  C   C3069     1.0  0.81336  0.98508  0.53379  1.0000
  C   C3070     1.0  0.67223  0.71553  0.61444  1.0000
  H   H2466     1.0  0.67906  0.95972  0.58240  1.0000
  C   C3071     1.0  0.66439  0.82016  0.65934  1.0000
  C   C3072     1.0  0.72195  0.98117  0.50389  1.0000
  C   C3073     1.0  0.98554  0.63588  0.68789  1.0000
  H   H2467     1.0  0.74631  0.50820  0.74211  1.0000
  H   H2468     1.0  0.98743  0.82275  0.64030  1.0000
  H   H2469     1.0  0.76281  0.99052  0.50453  1.0000
  C   C3074     1.0  0.66458  0.81657  0.58848  1.0000
  C   C3075     1.0  0.69670  0.60882  0.61984  1.0000
  C   C3076     1.0  0.82269  0.72799  0.49330  1.0000
  C   C3077     1.0  0.69997  0.85532  0.49644  1.0000
  C   C3078     1.0  0.66855  0.72761  0.67309  1.0000
  C   C3079     1.0  0.99005  0.59257  0.73132  1.0000
  H   H2470     1.0  0.71047  0.97542  0.67548  1.0000
  C   C3080     1.0  0.66505  0.86760  0.67000  1.0000
  H   H2471     1.0  0.99054  0.83975  0.61581  1.0000
  C   C3081     1.0  0.88575  0.99404  0.59612  1.0000
  P   P103      1.0  0.92003  0.78433  0.49527  1.0000
  H   H2472     1.0  0.83600  0.79277  0.49744  1.0000
  C   C3082     1.0  0.65958  0.62810  0.57656  1.0000
  C   C3083     1.0  0.87331  0.79045  0.49695  1.0000
  C   C3084     1.0  0.69445  0.87715  0.49301  1.0000
  C   C3085     1.0  0.66256  0.74311  0.66314  1.0000
  H   H2473     1.0  0.66095  0.70650  0.67172  1.0000
  C   C3086     1.0  0.74937  0.99715  0.52498  1.0000
  C   C3087     1.0  0.65898  0.96324  0.69695  1.0000
  C   C3088     1.0  0.99131  0.73045  0.51893  1.0000
  C   C3089     1.0  0.99208  0.72773  0.49317  1.0000
  H   H2474     1.0  0.99116  0.66026  0.66944  1.0000
  H   H2475     1.0  0.91688  0.64010  0.75935  1.0000
  C   C3090     1.0  0.75741  0.56118  0.98150  1.0000
  H   H2476     1.0  0.79714  0.59098  0.87615  1.0000
  S   S408      1.0  0.67218  0.59300  0.81617  1.0000
  H   H2477     1.0  0.73486  0.92753  0.98285  1.0000
  C   C3091     1.0  0.89558  0.60872  0.74504  1.0000
  Fe  Fe203     1.0  0.90651  0.56020  0.93085  1.0000
  S   S409      1.0  0.86494  0.53560  0.93544  1.0000
  S   S410      1.0  0.93217  0.58299  0.94940  1.0000
  Fe  Fe204     1.0  0.90032  0.53730  0.90063  1.0000
  C   C3092     1.0  0.86692  0.51609  0.97117  1.0000
  S   S411      1.0  0.92064  0.53458  0.88055  1.0000
  Fe  Fe205     1.0  0.85617  0.54672  0.91384  1.0000
  S   S412      1.0  0.82706  0.56411  0.90828  1.0000
  Fe  Fe206     1.0  0.66914  0.58262  0.92499  1.0000
  S   S413      1.0  0.89746  0.57341  0.90969  1.0000
  S   S414      1.0  0.91321  0.52613  0.92137  1.0000
  C   C3093     1.0  0.90168  0.71164  0.97808  1.0000
  S   S415      1.0  0.93094  0.56049  0.79484  1.0000
  Fe  Fe207     1.0  0.86934  0.55242  0.77304  1.0000
  S   S416      1.0  0.89485  0.59009  0.78360  1.0000
  H   H2478     1.0  0.95069  0.73204  0.87786  1.0000
  C   C3094     1.0  0.70357  0.62694  0.95745  1.0000
  Fe  Fe208     1.0  0.89509  0.56457  0.80210  1.0000
  S   S417      1.0  0.88690  0.57556  0.82401  1.0000
  S   S418      1.0  0.86759  0.52719  0.79202  1.0000
  C   C3095     1.0  0.73006  0.55731  0.81686  1.0000
  Fe  Fe209     1.0  0.69013  0.53639  0.77935  1.0000
  C   C3096     1.0  0.76468  0.55402  0.96867  1.0000
  S   S419      1.0  0.69643  0.57894  0.77813  1.0000
  Fe  Fe210     1.0  0.68629  0.53757  0.92636  1.0000
  C   C3097     1.0  0.76485  0.61594  0.95873  1.0000
  S   S420      1.0  0.69690  0.57228  0.91191  1.0000
  H   H2479     1.0  0.70941  0.51609  0.75350  1.0000
  C   C3098     1.0  0.78774  0.55606  0.76085  1.0000
  C   C3099     1.0  0.66507  0.55304  0.85972  1.0000
  H   H2480     1.0  0.96729  0.50531  0.85554  1.0000
  C   C3100     1.0  0.80459  0.54601  0.76730  1.0000
  C   C3101     1.0  0.95834  0.62833  0.85536  1.0000
  H   H2481     1.0  0.95036  0.67772  0.94530  1.0000
  C   C3102     1.0  0.75348  0.53159  0.77708  1.0000
  H   H2482     1.0  0.81384  0.52977  0.96693  1.0000
  H   H2483     1.0  0.72229  0.61329  0.88676  1.0000
  C   C3103     1.0  0.79581  0.52895  0.77877  1.0000
  H   H2484     1.0  0.79601  0.55695  0.95528  1.0000
  C   C3104     1.0  0.79710  0.55343  0.91688  1.0000
  C   C3105     1.0  0.78111  0.56702  0.91440  1.0000
  C   C3106     1.0  0.75646  0.55834  0.92035  1.0000
  C   C3107     1.0  0.74746  0.53583  0.92876  1.0000
  C   C3108     1.0  0.76379  0.52268  0.93164  1.0000
  C   C3109     1.0  0.78856  0.53143  0.92570  1.0000
  H   H2485     1.0  0.78775  0.58423  0.90777  1.0000
  H   H2486     1.0  0.74441  0.56898  0.91828  1.0000
  C   C3110     1.0  0.94286  0.51836  0.95908  1.0000
  H   H2487     1.0  0.80081  0.52088  0.92772  1.0000
  C   C3111     1.0  0.91091  0.54550  0.86479  1.0000
  C   C3112     1.0  0.92057  0.54180  0.85176  1.0000
  C   C3113     1.0  0.91294  0.55029  0.83909  1.0000
  C   C3114     1.0  0.89615  0.56327  0.83946  1.0000
  C   C3115     1.0  0.88699  0.56745  0.85251  1.0000
  C   C3116     1.0  0.89402  0.55829  0.86511  1.0000
  H   H2488     1.0  0.93411  0.53254  0.85148  1.0000
  H   H2489     1.0  0.92046  0.54730  0.82911  1.0000
  H   H2490     1.0  0.87434  0.57781  0.85285  1.0000
  H   H2491     1.0  0.88647  0.56124  0.87509  1.0000
  C   C3117     1.0  0.69382  0.63992  0.94774  1.0000
  C   C3118     1.0  0.70867  0.67833  0.96338  1.0000
  C   C3119     1.0  0.71794  0.66516  0.97322  1.0000
  C   C3120     1.0  0.71558  0.63953  0.97009  1.0000
  P   P104      1.0  0.75039  0.54969  0.86371  1.0000
  H   H2492     1.0  0.71081  0.69819  0.96549  1.0000
  C   C3121     1.0  0.76243  0.54920  0.76584  1.0000
  Fe  Fe211     1.0  0.92848  0.58243  0.77521  1.0000
  C   C3122     1.0  0.69658  0.66572  0.95075  1.0000
  C   C3123     1.0  0.95440  0.63220  0.88617  1.0000
  C   C3124     1.0  0.96106  0.66837  0.96593  1.0000
  C   C3125     1.0  0.95052  0.66216  0.95217  1.0000
  C   C3126     1.0  0.94078  0.63608  0.94711  1.0000
  C   C3127     1.0  0.94172  0.61584  0.95567  1.0000
  C   C3128     1.0  0.95175  0.62197  0.96952  1.0000
  C   C3129     1.0  0.96115  0.64799  0.97466  1.0000
  H   H2493     1.0  0.74467  0.51651  0.83891  1.0000
  H   H2494     1.0  0.93338  0.63181  0.93643  1.0000
  C   C3130     1.0  0.72466  0.52391  0.88772  1.0000
  C   C3131     1.0  0.90111  0.64247  0.85677  1.0000
  H   H2495     1.0  0.77578  0.68946  0.96601  1.0000
  H   H2496     1.0  0.68921  0.67598  0.94329  1.0000
  C   C3132     1.0  0.74056  0.53320  0.83562  1.0000
  C   C3133     1.0  0.73869  0.60859  0.88428  1.0000
  H   H2497     1.0  0.76355  0.50780  0.79214  1.0000
  C   C3134     1.0  0.76348  0.62494  0.88889  1.0000
  C   C3135     1.0  0.98706  0.53217  0.75997  1.0000
  H   H2498     1.0  0.72659  0.59300  0.82305  1.0000
  H   H2499     1.0  0.72296  0.62927  0.97755  1.0000
  C   C3136     1.0  0.91170  0.63269  0.86780  1.0000
  C   C3137     1.0  0.75591  0.57950  0.87333  1.0000
  C   C3138     1.0  0.73489  0.58589  0.87661  1.0000
  H   H2500     1.0  0.88583  0.97411  0.97982  1.0000
  C   C3139     1.0  0.66890  0.54107  0.84749  1.0000
  C   C3140     1.0  0.72518  0.52355  0.87290  1.0000
  S   S421      1.0  0.97486  0.70194  0.97133  1.0000
  C   C3141     1.0  0.88395  0.63454  0.97902  1.0000
  H   H2501     1.0  0.94140  0.53557  0.96368  1.0000
  H   H2502     1.0  0.96049  0.57444  0.74689  1.0000
  C   C3142     1.0  0.85048  0.96140  0.96737  1.0000
  C   C3143     1.0  0.75278  0.94154  0.97862  1.0000
  C   C3144     1.0  0.88246  0.96654  0.94414  1.0000
  C   C3145     1.0  0.99188  0.61537  0.84645  1.0000
  H   H2503     1.0  0.91391  0.97912  0.95928  1.0000
  H   H2504     1.0  0.73669  0.58915  0.84805  1.0000
  C   C3146     1.0  0.98171  0.61530  0.75132  1.0000
  C   C3147     1.0  0.77628  0.57712  0.99096  1.0000
  H   H2505     1.0  0.95538  0.65777  0.74422  1.0000
  H   H2506     1.0  0.79105  0.51178  0.74379  1.0000
  C   C3148     1.0  0.85242  0.55915  0.97114  1.0000
  H   H2507     1.0  0.87893  0.60073  0.75182  1.0000
  C   C3149     1.0  0.79955  0.95817  0.97715  1.0000
  H   H2508     1.0  0.79247  0.55971  0.84337  1.0000
  H   H2509     1.0  0.83089  0.54902  0.84368  1.0000
  Fe  Fe212     1.0  0.90350  0.52480  0.78334  1.0000
  H   H2510     1.0  0.69252  0.72745  0.98373  1.0000
  C   C3150     1.0  0.77615  0.93978  0.98230  1.0000
  C   C3151     1.0  0.85798  0.61719  0.86518  1.0000
  H   H2511     1.0  0.92704  0.62286  0.84039  1.0000
  H   H2512     1.0  0.96243  0.66902  0.89699  1.0000
  H   H2513     1.0  0.76630  0.64239  0.89495  1.0000
  H   H2514     1.0  0.79766  0.90300  0.97429  1.0000
  C   C3152     1.0  0.86401  0.68249  0.95832  1.0000
  S   S422      1.0  0.67766  0.62467  0.93188  1.0000
  H   H2515     1.0  0.75005  0.54207  0.96118  1.0000
  H   H2516     1.0  0.67373  0.54329  0.82506  1.0000
  C   C3153     1.0  0.89511  0.61580  0.87779  1.0000
  H   H2517     1.0  0.94490  0.60554  0.82153  1.0000
  H   H2518     1.0  0.79428  0.56914  0.75192  1.0000
  H   H2519     1.0  0.81713  0.99369  0.96487  1.0000
  C   C3154     1.0  0.83398  0.73576  0.97663  1.0000
  S   S423      1.0  0.72111  0.52006  0.78296  1.0000
  Fe  Fe213     1.0  0.66219  0.54718  0.89892  1.0000
  C   C3155     1.0  0.96336  0.50341  0.83284  1.0000
  C   C3156     1.0  0.79080  0.56241  0.96540  1.0000
  C   C3157     1.0  0.89322  0.97254  0.95772  1.0000
  H   H2520     1.0  0.89599  0.68342  0.94576  1.0000
  C   C3158     1.0  0.84113  0.51218  0.96892  1.0000
  C   C3159     1.0  0.88551  0.54142  0.97335  1.0000
  Fe  Fe214     1.0  0.66146  0.56546  0.76336  1.0000
  C   C3160     1.0  0.80803  0.52643  0.87630  1.0000
  C   C3161     1.0  0.81821  0.54412  0.85271  1.0000
  S   S424      1.0  0.71599  0.52370  0.93581  1.0000
  S   S425      1.0  0.83533  0.55291  0.75981  1.0000
  H   H2521     1.0  0.81315  0.68256  0.94446  1.0000
  H   H2522     1.0  0.76650  0.72869  0.96269  1.0000
  H   H2523     1.0  0.85957  0.63026  0.91516  1.0000
  C   C3162     1.0  0.79103  0.70850  0.96811  1.0000
  C   C3163     1.0  0.90902  0.70439  0.96530  1.0000
  H   H2524     1.0  0.73456  0.96363  0.96735  1.0000
  C   C3164     1.0  0.84904  0.60146  0.95320  1.0000
  C   C3165     1.0  0.97221  0.82025  0.98312  1.0000
  H   H2525     1.0  0.84242  0.77703  0.97816  1.0000
  H   H2526     1.0  0.86629  0.64144  0.84656  1.0000
  C   C3166     1.0  0.74144  0.55241  0.84548  1.0000
  H   H2527     1.0  0.82180  0.62863  0.92883  1.0000
  H   H2528     1.0  0.72558  0.55917  0.80583  1.0000
  H   H2529     1.0  0.89481  0.96853  0.93516  1.0000
  C   C3167     1.0  0.96147  0.64923  0.89785  1.0000
  C   C3168     1.0  0.95317  0.60656  0.88779  1.0000
  C   C3169     1.0  0.78560  0.73079  0.96622  1.0000
  H   H2530     1.0  0.74972  0.55710  0.76080  1.0000
  C   C3170     1.0  0.86835  0.60803  0.87646  1.0000
  C   C3171     1.0  0.80949  0.90238  0.98328  1.0000
  H   H2531     1.0  0.80368  0.63103  0.88955  1.0000
  C   C3172     1.0  0.77031  0.52155  0.78350  1.0000
  H   H2532     1.0  0.94725  0.59287  0.87903  1.0000
  H   H2533     1.0  0.89332  0.58233  0.97463  1.0000
  H   H2534     1.0  0.85617  0.51892  0.82321  1.0000
  H   H2535     1.0  0.79999  0.77280  0.96827  1.0000
  C   C3173     1.0  0.67091  0.68765  0.99037  1.0000
  C   C3174     1.0  0.95543  0.61135  0.83147  1.0000
  H   H2536     1.0  0.90367  0.50257  0.95115  1.0000
  C   C3175     1.0  0.85643  0.69020  0.97102  1.0000
  C   C3176     1.0  0.79625  0.54999  0.85255  1.0000
  C   C3177     1.0  0.66580  0.58977  0.84523  1.0000
  S   S426      1.0  0.66018  0.54904  0.94016  1.0000
  S   S427      1.0  0.85841  0.51144  0.90330  1.0000
  H   H2537     1.0  0.90264  0.60814  0.88645  1.0000
  H   H2538     1.0  0.74992  0.60849  0.93741  1.0000
  C   C3178     1.0  0.75262  0.96183  0.96989  1.0000
  H   H2539     1.0  0.84994  0.67086  0.95061  1.0000
  C   C3179     1.0  0.78205  0.64594  0.93932  1.0000
  H   H2540     1.0  0.80840  0.52079  0.78372  1.0000
  P   P105      1.0  0.84380  0.58737  0.97073  1.0000
  H   H2541     1.0  0.93072  0.68375  0.87947  1.0000
  C   C3180     1.0  0.73642  0.57405  0.84082  1.0000
  C   C3181     1.0  0.78451  0.61860  0.88580  1.0000
  C   C3182     1.0  0.95919  0.59819  0.90081  1.0000
  P   P106      1.0  0.94634  0.64262  0.86928  1.0000
  H   H2542     1.0  0.89093  0.61431  0.92589  1.0000
  H   H2543     1.0  0.75048  0.59781  0.96271  1.0000
  P   P107      1.0  0.82269  0.68191  0.97487  1.0000
  C   C3183     1.0  0.73086  0.57649  0.82656  1.0000
  C   C3184     1.0  0.82394  0.53210  0.86453  1.0000
  H   H2544     1.0  0.73433  0.52094  0.81377  1.0000
  C   C3185     1.0  0.89021  0.68960  0.95549  1.0000
  C   C3186     1.0  0.80714  0.87799  0.98860  1.0000
  H   H2545     1.0  0.98294  0.51729  0.83106  1.0000
  C   C3187     1.0  0.91685  0.63104  0.74924  1.0000
  H   H2546     1.0  0.95782  0.57822  0.90197  1.0000
  H   H2547     1.0  0.70168  0.60715  0.95527  1.0000
  H   H2548     1.0  0.73873  0.53996  0.89362  1.0000
  C   C3188     1.0  0.87837  0.56284  0.97328  1.0000
  C   C3189     1.0  0.92166  0.49986  0.95198  1.0000
  H   H2549     1.0  0.73711  0.55471  0.98396  1.0000
  C   C3190     1.0  0.78314  0.63351  0.96793  1.0000
  C   C3191     1.0  0.82839  0.75800  0.97487  1.0000
  S   S428      1.0  0.90307  0.54648  0.76323  1.0000
  C   C3192     1.0  0.76439  0.62205  0.94444  1.0000
  H   H2550     1.0  0.92932  0.70981  0.96313  1.0000
  C   C3193     1.0  0.73487  0.53566  0.82139  1.0000
  H   H2551     1.0  0.88414  0.59528  0.94976  1.0000
  C   C3194     1.0  0.81559  0.71085  0.97288  1.0000
  H   H2552     1.0  0.78117  0.65095  0.92830  1.0000
  C   C3195     1.0  0.96014  0.72047  0.87316  1.0000
  C   C3196     1.0  0.80025  0.66367  0.94848  1.0000
  H   H2553     1.0  0.84735  0.95263  0.93165  1.0000
  H   H2554     1.0  0.95265  0.60656  0.97626  1.0000
  H   H2555     1.0  0.66478  0.60878  0.84441  1.0000
  H   H2556     1.0  0.71551  0.57322  0.87326  1.0000
  H   H2557     1.0  0.79313  0.86006  0.98401  1.0000
  H   H2558     1.0  0.93061  0.80328  0.98275  1.0000
  H   H2559     1.0  0.85565  0.59438  0.88400  1.0000
  C   C3197     1.0  0.96100  0.67795  0.86798  1.0000
  C   C3198     1.0  0.78075  0.59590  0.87809  1.0000
  C   C3199     1.0  0.80441  0.75558  0.96942  1.0000
  C   C3200     1.0  0.96723  0.64070  0.91090  1.0000
  C   C3201     1.0  0.87728  0.96980  0.96932  1.0000
  C   C3202     1.0  0.83974  0.95491  0.95374  1.0000
  C   C3203     1.0  0.80247  0.58545  0.98774  1.0000
  C   C3204     1.0  0.81001  0.57762  0.97506  1.0000
  C   C3205     1.0  0.87435  0.63451  0.85538  1.0000
  C   C3206     1.0  0.96611  0.51496  0.95995  1.0000
  Fe  Fe215     1.0  0.66771  0.56927  0.79590  1.0000
  H   H2560     1.0  0.77416  0.52770  0.88547  1.0000
  H   H2561     1.0  0.83727  0.61062  0.86391  1.0000
  C   C3207     1.0  0.77584  0.98047  0.96489  1.0000
  C   C3208     1.0  0.87554  0.70441  0.98099  1.0000
  C   C3209     1.0  0.82667  0.92567  0.98966  1.0000
  C   C3210     1.0  0.80115  0.65749  0.96285  1.0000
  H   H2562     1.0  0.91352  0.65589  0.84906  1.0000
  C   C3211     1.0  0.66899  0.57730  0.83291  1.0000
  C   C3212     1.0  0.83569  0.62194  0.93358  1.0000
  C   C3213     1.0  0.85698  0.62294  0.92589  1.0000
  C   C3214     1.0  0.94787  0.81393  0.98896  1.0000
  H   H2563     1.0  0.97392  0.81437  0.97242  1.0000
  C   C3215     1.0  0.94530  0.62131  0.84230  1.0000
  C   C3216     1.0  0.77951  0.54332  0.86413  1.0000
  C   C3217     1.0  0.87452  0.61364  0.93189  1.0000
  C   C3218     1.0  0.83192  0.61163  0.94726  1.0000
  H   H2564     1.0  0.97968  0.54506  0.76525  1.0000
  C   C3219     1.0  0.85573  0.95764  0.94216  1.0000
  H   H2565     1.0  0.81542  0.61131  0.95303  1.0000
  C   C3220     1.0  0.83387  0.53356  0.96889  1.0000
  C   C3221     1.0  0.87051  0.60275  0.94543  1.0000
  C   C3222     1.0  0.79925  0.97873  0.96854  1.0000
  C   C3223     1.0  0.78592  0.53201  0.87613  1.0000
  S   S429      1.0  0.96453  0.61586  0.76684  1.0000
  H   H2566     1.0  0.98611  0.60014  0.82517  1.0000
  P   P108      1.0  0.83003  0.95709  0.98244  1.0000
  H   H2567     1.0  0.85249  0.73825  0.98112  1.0000
  C   C3224     1.0  0.96598  0.61516  0.91240  1.0000
  H   H2568     1.0  0.88559  0.64032  0.96804  1.0000
  C   C3225     1.0  0.94885  0.69310  0.87402  1.0000
  C   C3226     1.0  0.97841  0.50578  0.76391  1.0000
  H   H2569     1.0  0.90565  0.54467  0.97473  1.0000
  H   H2570     1.0  0.96917  0.65237  0.98525  1.0000
  Fe  Fe216     1.0  0.87106  0.50237  0.92462  1.0000
  C   C3227     1.0  0.66366  0.57761  0.85861  1.0000
  H   H2571     1.0  0.84088  0.52743  0.86465  1.0000
  H   H2572     1.0  0.66079  0.58714  0.86798  1.0000
  H   H2573     1.0  0.81904  0.94747  0.95204  1.0000
  C   C3228     1.0  0.86522  0.61035  0.98341  1.0000
  H   H2574     1.0  0.96989  0.60840  0.92262  1.0000
  H   H2575     1.0  0.98256  0.52943  0.96541  1.0000
  S   S430      1.0  0.66316  0.52758  0.79769  1.0000
  H   H2576     1.0  0.77585  0.92443  0.98942  1.0000
  H   H2577     1.0  0.77562  0.99670  0.95855  1.0000
  H   H2578     1.0  0.97250  0.65380  0.91993  1.0000
  H   H2579     1.0  0.78262  0.62864  0.97902  1.0000
  C   C3229     1.0  0.67541  0.70972  0.98191  1.0000
  C   C3230     1.0  0.98194  0.62558  0.85726  1.0000
  C   C3231     1.0  0.67043  0.55283  0.83420  1.0000
  C   C3232     1.0  0.90157  0.65125  0.98879  1.0000
  C   C3233     1.0  0.97859  0.60821  0.83356  1.0000
  C   C3234     1.0  0.84941  0.49987  0.82827  1.0000
  H   H2580     1.0  0.66215  0.72563  0.96415  1.0000
  H   H2581     1.0  0.75708  0.50537  0.93824  1.0000
  H   H2582     1.0  0.81295  0.51799  0.88568  1.0000
  H   H2583     1.0  0.91659  0.66947  0.98533  1.0000
  S   S431      1.0  0.73263  0.67949  0.98954  1.0000
  H   H2584     1.0  0.70459  0.55468  0.74289  1.0000
  H   H2585     1.0  0.66452  0.99754  0.86569  1.0000
  C   C3235     1.0  0.98461  0.69061  0.86110  1.0000
  H   H2586     1.0  0.67104  0.52265  0.84828  1.0000
  S   S432      1.0  0.66138  0.53553  0.87582  1.0000
  H   H2587     1.0  0.66492  0.99424  0.92619  1.0000
  H   H2588     1.0  0.91628  0.72253  0.98587  1.0000
  H   H2589     1.0  0.70597  0.50396  0.90655  1.0000
  C   C3236     1.0  0.98361  0.73292  0.86626  1.0000
  H   H2590     1.0  0.70587  0.50194  0.85418  1.0000
  C   C3237     1.0  0.70638  0.50255  0.86558  1.0000
  C   C3238     1.0  0.70608  0.50347  0.89511  1.0000
  H   H2591     1.0  0.87030  0.70993  0.99108  1.0000
  C   C3239     1.0  0.97586  0.59236  0.74348  1.0000
  C   C3240     1.0  0.70135  0.51462  0.74294  1.0000
  H   H2592     1.0  0.87251  0.49953  0.97089  1.0000
