data_image0
_chemical_formula_structural       FeCS4H3C2HCH2SH3C2Fe2SC3H2SCH2C3H2SHCHCHC2FePCHCH2CH6CH2CH4CFeHC3HC2FeH2FeHC2HC3H2CH3C3H2CHC2HSHSHC2HSC2H2CH3C2HC3HC2HC2H2SH3CSC3HSC7PC7H4CSCHC2HCHCHFeC5SHC4H3CHC2HFe2CHSH2CHSHCHFeC2SH3CHC2HC2H2C2FeSCFeS2FeS2FeCFeS3FeS2HCSFeS2HC2HSC2HC6H3C3H4C6H2CHC2HC3H2CPHFePC5H4SHSCH2C3HC4H7CHC2HC2HC4H2CHC8PC18H22PC7HCH4C4H2SH2CHC3FeHC2HSH4CH2SHCHC2H2CHCS2CH2C2HCFe2C2FeC3HCHSH2CH3C2H2C2H2C6HC2HCPHCHPC6H4C2HCHCHC2H2FeH2C4H2C2SC4SC4H3CH3CSFeHC3HCFeS2FeS2FeSFeS3H2SC4H2C6H4CHCSCHC3HC4FeSCFeS2FeSFeS3C5H3C2H3C3HC3H3CH4C4HC2H3CFeCHPC7HCH9CPH3C6HCHPCH4CHC2HC4HCHC9H2CHC2HC4HCHCH2CH2CH2C3HC2H3CHCH4CH2CHC3HC2H2C6H5SC4H2C2H3C3HC3HCHCPC2HC3HCHCSC2H2CH6C3HC4HC2HC4H3C4HC3H4C2HCHCP2HC6HCHFeCSC2H2PHCH2SC4HC2HC2H2CHC2H3C3H2C3PC6HCH2CHC2HCHCPHC7H3CHCHCH3C2HCH2CH2SHCHSH5CH3CHCH3C2HC2HSHFeSHC4HFeSFeS2C6H4C6H2CHCHCSC6H2CHSCHCFeS2FeSHFeSFeS2C7H2C2FeH4C3H4SHCPSH2C2H2SH2C2H2CPCHSC2HC6PC18H21CHC6HCH5C6PC4HC5H4C2H3CH3CHCFeC4HC2HCHC3H3CHC3H2CSC3HCHCHCHCSCH6C2H2CH4C3HCHC2H2C2H3SHCH2C2HC4HCH2C3SHFeHC3HC3H2CH2C3SC3H2CH3C3H3C7H2SCHCFeCS2HC4SHC2FeCHC3HCSC3H3CH2C2H2PH2CFeHC3SCH3FeHC3HC7HC2H2C3HSH6CH2CHC3HCSH2CSHCSC3H3C2H3CHC2HSCH2CH2FeH2FePFeSH2C6H3C3HC2SHCHC3HCHCPH2CFeH3CHC2H3FeC2H2C2HSH2C3HCSH3C2SHSHPC2HSC4SCPC2H2C3H5C7H5C2H2CH2CH4CHSC2H2CHC3HCFeC5HCHC4PC6H2CHCFeH4C2FeC6HC2H4C5H2CH2PSH3C2HC2HCH4CHFeS2FeS2FeS2FeSFeS3CSCHSHCH3C6H2C8H3CHC4HC8H4C2H2C8H3C2H2C6PC3SC11H17C6PC2SC2H3C6HCH13CHPC4H2CHCH2FeH3C3HC7H2FeCPCSC2HCPHC3HC7HCHCHCH7C2H2C2HC2PC9HSC6H8CHCHC5HC2HC4HC2H7C5S2CH2C2H2SC3HC2H2SCH2FeH2C5H2CH2CH2CH2C3HCH2C2H2C3HC2HCH2C2FeSC2HC3H4CHC2H2C3H2CH8CH2CSHCHC4H2CHCHC3PC6HCHCSHSH5C3HCFeSHFeSHFeSFeS3HCH4FeS2FeSCFeS2FeSFeS3C3HC7H3C2H3C8H3C6H6CHCH3C2H2CFeH7CH2C2H2PHC2H4CHC2H2SC3HC6PC2H2C3H2CHSC2HC3H5C2H3C7H3C2HC7H2CHCH2CH4CHC8PC7HCHC3SHSHCHSHC2H3CHCHC2H2CH2CHSH2FeHCHCHC2H3C3HC3PC4FeSFeS2FeCH2CH3SC3FeS2FeS2FeSFeS3FeS2C7H4C6H2C2PCHCSHC3SCHCH3C4SC3HCHC4HCHC5HCHC2HCHCHC8H10C8PC6H11C2HSC7PC8HFeC7H11CH7CFeH6SC2H3C4H4CH4C2HCSC3HC3HC2FeCHC2SCH2C4HSC2HCHCHCH2C2PC3HCSCH3CHSCH4C4HC6H4C3HC2HPHC2H2CHCSHCH3C2H4C4Fe2CHFeH2C2HC2H7C2H5C4H2CS2H2SHC2HFeS2CH2CHCHC5HC3HC2HC2HC5H2PHCH2SH2FePC3H2CHCHC3HCSCH2C2HCHFeC2H2C5FeC4HC3H2C8HSFeC4H5CH2CH6CHC2H4CSCH2CPC3H2C2H2C3PH2SHSCHCHC2HC4HCH3C4HCH2CHCH2C5HCSHCHCH3C2H2C2H2CHC
_chemical_formula_sum              "Fe96 C1440 S192 H1152 P48"
_cell_length_a       54.8377
_cell_length_b       54.6148
_cell_length_c       44.8067
_cell_angle_alpha    89.8486
_cell_angle_beta     89.9197
_cell_angle_gamma    119.484

_space_group_name_H-M_alt    "P 1"
_space_group_IT_number       1

loop_
  _space_group_symop_operation_xyz
  'x, y, z'

loop_
  _atom_site_type_symbol
  _atom_site_label
  _atom_site_symmetry_multiplicity
  _atom_site_fract_x
  _atom_site_fract_y
  _atom_site_fract_z
  _atom_site_occupancy
  Fe  Fe1       1.0  0.99754  0.26483  0.04941  1.0000
  C   C1        1.0  0.06790  0.30898  0.31896  1.0000
  S   S1        1.0  0.00971  0.23123  0.04414  1.0000
  S   S2        1.0  0.28844  0.02884  0.48675  1.0000
  S   S3        1.0  0.00456  0.23718  0.46279  1.0000
  S   S4        1.0  0.27524  0.24291  0.01801  1.0000
  H   H1        1.0  0.04184  0.28862  0.35720  1.0000
  H   H2        1.0  0.43296  0.98622  0.32275  1.0000
  H   H3        1.0  0.14620  0.21469  0.49659  1.0000
  C   C2        1.0  0.10841  0.31649  0.06955  1.0000
  C   C3        1.0  0.14498  0.27456  0.09536  1.0000
  H   H4        1.0  0.99263  0.29590  0.15698  1.0000
  C   C4        1.0  0.04183  0.25211  0.12938  1.0000
  H   H5        1.0  0.09803  0.29387  0.06657  1.0000
  H   H6        1.0  0.32133  0.31044  0.46637  1.0000
  S   S5        1.0  0.99352  0.27893  0.09652  1.0000
  H   H7        1.0  0.15922  0.24833  0.07427  1.0000
  H   H8        1.0  0.11047  0.25112  0.14762  1.0000
  H   H9        1.0  0.13944  0.28845  0.01284  1.0000
  C   C5        1.0  0.98634  0.13509  0.14336  1.0000
  C   C6        1.0  0.19126  0.27121  0.35875  1.0000
  Fe  Fe2       1.0  0.25174  0.25994  0.04471  1.0000
  Fe  Fe3       1.0  0.23889  0.19960  0.02797  1.0000
  S   S6        1.0  0.21745  0.21684  0.05795  1.0000
  C   C7        1.0  0.12989  0.22191  0.01338  1.0000
  C   C8        1.0  0.19343  0.28531  0.09362  1.0000
  C   C9        1.0  0.10705  0.21558  0.49662  1.0000
  H   H10       1.0  0.21991  0.24829  0.40086  1.0000
  H   H11       1.0  0.99374  0.30638  0.35260  1.0000
  S   S7        1.0  0.27280  0.26152  0.43079  1.0000
  C   C10       1.0  0.28462  0.29265  0.16247  1.0000
  H   H12       1.0  0.06290  0.21035  0.00400  1.0000
  H   H13       1.0  0.97840  0.11799  0.00730  1.0000
  C   C11       1.0  0.27784  0.29130  0.40950  1.0000
  C   C12       1.0  0.28498  0.29289  0.37908  1.0000
  C   C13       1.0  0.18634  0.25875  0.30613  1.0000
  H   H14       1.0  0.28605  0.27551  0.36890  1.0000
  H   H15       1.0  0.36330  0.30488  0.12623  1.0000
  S   S8        1.0  0.02428  0.29177  0.01159  1.0000
  H   H16       1.0  0.34341  0.22250  0.04020  1.0000
  C   C14       1.0  0.33777  0.23613  0.05228  1.0000
  H   H17       1.0  0.35322  0.15378  0.04149  1.0000
  C   C15       1.0  0.34277  0.24610  0.48993  1.0000
  H   H18       1.0  0.03897  0.18973  0.05616  1.0000
  C   C16       1.0  0.33249  0.21753  0.48437  1.0000
  C   C17       1.0  0.01110  0.15413  0.02953  1.0000
  Fe  Fe4       1.0  0.03512  0.25701  0.00520  1.0000
  P   P1        1.0  0.12617  0.30737  0.12467  1.0000
  C   C18       1.0  0.33623  0.98785  0.37412  1.0000
  H   H19       1.0  0.23173  0.30620  0.37066  1.0000
  C   C19       1.0  0.30565  0.24163  0.08492  1.0000
  H   H20       1.0  0.37264  0.27394  0.03589  1.0000
  H   H21       1.0  0.27040  0.26498  0.12415  1.0000
  C   C20       1.0  0.20139  0.31034  0.10899  1.0000
  H   H22       1.0  0.06807  0.29510  0.11641  1.0000
  H   H23       1.0  0.17412  0.24509  0.28805  1.0000
  H   H24       1.0  0.07935  0.31339  0.39352  1.0000
  H   H25       1.0  0.33391  0.25933  0.35992  1.0000
  H   H26       1.0  0.08686  0.04571  0.48153  1.0000
  H   H27       1.0  0.28511  0.27706  0.17701  1.0000
  C   C21       1.0  0.01290  0.31179  0.39601  1.0000
  H   H28       1.0  0.99098  0.12440  0.12576  1.0000
  H   H29       1.0  0.00822  0.16108  0.21317  1.0000
  C   C22       1.0  0.10402  0.04652  0.49426  1.0000
  H   H30       1.0  0.31492  0.28393  0.09334  1.0000
  H   H31       1.0  0.18087  0.02169  0.49381  1.0000
  H   H32       1.0  0.22141  0.28559  0.27783  1.0000
  H   H33       1.0  0.01814  0.13634  0.17255  1.0000
  C   C23       1.0  0.06771  0.27624  0.12451  1.0000
  Fe  Fe5       1.0  0.01471  0.27976  0.48004  1.0000
  H   H34       1.0  0.06464  0.20847  0.15571  1.0000
  C   C24       1.0  0.21297  0.28148  0.30035  1.0000
  C   C25       1.0  0.31819  0.98687  0.39729  1.0000
  C   C26       1.0  0.10427  0.02166  0.50129  1.0000
  H   H35       1.0  0.09684  0.19812  0.48136  1.0000
  C   C27       1.0  0.10053  0.20726  0.01023  1.0000
  C   C28       1.0  0.99619  0.15576  0.19270  1.0000
  Fe  Fe6       1.0  0.19576  0.21972  0.01634  1.0000
  H   H36       1.0  0.07114  0.26012  0.40273  1.0000
  H   H37       1.0  0.02264  0.25253  0.12466  1.0000
  Fe  Fe7       1.0  0.25738  0.24968  0.47914  1.0000
  H   H38       1.0  0.32761  0.20966  0.46174  1.0000
  C   C29       1.0  0.24380  0.13199  0.02777  1.0000
  C   C30       1.0  0.27638  0.28576  0.13239  1.0000
  H   H39       1.0  0.02059  0.20906  0.14435  1.0000
  C   C31       1.0  0.04070  0.22765  0.14048  1.0000
  C   C32       1.0  0.06550  0.22736  0.14689  1.0000
  C   C33       1.0  0.16713  0.00368  0.48031  1.0000
  H   H40       1.0  0.21951  0.29951  0.49506  1.0000
  H   H41       1.0  0.31026  0.12692  0.01150  1.0000
  C   C34       1.0  0.16528  0.26756  0.08659  1.0000
  H   H42       1.0  0.27409  0.13062  0.05734  1.0000
  H   H43       1.0  0.15505  0.23561  0.33946  1.0000
  H   H44       1.0  0.09010  0.24793  0.44681  1.0000
  C   C35       1.0  0.14375  0.25128  0.01432  1.0000
  C   C36       1.0  0.01824  0.17148  0.05455  1.0000
  C   C37       1.0  0.00178  0.14185  0.16983  1.0000
  H   H45       1.0  0.30405  0.99440  0.15452  1.0000
  H   H46       1.0  0.38847  0.20229  0.02627  1.0000
  C   C38       1.0  0.25393  0.09280  0.03074  1.0000
  H   H47       1.0  0.26546  0.08354  0.04073  1.0000
  C   C39       1.0  0.33289  0.28417  0.32303  1.0000
  C   C40       1.0  0.25875  0.11955  0.04016  1.0000
  H   H48       1.0  0.24980  0.11538  0.45662  1.0000
  S   S9        1.0  0.25114  0.16602  0.04062  1.0000
  H   H49       1.0  0.12338  0.26081  0.08901  1.0000
  S   S10       1.0  0.21299  0.21645  0.49056  1.0000
  H   H50       1.0  0.13035  0.16427  0.42961  1.0000
  C   C41       1.0  0.12236  0.31253  0.47832  1.0000
  C   C42       1.0  0.09145  0.25151  0.14209  1.0000
  H   H51       1.0  0.99662  0.29188  0.40463  1.0000
  S   S11       1.0  0.26933  0.29963  0.07398  1.0000
  C   C43       1.0  0.18112  0.31737  0.11789  1.0000
  C   C44       1.0  0.14339  0.31372  0.45972  1.0000
  H   H52       1.0  0.28644  0.23235  0.09789  1.0000
  H   H53       1.0  0.13581  0.24954  0.44408  1.0000
  C   C45       1.0  0.32190  0.27086  0.08235  1.0000
  H   H54       1.0  0.16213  0.31020  0.17540  1.0000
  H   H55       1.0  0.02623  0.15889  0.01177  1.0000
  H   H56       1.0  0.08743  0.00177  0.49339  1.0000
  C   C46       1.0  0.23422  0.07815  0.00847  1.0000
  C   C47       1.0  0.17641  0.00050  0.45226  1.0000
  H   H57       1.0  0.16623  0.26274  0.01695  1.0000
  C   C48       1.0  0.22902  0.29865  0.32375  1.0000
  C   C49       1.0  0.31370  0.22429  0.07007  1.0000
  C   C50       1.0  0.34129  0.31126  0.31249  1.0000
  H   H58       1.0  0.12624  0.09183  0.49743  1.0000
  C   C51       1.0  0.29093  0.31682  0.36170  1.0000
  C   C52       1.0  0.35425  0.26539  0.04992  1.0000
  H   H59       1.0  0.17478  0.16254  0.43054  1.0000
  C   C53       1.0  0.34988  0.16322  0.02170  1.0000
  C   C54       1.0  0.27641  0.31393  0.42226  1.0000
  H   H60       1.0  0.08957  0.18452  0.00947  1.0000
  H   H61       1.0  0.20911  0.27976  0.08691  1.0000
  S   S12       1.0  0.14829  0.20270  0.01566  1.0000
  H   H62       1.0  0.09817  0.27408  0.35524  1.0000
  H   H63       1.0  0.21943  0.20466  0.41584  1.0000
  H   H64       1.0  0.31241  0.30192  0.03768  1.0000
  C   C55       1.0  0.12852  0.26578  0.01183  1.0000
  S   S13       1.0  0.28431  0.01814  0.00998  1.0000
  C   C56       1.0  0.34072  0.28038  0.35159  1.0000
  C   C57       1.0  0.09274  0.27598  0.13029  1.0000
  C   C58       1.0  0.34667  0.28304  0.06537  1.0000
  H   H65       1.0  0.19342  0.26223  0.45846  1.0000
  S   S14       1.0  0.24161  0.06219  0.47704  1.0000
  C   C59       1.0  0.24278  0.11300  0.47956  1.0000
  C   C60       1.0  0.10173  0.25354  0.42599  1.0000
  C   C61       1.0  0.09109  0.26054  0.40112  1.0000
  C   C62       1.0  0.10634  0.26842  0.37446  1.0000
  C   C63       1.0  0.13221  0.26926  0.37266  1.0000
  C   C64       1.0  0.14284  0.26175  0.39744  1.0000
  C   C65       1.0  0.12760  0.25438  0.42429  1.0000
  P   P2        1.0  0.17684  0.26400  0.39618  1.0000
  C   C66       1.0  0.19808  0.29110  0.42259  1.0000
  C   C67       1.0  0.17531  0.23137  0.40671  1.0000
  C   C68       1.0  0.14999  0.20733  0.41447  1.0000
  C   C69       1.0  0.14983  0.18259  0.42306  1.0000
  C   C70       1.0  0.17480  0.18155  0.42349  1.0000
  C   C71       1.0  0.19993  0.20522  0.41519  1.0000
  C   C72       1.0  0.20019  0.23002  0.40689  1.0000
  H   H66       1.0  0.13035  0.20745  0.41406  1.0000
  H   H67       1.0  0.30094  0.20162  0.07191  1.0000
  H   H68       1.0  0.32008  0.26610  0.30916  1.0000
  H   H69       1.0  0.36262  0.30019  0.39173  1.0000
  C   C73       1.0  0.20202  0.28399  0.45165  1.0000
  S   S15       1.0  0.05648  0.21539  0.49655  1.0000
  C   C74       1.0  0.01844  0.30847  0.11741  1.0000
  H   H70       1.0  0.14385  0.27608  0.35200  1.0000
  C   C75       1.0  0.17560  0.25349  0.33524  1.0000
  C   C76       1.0  0.21842  0.29329  0.35288  1.0000
  H   H71       1.0  0.35775  0.00465  0.37367  1.0000
  C   C77       1.0  0.99846  0.16573  0.07710  1.0000
  H   H72       1.0  0.00430  0.17968  0.09607  1.0000
  C   C78       1.0  0.27668  0.30600  0.11294  1.0000
  H   H73       1.0  0.34565  0.26035  0.47167  1.0000
  Fe  Fe8       1.0  0.24032  0.01144  0.00713  1.0000
  C   C79       1.0  0.23770  0.08877  0.49566  1.0000
  C   C80       1.0  0.06275  0.30341  0.34944  1.0000
  C   C81       1.0  0.09930  0.25121  0.00785  1.0000
  C   C82       1.0  0.23833  0.13394  0.49262  1.0000
  C   C83       1.0  0.01227  0.31151  0.14725  1.0000
  S   S16       1.0  0.28759  0.99021  0.09298  1.0000
  H   H74       1.0  0.19715  0.01586  0.44448  1.0000
  C   C84       1.0  0.36965  0.19055  0.01316  1.0000
  C   C85       1.0  0.08532  0.22181  0.00734  1.0000
  C   C86       1.0  0.22368  0.11701  0.00594  1.0000
  C   C87       1.0  0.21672  0.30510  0.47262  1.0000
  H   H75       1.0  0.05098  0.29860  0.30309  1.0000
  H   H76       1.0  0.15576  0.30426  0.46696  1.0000
  H   H77       1.0  0.27106  0.31314  0.44562  1.0000
  C   C88       1.0  0.98421  0.13096  0.02711  1.0000
  H   H78       1.0  0.24177  0.15215  0.47971  1.0000
  C   C89       1.0  0.32568  0.14803  0.00476  1.0000
  C   C90       1.0  0.35683  0.30367  0.36969  1.0000
  H   H79       1.0  0.32588  0.00280  0.41445  1.0000
  Fe  Fe9       1.0  0.26742  0.98493  0.04669  1.0000
  Fe  Fe10      1.0  0.24634  0.02535  0.49455  1.0000
  C   C91       1.0  0.15261  0.29900  0.11210  1.0000
  H   H80       1.0  0.33500  0.31422  0.29041  1.0000
  S   S17       1.0  0.22934  0.26325  0.00373  1.0000
  H   H81       1.0  0.29612  0.31753  0.33832  1.0000
  H   H82       1.0  0.24988  0.31602  0.31937  1.0000
  C   C92       1.0  0.08422  0.31775  0.37008  1.0000
  H   H83       1.0  0.98114  0.14729  0.49796  1.0000
  S   S18       1.0  0.08177  0.27086  0.00161  1.0000
  H   H84       1.0  0.11842  0.30221  0.49986  1.0000
  C   C93       1.0  0.41296  0.99755  0.87354  1.0000
  H   H85       1.0  0.23395  0.11591  0.93133  1.0000
  Fe  Fe11      1.0  0.99750  0.25673  0.54466  1.0000
  C   C94       1.0  0.33128  0.24995  0.96361  1.0000
  C   C95       1.0  0.34043  0.18782  0.97110  1.0000
  S   S19       1.0  0.03888  0.27712  0.51980  1.0000
  H   H86       1.0  0.43495  0.14090  0.85713  1.0000
  H   H87       1.0  0.45337  0.03426  0.80109  1.0000
  H   H88       1.0  0.35526  0.27801  0.52376  1.0000
  C   C96       1.0  0.35568  0.11848  0.82206  1.0000
  H   H89       1.0  0.27800  0.11563  0.92247  1.0000
  C   C97       1.0  0.19101  0.24175  0.93562  1.0000
  C   C98       1.0  0.32575  0.03027  0.60283  1.0000
  H   H90       1.0  0.98862  0.26781  0.65788  1.0000
  C   C99       1.0  0.36289  0.29510  0.64801  1.0000
  C   C100      1.0  0.46237  0.98517  0.74470  1.0000
  H   H91       1.0  0.25142  0.17602  0.87453  1.0000
  H   H92       1.0  0.34567  0.10006  0.99673  1.0000
  C   C101      1.0  0.12643  0.02257  0.51784  1.0000
  C   C102      1.0  0.31464  0.29458  0.76499  1.0000
  Fe  Fe12      1.0  0.25031  0.24291  0.97833  1.0000
  S   S20       1.0  0.26546  0.24761  0.92963  1.0000
  C   C103      1.0  0.18255  0.99670  0.60548  1.0000
  Fe  Fe13      1.0  0.39506  0.06596  0.79550  1.0000
  S   S21       1.0  0.43923  0.09925  0.78294  1.0000
  S   S22       1.0  0.38259  0.06663  0.84452  1.0000
  Fe  Fe14      1.0  0.38043  0.04745  0.72988  1.0000
  S   S23       1.0  0.42313  0.07902  0.71345  1.0000
  S   S24       1.0  0.34468  0.01641  0.70018  1.0000
  Fe  Fe15      1.0  0.44053  0.06684  0.75294  1.0000
  C   C104      1.0  0.27849  0.31190  0.65457  1.0000
  Fe  Fe16      1.0  0.41890  0.10897  0.74467  1.0000
  S   S25       1.0  0.42891  0.15145  0.72561  1.0000
  S   S26       1.0  0.39742  0.03273  0.76778  1.0000
  S   S27       1.0  0.37506  0.07815  0.75874  1.0000
  Fe  Fe17      1.0  0.42163  0.28455  0.78413  1.0000
  S   S28       1.0  0.43075  0.25045  0.80110  1.0000
  S   S29       1.0  0.37709  0.27553  0.78554  1.0000
  H   H93       1.0  0.31024  0.23505  0.97068  1.0000
  C   C105      1.0  0.29696  0.18871  0.93194  1.0000
  S   S30       1.0  0.00045  0.23393  0.97181  1.0000
  Fe  Fe18      1.0  0.27611  0.25850  0.54529  1.0000
  S   S31       1.0  0.23275  0.22745  0.56105  1.0000
  S   S32       1.0  0.31706  0.28292  0.57200  1.0000
  H   H94       1.0  0.28039  0.30518  0.60738  1.0000
  C   C106      1.0  0.22814  0.13060  0.52182  1.0000
  C   C107      1.0  0.32773  0.19889  0.50802  1.0000
  H   H95       1.0  0.29612  0.21526  0.57975  1.0000
  S   S33       1.0  0.21450  0.19929  0.98772  1.0000
  C   C108      1.0  0.35462  0.29575  0.61828  1.0000
  C   C109      1.0  0.42534  0.98511  0.85651  1.0000
  H   H96       1.0  0.21802  0.16234  0.91691  1.0000
  C   C110      1.0  0.35467  0.20554  0.59541  1.0000
  C   C111      1.0  0.34138  0.27843  0.96939  1.0000
  C   C112      1.0  0.14880  0.07366  0.51861  1.0000
  C   C113      1.0  0.31501  0.26135  0.66031  1.0000
  C   C114      1.0  0.30676  0.26192  0.63055  1.0000
  C   C115      1.0  0.32648  0.27939  0.60934  1.0000
  H   H97       1.0  0.25629  0.29702  0.65629  1.0000
  H   H98       1.0  0.29941  0.24813  0.67655  1.0000
  H   H99       1.0  0.28502  0.24945  0.62423  1.0000
  C   C116      1.0  0.33764  0.02265  0.66289  1.0000
  C   C117      1.0  0.35653  0.04643  0.64667  1.0000
  C   C118      1.0  0.35058  0.05023  0.61691  1.0000
  H   H100      1.0  0.98848  0.01237  0.55109  1.0000
  H   H101      1.0  0.19479  0.99728  0.62471  1.0000
  H   H102      1.0  0.37601  0.06155  0.65685  1.0000
  H   H103      1.0  0.36557  0.06852  0.60451  1.0000
  C   C119      1.0  0.42576  0.17681  0.74707  1.0000
  C   C120      1.0  0.42269  0.19801  0.73259  1.0000
  C   C121      1.0  0.42290  0.22009  0.74898  1.0000
  C   C122      1.0  0.42697  0.22149  0.77988  1.0000
  C   C123      1.0  0.42967  0.20005  0.79431  1.0000
  C   C124      1.0  0.42847  0.17749  0.77806  1.0000
  H   H104      1.0  0.42068  0.19760  0.70855  1.0000
  H   H105      1.0  0.42105  0.23660  0.73761  1.0000
  C   C125      1.0  0.24946  0.17077  0.95010  1.0000
  H   H106      1.0  0.43092  0.16128  0.78927  1.0000
  C   C126      1.0  0.32912  0.14304  0.81977  1.0000
  C   C127      1.0  0.29727  0.26909  0.90973  1.0000
  H   H107      1.0  0.31028  0.30641  0.93582  1.0000
  C   C128      1.0  0.25809  0.98787  0.85739  1.0000
  C   C129      1.0  0.32780  0.27446  0.86705  1.0000
  C   C130      1.0  0.30364  0.25795  0.88447  1.0000
  H   H108      1.0  0.33235  0.26547  0.84780  1.0000
  H   H109      1.0  0.28959  0.23643  0.87815  1.0000
  C   C131      1.0  0.44005  0.99816  0.83018  1.0000
  P   P3        1.0  0.29200  0.08094  0.88339  1.0000
  H   H110      1.0  0.08710  0.31531  0.88783  1.0000
  Fe  Fe19      1.0  0.39363  0.31672  0.80927  1.0000
  P   P4        1.0  0.32742  0.18517  0.56867  1.0000
  C   C132      1.0  0.31557  0.00279  0.90995  1.0000
  C   C133      1.0  0.33975  0.01299  0.86132  1.0000
  C   C134      1.0  0.35619  0.04138  0.86881  1.0000
  C   C135      1.0  0.35219  0.05026  0.89699  1.0000
  C   C136      1.0  0.33176  0.03129  0.91723  1.0000
  H   H111      1.0  0.36518  0.07198  0.90333  1.0000
  H   H112      1.0  0.32896  0.03858  0.93871  1.0000
  H   H113      1.0  0.32658  0.20316  0.63096  1.0000
  H   H114      1.0  0.34262  0.00567  0.83990  1.0000
  S   S34       1.0  0.26010  0.28015  0.51417  1.0000
  H   H115      1.0  0.41382  0.25426  0.65014  1.0000
  S   S35       1.0  0.18357  0.25962  0.53794  1.0000
  C   C137      1.0  0.45448  0.98635  0.71526  1.0000
  H   H116      1.0  0.01162  0.30592  0.90854  1.0000
  H   H117      1.0  0.29351  0.05310  0.82708  1.0000
  C   C138      1.0  0.31551  0.10441  0.85496  1.0000
  C   C139      1.0  0.35786  0.21959  0.88266  1.0000
  C   C140      1.0  0.14143  0.22535  0.94025  1.0000
  H   H118      1.0  0.27069  0.06654  0.94492  1.0000
  C   C141      1.0  0.31517  0.29732  0.91694  1.0000
  C   C142      1.0  0.37505  0.26141  0.93919  1.0000
  C   C143      1.0  0.27981  0.04461  0.87331  1.0000
  C   C144      1.0  0.16358  0.21967  0.93858  1.0000
  H   H119      1.0  0.15954  0.19821  0.94050  1.0000
  H   H120      1.0  0.21792  0.28630  0.93352  1.0000
  H   H121      1.0  0.28901  0.13666  0.53269  1.0000
  H   H122      1.0  0.44101  0.10064  0.87227  1.0000
  H   H123      1.0  0.20184  0.30144  0.88019  1.0000
  H   H124      1.0  0.12025  0.20825  0.94360  1.0000
  H   H125      1.0  0.38841  0.21468  0.56443  1.0000
  C   C145      1.0  0.34822  0.25607  0.51920  1.0000
  H   H126      1.0  0.35175  0.11072  0.90182  1.0000
  C   C146      1.0  0.09206  0.22846  0.50774  1.0000
  C   C147      1.0  0.32110  0.16003  0.97930  1.0000
  H   H127      1.0  0.40126  0.98725  0.89358  1.0000
  C   C148      1.0  0.34556  0.30276  0.87411  1.0000
  C   C149      1.0  0.35873  0.17960  0.90524  1.0000
  H   H128      1.0  0.36749  0.12100  0.56217  1.0000
  C   C150      1.0  0.30937  0.08773  0.91927  1.0000
  C   C151      1.0  0.30723  0.10988  0.52909  1.0000
  C   C152      1.0  0.27779  0.18071  0.95569  1.0000
  C   C153      1.0  0.26014  0.10289  0.90847  1.0000
  H   H129      1.0  0.08558  0.29857  0.93976  1.0000
  H   H130      1.0  0.16637  0.09391  0.52468  1.0000
  C   C154      1.0  0.13360  0.26030  0.53614  1.0000
  H   H131      1.0  0.12909  0.25675  0.94159  1.0000
  C   C155      1.0  0.33787  0.10104  0.84457  1.0000
  C   C156      1.0  0.44235  0.02393  0.82141  1.0000
  C   C157      1.0  0.24849  0.07135  0.63212  1.0000
  C   C158      1.0  0.25657  0.06465  0.60516  1.0000
  C   C159      1.0  0.28485  0.07401  0.59950  1.0000
  C   C160      1.0  0.30521  0.09071  0.62037  1.0000
  C   C161      1.0  0.29733  0.09813  0.64727  1.0000
  C   C162      1.0  0.26874  0.08771  0.65327  1.0000
  P   P5        1.0  0.32294  0.11695  0.67596  1.0000
  C   C163      1.0  0.35777  0.12862  0.66171  1.0000
  C   C164      1.0  0.32311  0.14852  0.68852  1.0000
  C   C165      1.0  0.30300  0.15556  0.67872  1.0000
  C   C166      1.0  0.30372  0.18013  0.68886  1.0000
  C   C167      1.0  0.32466  0.19799  0.70855  1.0000
  C   C168      1.0  0.34521  0.19156  0.71776  1.0000
  C   C169      1.0  0.34456  0.16704  0.70766  1.0000
  C   C170      1.0  0.37051  0.15254  0.64326  1.0000
  C   C171      1.0  0.39778  0.16246  0.63265  1.0000
  C   C172      1.0  0.41240  0.14839  0.64015  1.0000
  C   C173      1.0  0.39978  0.12446  0.65828  1.0000
  C   C174      1.0  0.37263  0.11466  0.66922  1.0000
  C   C175      1.0  0.31485  0.09204  0.70610  1.0000
  C   C176      1.0  0.30846  0.06436  0.69956  1.0000
  C   C177      1.0  0.30184  0.04468  0.72248  1.0000
  C   C178      1.0  0.30152  0.05238  0.75210  1.0000
  C   C179      1.0  0.30751  0.07974  0.75882  1.0000
  C   C180      1.0  0.31413  0.09954  0.73595  1.0000
  H   H132      1.0  0.22648  0.06345  0.63680  1.0000
  H   H133      1.0  0.24095  0.05166  0.58886  1.0000
  H   H134      1.0  0.29095  0.06768  0.57917  1.0000
  H   H135      1.0  0.32686  0.09690  0.61569  1.0000
  H   H136      1.0  0.26209  0.09187  0.67453  1.0000
  H   H137      1.0  0.28696  0.14250  0.66303  1.0000
  H   H138      1.0  0.28828  0.18561  0.68114  1.0000
  H   H139      1.0  0.32530  0.21711  0.71624  1.0000
  H   H140      1.0  0.36179  0.20576  0.73256  1.0000
  H   H141      1.0  0.36080  0.16247  0.71484  1.0000
  H   H142      1.0  0.35946  0.16372  0.63741  1.0000
  H   H143      1.0  0.40772  0.18121  0.61891  1.0000
  H   H144      1.0  0.43367  0.15620  0.63234  1.0000
  H   H145      1.0  0.41136  0.11395  0.66469  1.0000
  H   H146      1.0  0.36372  0.09650  0.68384  1.0000
  H   H147      1.0  0.30904  0.05803  0.67675  1.0000
  H   H148      1.0  0.29752  0.02353  0.71724  1.0000
  H   H149      1.0  0.29705  0.03720  0.76979  1.0000
  H   H150      1.0  0.30729  0.08570  0.78178  1.0000
  H   H151      1.0  0.31866  0.12052  0.74181  1.0000
  H   H152      1.0  0.29451  0.12904  0.85021  1.0000
  H   H153      1.0  0.21103  0.12544  0.99707  1.0000
  P   P6        1.0  0.12756  0.99056  0.52513  1.0000
  C   C181      1.0  0.29377  0.17467  0.58563  1.0000
  C   C182      1.0  0.28413  0.19408  0.58849  1.0000
  C   C183      1.0  0.25868  0.18628  0.60285  1.0000
  C   C184      1.0  0.24241  0.15900  0.61391  1.0000
  C   C185      1.0  0.25190  0.13961  0.61132  1.0000
  C   C186      1.0  0.27762  0.14746  0.59757  1.0000
  C   C187      1.0  0.22361  0.10664  0.53819  1.0000
  H   H154      1.0  0.36713  0.16365  0.57904  1.0000
  C   C188      1.0  0.35036  0.14909  0.56498  1.0000
  H   H155      1.0  0.25119  0.20119  0.60473  1.0000
  H   H156      1.0  0.22219  0.15281  0.62392  1.0000
  H   H157      1.0  0.23906  0.11837  0.61951  1.0000
  H   H158      1.0  0.28466  0.13214  0.59612  1.0000
  C   C189      1.0  0.22863  0.08594  0.52531  1.0000
  C   C190      1.0  0.33563  0.09697  0.97519  1.0000
  C   C191      1.0  0.32840  0.15396  0.55660  1.0000
  C   C192      1.0  0.38483  0.28999  0.94437  1.0000
  H   H159      1.0  0.29377  0.07487  0.99338  1.0000
  H   H160      1.0  0.40522  0.03249  0.87742  1.0000
  S   S36       1.0  0.21831  0.15428  0.53774  1.0000
  H   H161      1.0  0.36418  0.23398  0.66511  1.0000
  H   H162      1.0  0.19255  0.08775  0.89950  1.0000
  C   C193      1.0  0.35176  0.10725  0.94927  1.0000
  H   H163      1.0  0.07339  0.98465  0.54556  1.0000
  C   C194      1.0  0.19637  0.26956  0.93479  1.0000
  C   C195      1.0  0.31138  0.12573  0.84249  1.0000
  C   C196      1.0  0.34807  0.21137  0.62392  1.0000
  Fe  Fe20      1.0  0.98728  0.26626  0.98125  1.0000
  H   H164      1.0  0.37278  0.11552  0.81418  1.0000
  C   C197      1.0  0.38291  0.21798  0.58672  1.0000
  C   C198      1.0  0.30661  0.00671  0.61922  1.0000
  H   H165      1.0  0.38036  0.22413  0.98186  1.0000
  S   S37       1.0  0.99362  0.26258  0.59491  1.0000
  H   H166      1.0  0.35358  0.16462  0.92330  1.0000
  H   H167      1.0  0.19505  0.05782  0.85934  1.0000
  H   H168      1.0  0.16750  0.02258  0.62550  1.0000
  H   H169      1.0  0.31952  0.17693  0.50293  1.0000
  C   C199      1.0  0.36939  0.22887  0.64349  1.0000
  H   H170      1.0  0.32789  0.28487  0.98031  1.0000
  H   H171      1.0  0.27588  0.00355  0.81407  1.0000
  S   S38       1.0  0.27644  0.23022  0.50904  1.0000
  H   H172      1.0  0.31595  0.30215  0.71799  1.0000
  C   C200      1.0  0.14852  0.24728  0.52529  1.0000
  H   H173      1.0  0.30600  0.27211  0.76229  1.0000
  C   C201      1.0  0.36787  0.29851  0.95921  1.0000
  C   C202      1.0  0.23528  0.10350  0.91326  1.0000
  H   H174      1.0  0.21170  0.30352  0.98576  1.0000
  H   H175      1.0  0.30224  0.14767  0.96650  1.0000
  C   C203      1.0  0.34302  0.27825  0.66943  1.0000
  H   H176      1.0  0.34718  0.24571  0.56544  1.0000
  C   C204      1.0  0.34342  0.23752  0.54290  1.0000
  S   S39       1.0  0.35171  0.27734  0.70776  1.0000
  S   S40       1.0  0.98727  0.21291  0.53097  1.0000
  C   C205      1.0  0.33910  0.31401  0.89923  1.0000
  H   H177      1.0  0.21561  0.10380  0.56074  1.0000
  H   H178      1.0  0.43354  0.20131  0.81806  1.0000
  C   C206      1.0  0.35073  0.12490  0.55540  1.0000
  C   C207      1.0  0.25874  0.17686  0.89713  1.0000
  H   H179      1.0  0.32594  0.15954  0.81029  1.0000
  C   C208      1.0  0.17418  0.27552  0.93624  1.0000
  Fe  Fe21      1.0  0.38727  0.30005  0.74218  1.0000
  Fe  Fe22      1.0  0.21629  0.24623  0.52690  1.0000
  C   C209      1.0  0.39741  0.24056  0.63492  1.0000
  C   C210      1.0  0.33318  0.20872  0.53757  1.0000
  Fe  Fe23      1.0  0.23259  0.19976  0.52352  1.0000
  C   C211      1.0  0.29198  0.31663  0.62696  1.0000
  C   C212      1.0  0.45673  0.11722  0.85838  1.0000
  C   C213      1.0  0.40419  0.23513  0.60653  1.0000
  H   H180      1.0  0.39076  0.19535  0.83726  1.0000
  C   C214      1.0  0.21328  0.07048  0.87296  1.0000
  H   H181      1.0  0.23501  0.16478  0.96858  1.0000
  S   S41       1.0  0.32024  0.03557  0.56468  1.0000
  H   H182      1.0  0.40522  0.30558  0.93604  1.0000
  H   H183      1.0  0.38459  0.30782  0.65438  1.0000
  C   C215      1.0  0.25391  0.99486  0.88614  1.0000
  H   H184      1.0  0.20820  0.23732  0.93471  1.0000
  H   H185      1.0  0.26138  0.02766  0.91668  1.0000
  H   H186      1.0  0.37440  0.11827  0.95071  1.0000
  C   C216      1.0  0.37973  0.19673  0.85662  1.0000
  C   C217      1.0  0.41523  0.02309  0.86451  1.0000
  H   H187      1.0  0.14364  0.27752  0.55173  1.0000
  H   H188      1.0  0.22461  0.06742  0.53794  1.0000
  C   C218      1.0  0.36495  0.20285  0.98798  1.0000
  C   C219      1.0  0.99380  0.30516  0.89736  1.0000
  H   H189      1.0  0.97538  0.19908  0.91215  1.0000
  H   H190      1.0  0.31750  0.29327  0.81283  1.0000
  C   C220      1.0  0.23789  0.06916  0.86866  1.0000
  C   C221      1.0  0.23992  0.16921  0.92094  1.0000
  C   C222      1.0  0.31987  0.99383  0.88190  1.0000
  C   C223      1.0  0.12750  0.30484  0.93810  1.0000
  C   C224      1.0  0.30646  0.08261  0.97333  1.0000
  C   C225      1.0  0.32933  0.10546  0.53722  1.0000
  H   H191      1.0  0.29051  0.09458  0.51522  1.0000
  C   C226      1.0  0.30658  0.13384  0.53893  1.0000
  C   C227      1.0  0.33872  0.10281  0.92144  1.0000
  H   H192      1.0  0.37862  0.16127  0.87893  1.0000
  C   C228      1.0  0.28715  0.18658  0.90256  1.0000
  P   P7        1.0  0.18135  0.31165  0.93665  1.0000
  H   H193      1.0  0.34134  0.08464  0.85373  1.0000
  C   C229      1.0  0.16730  0.01100  0.60584  1.0000
  H   H194      1.0  0.35203  0.23591  0.88312  1.0000
  P   P8        1.0  0.33404  0.20440  0.93940  1.0000
  C   C230      1.0  0.43002  0.03632  0.83854  1.0000
  C   C231      1.0  0.26135  0.08500  0.88676  1.0000
  C   C232      1.0  0.31258  0.00294  0.64902  1.0000
  C   C233      1.0  0.10561  0.25098  0.52750  1.0000
  C   C234      1.0  0.35147  0.20089  0.90682  1.0000
  C   C235      1.0  0.29338  0.07789  0.94559  1.0000
  H   H195      1.0  0.42593  0.24469  0.59968  1.0000
  H   H196      1.0  0.13857  0.01996  0.58219  1.0000
  H   H197      1.0  0.43138  0.05591  0.83138  1.0000
  H   H198      1.0  0.38857  0.25529  0.92769  1.0000
  C   C236      1.0  0.27256  0.00905  0.83632  1.0000
  C   C237      1.0  0.21187  0.08739  0.89550  1.0000
  H   H199      1.0  0.30134  0.19315  0.88376  1.0000
  C   C238      1.0  0.97623  0.27572  0.64709  1.0000
  H   H200      1.0  0.32958  0.08667  0.52983  1.0000
  C   C239      1.0  0.21923  0.09054  0.99614  1.0000
  H   H201      1.0  0.98918  0.04030  0.50698  1.0000
  C   C240      1.0  0.37211  0.21759  0.85777  1.0000
  C   C241      1.0  0.14664  0.25310  0.93920  1.0000
  H   H202      1.0  0.23834  0.05533  0.85167  1.0000
  H   H203      1.0  0.37012  0.30930  0.60214  1.0000
  Fe  Fe24      1.0  0.28297  0.01055  0.53331  1.0000
  H   H204      1.0  0.99002  0.31779  0.74098  1.0000
  H   H205      1.0  0.36510  0.15292  0.79204  1.0000
  C   C242      1.0  0.28300  0.03727  0.84405  1.0000
  C   C243      1.0  0.10519  0.31491  0.89702  1.0000
  C   C244      1.0  0.34778  0.24121  0.94796  1.0000
  C   C245      1.0  0.32023  0.31175  0.73985  1.0000
  H   H206      1.0  0.37756  0.23243  0.83942  1.0000
  H   H207      1.0  0.09436  0.26094  0.53652  1.0000
  C   C246      1.0  0.26477  0.02303  0.89414  1.0000
  C   C247      1.0  0.35126  0.13942  0.80955  1.0000
  S   S42       1.0  0.24174  0.00899  0.54147  1.0000
  C   C248      1.0  0.37290  0.17761  0.88019  1.0000
  C   C249      1.0  0.20333  0.31653  0.99377  1.0000
  C   C250      1.0  0.14911  0.04885  0.52569  1.0000
  C   C251      1.0  0.32130  0.30650  0.79341  1.0000
  S   S43       1.0  0.43131  0.30679  0.73967  1.0000
  C   C252      1.0  0.10431  0.30554  0.92623  1.0000
  C   C253      1.0  0.45333  0.13998  0.84985  1.0000
  C   C254      1.0  0.47313  0.16105  0.83125  1.0000
  C   C255      1.0  0.15114  0.00969  0.58112  1.0000
  H   H208      1.0  0.28465  0.18270  0.97868  1.0000
  H   H209      1.0  0.46977  0.17820  0.82466  1.0000
  H   H210      1.0  0.20363  0.07929  0.97924  1.0000
  C   C256      1.0  0.15182  0.31341  0.92096  1.0000
  H   H211      1.0  0.16740  0.05040  0.53661  1.0000
  H   H212      1.0  0.12636  0.29735  0.96069  1.0000
  H   H213      1.0  0.28745  0.99115  0.60876  1.0000
  C   C257      1.0  0.15092  0.99488  0.55543  1.0000
  S   S44       1.0  0.22763  0.04469  0.99476  1.0000
  Fe  Fe25      1.0  0.02709  0.23387  0.50350  1.0000
  H   H214      1.0  0.46867  0.98924  0.69706  1.0000
  C   C258      1.0  0.13511  0.22496  0.50520  1.0000
  C   C259      1.0  0.99694  0.31723  0.86867  1.0000
  C   C260      1.0  0.42872  0.98476  0.70940  1.0000
  H   H215      1.0  0.42285  0.98634  0.68669  1.0000
  C   C261      1.0  0.12620  0.07250  0.50308  1.0000
  Fe  Fe26      1.0  0.12430  0.41958  0.27396  1.0000
  S   S45       1.0  0.08900  0.37735  0.26108  1.0000
  S   S46       1.0  0.16128  0.41887  0.29612  1.0000
  Fe  Fe27      1.0  0.09071  0.45036  0.25954  1.0000
  S   S47       1.0  0.05273  0.40895  0.24658  1.0000
  S   S48       1.0  0.09451  0.49400  0.24848  1.0000
  Fe  Fe28      1.0  0.06217  0.39011  0.28737  1.0000
  S   S49       1.0  0.02878  0.35559  0.31740  1.0000
  Fe  Fe29      1.0  0.08249  0.39894  0.22168  1.0000
  S   S50       1.0  0.08125  0.38505  0.17295  1.0000
  S   S51       1.0  0.09778  0.43193  0.30200  1.0000
  S   S52       1.0  0.12017  0.44083  0.23283  1.0000
  H   H216      1.0  0.39673  0.36838  0.02080  1.0000
  H   H217      1.0  0.11630  0.37492  0.03360  1.0000
  S   S53       1.0  0.07913  0.59875  0.29140  1.0000
  C   C262      1.0  0.15329  0.43069  0.42584  1.0000
  C   C263      1.0  0.32576  0.57206  0.20648  1.0000
  C   C264      1.0  0.37018  0.47802  0.19957  1.0000
  C   C265      1.0  0.22348  0.34058  0.43613  1.0000
  H   H218      1.0  0.45385  0.58743  0.23357  1.0000
  H   H219      1.0  0.11825  0.36803  0.20142  1.0000
  C   C266      1.0  0.09023  0.52305  0.26099  1.0000
  C   C267      1.0  0.08530  0.52668  0.29092  1.0000
  C   C268      1.0  0.08215  0.54990  0.29962  1.0000
  C   C269      1.0  0.08413  0.57022  0.27877  1.0000
  C   C270      1.0  0.08930  0.56675  0.24884  1.0000
  C   C271      1.0  0.09201  0.54326  0.24007  1.0000
  H   H220      1.0  0.08397  0.51161  0.30746  1.0000
  H   H221      1.0  0.07815  0.55217  0.32282  1.0000
  H   H222      1.0  0.09070  0.58189  0.23236  1.0000
  H   H223      1.0  0.09552  0.54075  0.21681  1.0000
  C   C272      1.0  0.18957  0.41890  0.27706  1.0000
  H   H224      1.0  0.18384  0.43544  0.23566  1.0000
  C   C273      1.0  0.03229  0.34590  0.35464  1.0000
  S   S54       1.0  0.30503  0.32782  0.21130  1.0000
  C   C274      1.0  0.35493  0.41608  0.38599  1.0000
  H   H225      1.0  0.02795  0.56151  0.23929  1.0000
  C   C275      1.0  0.01476  0.52365  0.26492  1.0000
  C   C276      1.0  0.36070  0.39448  0.39300  1.0000
  C   C277      1.0  0.00648  0.48214  0.23697  1.0000
  H   H226      1.0  0.35850  0.39314  0.12081  1.0000
  C   C278      1.0  0.01696  0.40248  0.17553  1.0000
  C   C279      1.0  0.00220  0.57420  0.46796  1.0000
  C   C280      1.0  0.35864  0.36156  0.14944  1.0000
  C   C281      1.0  0.33917  0.55710  0.21536  1.0000
  Fe  Fe30      1.0  0.31290  0.36603  0.23960  1.0000
  S   S55       1.0  0.32889  0.41012  0.22320  1.0000
  C   C282      1.0  0.37475  0.35684  0.01503  1.0000
  Fe  Fe31      1.0  0.30926  0.38215  0.30455  1.0000
  S   S56       1.0  0.32480  0.42781  0.29225  1.0000
  S   S57       1.0  0.29563  0.36969  0.35335  1.0000
  Fe  Fe32      1.0  0.29571  0.41008  0.25304  1.0000
  S   S58       1.0  0.26927  0.42760  0.23321  1.0000
  Fe  Fe33      1.0  0.35726  0.42524  0.26359  1.0000
  S   S59       1.0  0.40438  0.45844  0.25685  1.0000
  S   S60       1.0  0.27796  0.36500  0.26712  1.0000
  S   S61       1.0  0.34350  0.38046  0.27822  1.0000
  C   C283      1.0  0.23782  0.42245  0.24993  1.0000
  C   C284      1.0  0.23013  0.41158  0.27883  1.0000
  C   C285      1.0  0.20632  0.41019  0.29245  1.0000
  C   C286      1.0  0.19657  0.42865  0.24770  1.0000
  C   C287      1.0  0.22078  0.43068  0.23433  1.0000
  H   H227      1.0  0.24303  0.40508  0.29098  1.0000
  H   H228      1.0  0.20097  0.40265  0.31513  1.0000
  H   H229      1.0  0.22652  0.43901  0.21192  1.0000
  C   C288      1.0  0.43024  0.49431  0.26500  1.0000
  C   C289      1.0  0.45426  0.50794  0.24669  1.0000
  H   H230      1.0  0.45531  0.47293  0.35677  1.0000
  H   H231      1.0  0.47125  0.46166  0.26550  1.0000
  H   H232      1.0  0.98330  0.37314  0.31077  1.0000
  C   C290      1.0  0.42825  0.50917  0.28950  1.0000
  C   C291      1.0  0.45018  0.53676  0.29584  1.0000
  C   C292      1.0  0.11117  0.33777  0.36034  1.0000
  H   H233      1.0  0.41011  0.49920  0.30393  1.0000
  C   C293      1.0  0.28967  0.33950  0.37447  1.0000
  C   C294      1.0  0.28239  0.33788  0.40487  1.0000
  C   C295      1.0  0.19749  0.38540  0.38113  1.0000
  H   H234      1.0  0.28124  0.35522  0.41502  1.0000
  H   H235      1.0  0.09864  0.33316  0.28543  1.0000
  H   H236      1.0  0.22332  0.32417  0.11410  1.0000
  C   C296      1.0  0.29154  0.33940  0.15470  1.0000
  H   H237      1.0  0.00164  0.48339  0.28490  1.0000
  H   H238      1.0  0.29751  0.36018  0.16298  1.0000
  H   H239      1.0  0.28440  0.34863  0.10966  1.0000
  H   H240      1.0  0.35751  0.32637  0.17226  1.0000
  C   C297      1.0  0.98775  0.40477  0.27879  1.0000
  C   C298      1.0  0.01132  0.32010  0.36645  1.0000
  C   C299      1.0  0.05597  0.35552  0.40278  1.0000
  C   C300      1.0  0.36410  0.33685  0.09680  1.0000
  H   H241      1.0  0.13021  0.44002  0.35863  1.0000
  C   C301      1.0  0.05666  0.35509  0.15240  1.0000
  C   C302      1.0  0.11613  0.34322  0.32960  1.0000
  H   H242      1.0  0.04136  0.47230  0.27855  1.0000
  H   H243      1.0  0.07655  0.46584  0.17086  1.0000
  H   H244      1.0  0.46698  0.35202  0.34975  1.0000
  C   C303      1.0  0.34763  0.46720  0.17975  1.0000
  Fe  Fe34      1.0  0.08178  0.64003  0.27353  1.0000
  C   C304      1.0  0.37143  0.49562  0.22280  1.0000
  H   H245      1.0  0.08250  0.36764  0.11282  1.0000
  P   P9        1.0  0.35255  0.52652  0.25541  1.0000
  C   C305      1.0  0.33507  0.50412  0.28707  1.0000
  C   C306      1.0  0.30580  0.48705  0.28690  1.0000
  C   C307      1.0  0.29187  0.47041  0.31170  1.0000
  C   C308      1.0  0.30706  0.47019  0.33660  1.0000
  C   C309      1.0  0.33628  0.48646  0.33659  1.0000
  C   C310      1.0  0.35030  0.50306  0.31174  1.0000
  C   C311      1.0  0.32614  0.47369  0.18347  1.0000
  H   H246      1.0  0.15283  0.36613  0.23553  1.0000
  C   C312      1.0  0.15144  0.40458  0.42068  1.0000
  H   H247      1.0  0.38842  0.50286  0.23865  1.0000
  H   H248      1.0  0.29367  0.48646  0.26754  1.0000
  H   H249      1.0  0.26927  0.45745  0.31140  1.0000
  H   H250      1.0  0.29620  0.45694  0.35560  1.0000
  H   H251      1.0  0.34807  0.48594  0.35569  1.0000
  H   H252      1.0  0.37296  0.51477  0.31177  1.0000
  H   H253      1.0  0.35275  0.55441  0.19971  1.0000
  H   H254      1.0  0.15768  0.39511  0.43817  1.0000
  H   H255      1.0  0.11898  0.60985  0.18270  1.0000
  C   C313      1.0  0.16104  0.57067  0.23661  1.0000
  P   P10       1.0  0.38572  0.36113  0.38305  1.0000
  H   H256      1.0  0.02503  0.40556  0.33985  1.0000
  H   H257      1.0  0.23175  0.36247  0.43006  1.0000
  H   H258      1.0  0.01079  0.48791  0.18903  1.0000
  C   C314      1.0  0.98108  0.57979  0.45873  1.0000
  C   C315      1.0  0.37799  0.38898  0.37428  1.0000
  C   C316      1.0  0.38946  0.40556  0.34852  1.0000
  C   C317      1.0  0.38330  0.42687  0.34137  1.0000
  C   C318      1.0  0.36602  0.43208  0.36008  1.0000
  C   C319      1.0  0.01979  0.52624  0.21119  1.0000
  H   H259      1.0  0.13645  0.35923  0.32147  1.0000
  C   C320      1.0  0.05543  0.45029  0.17721  1.0000
  H   H260      1.0  0.45616  0.49694  0.22757  1.0000
  P   P11       1.0  0.13908  0.35704  0.38677  1.0000
  C   C321      1.0  0.46979  0.47843  0.33824  1.0000
  H   H261      1.0  0.35567  0.37058  0.16975  1.0000
  H   H262      1.0  0.40262  0.40158  0.33353  1.0000
  H   H263      1.0  0.39125  0.43888  0.32090  1.0000
  H   H264      1.0  0.36056  0.44796  0.35401  1.0000
  C   C322      1.0  0.30452  0.56502  0.25540  1.0000
  H   H265      1.0  0.14701  0.46369  0.40743  1.0000
  C   C323      1.0  0.01366  0.43697  0.20703  1.0000
  C   C324      1.0  0.12392  0.32901  0.09545  1.0000
  H   H266      1.0  0.34068  0.41944  0.39990  1.0000
  C   C325      1.0  0.47438  0.55029  0.27768  1.0000
  C   C326      1.0  0.13384  0.40388  0.37096  1.0000
  C   C327      1.0  0.03527  0.44131  0.31147  1.0000
  C   C328      1.0  0.16084  0.59630  0.18260  1.0000
  H   H267      1.0  0.35099  0.38179  0.41261  1.0000
  C   C329      1.0  0.03518  0.32954  0.41451  1.0000
  H   H268      1.0  0.34617  0.45279  0.16238  1.0000
  C   C330      1.0  0.01888  0.41338  0.32065  1.0000
  C   C331      1.0  0.17273  0.34318  0.35148  1.0000
  C   C332      1.0  0.17208  0.36257  0.37159  1.0000
  C   C333      1.0  0.10572  0.33307  0.04738  1.0000
  C   C334      1.0  0.05477  0.36348  0.37299  1.0000
  C   C335      1.0  0.15432  0.55526  0.21016  1.0000
  C   C336      1.0  0.40965  0.56137  0.24256  1.0000
  C   C337      1.0  0.14153  0.39085  0.39321  1.0000
  C   C338      1.0  0.34981  0.33317  0.43046  1.0000
  H   H269      1.0  0.29784  0.58737  0.21951  1.0000
  H   H270      1.0  0.44916  0.33285  0.00353  1.0000
  C   C339      1.0  0.13596  0.43009  0.37610  1.0000
  H   H271      1.0  0.31501  0.54220  0.28703  1.0000
  C   C340      1.0  0.46034  0.46486  0.31084  1.0000
  C   C341      1.0  0.12807  0.35565  0.19547  1.0000
  H   H272      1.0  0.07314  0.36971  0.41682  1.0000
  C   C342      1.0  0.36282  0.36190  0.09557  1.0000
  C   C343      1.0  0.22303  0.38913  0.37011  1.0000
  C   C344      1.0  0.02131  0.53924  0.23848  1.0000
  C   C345      1.0  0.40417  0.33021  0.05783  1.0000
  H   H273      1.0  0.46410  0.61174  0.28213  1.0000
  C   C346      1.0  0.11887  0.36224  0.05061  1.0000
  H   H274      1.0  0.14531  0.39757  0.07840  1.0000
  C   C347      1.0  0.42116  0.58927  0.29731  1.0000
  H   H275      1.0  0.02611  0.33664  0.18753  1.0000
  H   H276      1.0  0.21936  0.31879  0.03816  1.0000
  C   C348      1.0  0.14556  0.44345  0.40354  1.0000
  H   H277      1.0  0.19763  0.40043  0.39689  1.0000
  H   H278      1.0  0.31032  0.49570  0.20947  1.0000
  C   C349      1.0  0.35083  0.50361  0.22557  1.0000
  H   H279      1.0  0.09874  0.34724  0.43462  1.0000
  H   H280      1.0  0.16054  0.56045  0.25757  1.0000
  C   C350      1.0  0.36498  0.33102  0.35948  1.0000
  C   C351      1.0  0.39218  0.35029  0.47300  1.0000
  C   C352      1.0  0.19825  0.34723  0.34013  1.0000
  H   H281      1.0  0.12623  0.39405  0.34952  1.0000
  C   C353      1.0  0.01626  0.58534  0.49478  1.0000
  C   C354      1.0  0.31796  0.55012  0.26438  1.0000
  H   H282      1.0  0.98198  0.39299  0.20412  1.0000
  H   H283      1.0  0.40855  0.35693  0.48960  1.0000
  H   H284      1.0  0.10619  0.34221  0.15390  1.0000
  C   C355      1.0  0.30833  0.57590  0.22644  1.0000
  H   H285      1.0  0.16068  0.44101  0.44714  1.0000
  C   C356      1.0  0.15292  0.32328  0.18034  1.0000
  H   H286      1.0  0.24320  0.37319  0.34080  1.0000
  H   H287      1.0  0.14857  0.53318  0.21080  1.0000
  H   H288      1.0  0.05418  0.45525  0.32352  1.0000
  H   H289      1.0  0.24257  0.40692  0.37727  1.0000
  C   C357      1.0  0.36261  0.32432  0.12468  1.0000
  H   H290      1.0  0.07095  0.38346  0.36442  1.0000
  H   H291      1.0  0.40566  0.55153  0.22088  1.0000
  C   C358      1.0  0.33497  0.54561  0.24421  1.0000
  H   H292      1.0  0.17298  0.61031  0.25695  1.0000
  C   C359      1.0  0.16668  0.61168  0.20923  1.0000
  C   C360      1.0  0.22341  0.37014  0.34953  1.0000
  C   C361      1.0  0.04055  0.45728  0.19763  1.0000
  H   H293      1.0  0.37725  0.56369  0.30661  1.0000
  C   C362      1.0  0.38800  0.55359  0.26360  1.0000
  C   C363      1.0  0.19673  0.34166  0.03460  1.0000
  H   H294      1.0  0.44840  0.54773  0.31505  1.0000
  H   H295      1.0  0.30782  0.46400  0.16928  1.0000
  C   C364      1.0  0.13466  0.32568  0.16005  1.0000
  C   C365      1.0  0.32764  0.49172  0.20637  1.0000
  C   C366      1.0  0.06290  0.35198  0.12259  1.0000
  C   C367      1.0  0.02789  0.45098  0.28600  1.0000
  C   C368      1.0  0.39382  0.56838  0.29064  1.0000
  C   C369      1.0  0.35726  0.33457  0.33061  1.0000
  H   H296      1.0  0.08605  0.61904  0.15389  1.0000
  H   H297      1.0  0.38620  0.47196  0.19767  1.0000
  H   H298      1.0  0.14929  0.55612  0.16265  1.0000
  H   H299      1.0  0.09311  0.32318  0.02781  1.0000
  H   H300      1.0  0.41690  0.33389  0.36045  1.0000
  S   S62       1.0  0.03783  0.32073  0.45244  1.0000
  C   C370      1.0  0.34306  0.32417  0.46006  1.0000
  C   C371      1.0  0.46003  0.36608  0.35840  1.0000
  C   C372      1.0  0.13792  0.35845  0.09805  1.0000
  C   C373      1.0  0.15444  0.56813  0.18312  1.0000
  H   H301      1.0  0.05054  0.47829  0.20682  1.0000
  H   H302      1.0  0.23895  0.34957  0.48126  1.0000
  C   C374      1.0  0.44186  0.33479  0.02542  1.0000
  C   C375      1.0  0.44277  0.59595  0.27681  1.0000
  H   H303      1.0  0.05542  0.41736  0.15080  1.0000
  H   H304      1.0  0.17447  0.33694  0.22248  1.0000
  H   H305      1.0  0.43858  0.44910  0.30789  1.0000
  C   C376      1.0  0.16751  0.59884  0.23617  1.0000
  C   C377      1.0  0.13516  0.37495  0.07582  1.0000
  C   C378      1.0  0.14743  0.35444  0.21476  1.0000
  H   H306      1.0  0.16099  0.60602  0.16146  1.0000
  C   C379      1.0  0.28409  0.33277  0.12440  1.0000
  C   C380      1.0  0.04359  0.42295  0.16605  1.0000
  C   C381      1.0  0.10624  0.32448  0.46902  1.0000
  H   H307      1.0  0.00763  0.56121  0.45433  1.0000
  C   C382      1.0  0.37775  0.35058  0.42176  1.0000
  H   H308      1.0  0.42071  0.37265  0.43725  1.0000
  C   C383      1.0  0.99520  0.39510  0.30425  1.0000
  P   P12       1.0  0.99559  0.44507  0.23572  1.0000
  C   C384      1.0  0.20773  0.32521  0.02355  1.0000
  C   C385      1.0  0.43160  0.35587  0.36447  1.0000
  H   H309      1.0  0.19858  0.33260  0.32407  1.0000
  C   C386      1.0  0.43698  0.58216  0.24938  1.0000
  C   C387      1.0  0.01210  0.49772  0.21037  1.0000
  C   C388      1.0  0.41389  0.32778  0.02956  1.0000
  H   H310      1.0  0.15353  0.32512  0.34423  1.0000
  C   C389      1.0  0.15965  0.33805  0.20733  1.0000
  H   H311      1.0  0.36317  0.35519  0.32203  1.0000
  C   C390      1.0  0.00209  0.40938  0.19610  1.0000
  S   S63       1.0  0.04344  0.64514  0.26737  1.0000
  C   C391      1.0  0.09467  0.32863  0.30904  1.0000
  C   C392      1.0  0.36012  0.37418  0.12184  1.0000
  H   H312      1.0  0.43552  0.41654  0.38985  1.0000
  H   H313      1.0  0.36352  0.37184  0.07444  1.0000
  C   C393      1.0  0.00383  0.43298  0.26978  1.0000
  H   H314      1.0  0.32888  0.58066  0.18409  1.0000
  H   H315      1.0  0.13602  0.62500  0.25855  1.0000
  H   H316      1.0  0.29110  0.56811  0.27093  1.0000
  H   H317      1.0  0.19966  0.34789  0.05783  1.0000
  H   H318      1.0  0.33327  0.32649  0.41419  1.0000
  H   H319      1.0  0.20505  0.32541  0.39330  1.0000
  C   C394      1.0  0.44211  0.40231  0.38089  1.0000
  C   C395      1.0  0.47049  0.41249  0.37462  1.0000
  C   C396      1.0  0.04397  0.32887  0.10519  1.0000
  H   H320      1.0  0.15067  0.36875  0.11737  1.0000
  C   C397      1.0  0.39898  0.35919  0.44328  1.0000
  C   C398      1.0  0.42238  0.37403  0.37534  1.0000
  C   C399      1.0  0.00696  0.49512  0.26417  1.0000
  C   C400      1.0  0.10627  0.63637  0.16020  1.0000
  H   H321      1.0  0.42569  0.60027  0.31841  1.0000
  C   C401      1.0  0.12144  0.34110  0.16839  1.0000
  C   C402      1.0  0.29243  0.31955  0.17384  1.0000
  H   H322      1.0  0.04910  0.32690  0.08232  1.0000
  C   C403      1.0  0.45093  0.34673  0.07771  1.0000
  C   C404      1.0  0.03123  0.33461  0.16467  1.0000
  C   C405      1.0  0.18190  0.35001  0.01566  1.0000
  C   C406      1.0  0.35973  0.33658  0.15084  1.0000
  H   H323      1.0  0.18773  0.33702  0.12947  1.0000
  H   H324      1.0  0.02482  0.53838  0.19072  1.0000
  H   H325      1.0  0.01632  0.53395  0.28606  1.0000
  C   C407      1.0  0.35598  0.33301  0.03155  1.0000
  C   C408      1.0  0.22756  0.33336  0.46487  1.0000
  C   C409      1.0  0.12512  0.63126  0.17643  1.0000
  C   C410      1.0  0.36422  0.33276  0.48138  1.0000
  H   H326      1.0  0.41616  0.34180  0.10397  1.0000
  C   C411      1.0  0.42295  0.33972  0.08191  1.0000
  C   C412      1.0  0.11125  0.33781  0.44124  1.0000
  C   C413      1.0  0.13203  0.33876  0.42218  1.0000
  H   H327      1.0  0.46529  0.35406  0.09640  1.0000
  H   H328      1.0  0.13531  0.64356  0.30832  1.0000
  H   H329      1.0  0.00837  0.38106  0.16763  1.0000
  H   H330      1.0  0.17330  0.36269  0.02429  1.0000
  C   C414      1.0  0.46040  0.34428  0.04949  1.0000
  C   C415      1.0  0.15270  0.64568  0.26468  1.0000
  H   H331      1.0  0.16380  0.32665  0.41722  1.0000
  C   C416      1.0  0.14798  0.32649  0.43159  1.0000
  H   H332      1.0  0.08969  0.32337  0.48325  1.0000
  C   C417      1.0  0.32738  0.31964  0.02462  1.0000
  P   P13       1.0  0.36789  0.32096  0.06299  1.0000
  P   P14       1.0  0.17500  0.64810  0.20806  1.0000
  H   H333      1.0  0.39977  0.32033  0.01076  1.0000
  C   C418      1.0  0.20862  0.31953  0.41518  1.0000
  C   C419      1.0  0.01759  0.64126  0.81663  1.0000
  C   C420      1.0  0.43665  0.39511  0.70304  1.0000
  C   C421      1.0  0.32002  0.43434  0.72171  1.0000
  C   C422      1.0  0.07780  0.43278  0.66422  1.0000
  C   C423      1.0  0.41727  0.36870  0.69202  1.0000
  H   H334      1.0  0.37374  0.33848  0.68664  1.0000
  C   C424      1.0  0.07311  0.48031  0.65076  1.0000
  H   H335      1.0  0.12225  0.45993  0.65862  1.0000
  Fe  Fe35      1.0  0.44482  0.34696  0.76641  1.0000
  C   C425      1.0  0.98968  0.41902  0.69734  1.0000
  S   S64       1.0  0.40085  0.34125  0.76623  1.0000
  C   C426      1.0  0.10184  0.45851  0.65831  1.0000
  C   C427      1.0  0.04903  0.45460  0.65663  1.0000
  H   H336      1.0  0.37973  0.38419  0.97790  1.0000
  H   H337      1.0  0.05982  0.39564  0.76969  1.0000
  P   P15       1.0  0.98044  0.63070  0.52560  1.0000
  H   H338      1.0  0.42447  0.35506  0.68274  1.0000
  C   C428      1.0  0.23238  0.35987  0.92411  1.0000
  H   H339      1.0  0.24527  0.32953  0.85126  1.0000
  H   H340      1.0  0.07127  0.49866  0.64523  1.0000
  S   S65       1.0  0.43813  0.32470  0.81062  1.0000
  C   C429      1.0  0.34749  0.41597  0.69824  1.0000
  C   C430      1.0  0.02343  0.38076  0.70434  1.0000
  C   C431      1.0  0.17774  0.34159  0.98575  1.0000
  C   C432      1.0  0.33240  0.34100  0.74299  1.0000
  H   H341      1.0  0.02877  0.45339  0.65509  1.0000
  C   C433      1.0  0.38859  0.35942  0.69409  1.0000
  C   C434      1.0  0.02566  0.35510  0.75781  1.0000
  H   H342      1.0  0.44246  0.43206  0.72610  1.0000
  C   C435      1.0  0.00411  0.35241  0.70995  1.0000
  C   C436      1.0  0.04343  0.39643  0.72614  1.0000
  H   H343      1.0  0.35033  0.37548  0.77443  1.0000
  H   H344      1.0  0.27231  0.39652  0.91504  1.0000
  C   C437      1.0  0.26153  0.36485  0.88125  1.0000
  H   H345      1.0  0.28964  0.40721  0.75420  1.0000
  C   C438      1.0  0.18774  0.32406  0.97479  1.0000
  C   C439      1.0  0.31279  0.38835  0.73575  1.0000
  H   H346      1.0  0.35125  0.45623  0.68776  1.0000
  H   H347      1.0  0.39184  0.41589  0.72998  1.0000
  H   H348      1.0  0.36314  0.41834  0.68194  1.0000
  C   C440      1.0  0.99674  0.59467  0.79438  1.0000
  C   C441      1.0  0.33670  0.35199  0.98356  1.0000
  C   C442      1.0  0.42734  0.41209  0.71652  1.0000
  H   H349      1.0  0.99891  0.63635  0.58896  1.0000
  H   H350      1.0  0.11813  0.50220  0.64697  1.0000
  C   C443      1.0  0.02609  0.34102  0.61405  1.0000
  C   C444      1.0  0.34067  0.43738  0.70134  1.0000
  C   C445      1.0  0.01832  0.37646  0.63810  1.0000
  P   P16       1.0  0.34194  0.36353  0.71060  1.0000
  C   C446      1.0  0.33384  0.33563  0.79671  1.0000
  C   C447      1.0  0.02648  0.35580  0.63964  1.0000
  C   C448      1.0  0.25685  0.37578  0.90746  1.0000
  C   C449      1.0  0.01760  0.34670  0.58676  1.0000
  C   C450      1.0  0.32058  0.33583  0.62461  1.0000
  C   C451      1.0  0.00533  0.33958  0.73651  1.0000
  H   H351      1.0  0.07983  0.41437  0.66889  1.0000
  C   C452      1.0  0.33411  0.39163  0.71599  1.0000
  H   H352      1.0  0.31466  0.45088  0.72400  1.0000
  H   H353      1.0  0.00827  0.43173  0.71044  1.0000
  C   C453      1.0  0.30599  0.40977  0.73879  1.0000
  H   H354      1.0  0.22922  0.36863  0.94444  1.0000
  C   C454      1.0  0.04461  0.38354  0.75272  1.0000
  C   C455      1.0  0.21706  0.32220  0.88799  1.0000
  H   H355      1.0  0.35798  0.36482  0.64749  1.0000
  C   C456      1.0  0.98839  0.59958  0.84643  1.0000
  H   H356      1.0  0.02046  0.61084  0.53299  1.0000
  C   C457      1.0  0.01057  0.38261  0.61040  1.0000
  P   P17       1.0  0.02053  0.39710  0.67050  1.0000
  H   H357      1.0  0.45887  0.40206  0.70203  1.0000
  C   C458      1.0  0.09951  0.48230  0.65168  1.0000
  C   C459      1.0  0.05127  0.43075  0.66391  1.0000
  C   C460      1.0  0.01326  0.62390  0.79179  1.0000
  C   C461      1.0  0.98971  0.40058  0.67553  1.0000
  C   C462      1.0  0.98862  0.60848  0.50281  1.0000
  C   C463      1.0  0.37908  0.37668  0.70666  1.0000
  C   C464      1.0  0.39864  0.40287  0.71853  1.0000
  H   H358      1.0  0.01677  0.33469  0.56715  1.0000
  H   H359      1.0  0.35258  0.33587  0.90486  1.0000
  H   H360      1.0  0.02619  0.34522  0.77865  1.0000
  C   C465      1.0  0.32262  0.34486  0.67788  1.0000
  H   H361      1.0  0.00758  0.64145  0.86348  1.0000
  C   C466      1.0  0.21242  0.33284  0.91462  1.0000
  H   H362      1.0  0.34001  0.34481  0.81874  1.0000
  C   C467      1.0  0.24159  0.33810  0.87148  1.0000
  H   H363      1.0  0.28064  0.37705  0.86856  1.0000
  H   H364      1.0  0.03185  0.32467  0.61540  1.0000
  H   H365      1.0  0.33097  0.33915  0.60318  1.0000
  C   C468      1.0  0.29368  0.32617  0.67991  1.0000
  C   C469      1.0  0.33960  0.35288  0.77159  1.0000
  H   H366      1.0  0.98947  0.38756  0.84003  1.0000
  C   C470      1.0  0.00941  0.60231  0.51223  1.0000
  H   H367      1.0  0.99281  0.58134  0.77503  1.0000
  H   H368      1.0  0.05776  0.41864  0.72302  1.0000
  C   C471      1.0  0.00508  0.62880  0.84401  1.0000
  H   H369      1.0  0.03324  0.35099  0.66041  1.0000
  H   H370      1.0  0.35886  0.32582  0.50437  1.0000
  S   S66       1.0  0.97943  0.33335  0.81817  1.0000
  H   H371      1.0  0.32922  0.35905  0.96484  1.0000
  C   C472      1.0  0.33587  0.35001  0.64990  1.0000
  H   H372      1.0  0.16634  0.34846  0.97149  1.0000
  S   S67       1.0  0.37536  0.32525  0.85183  1.0000
  H   H373      1.0  0.37491  0.32067  0.96217  1.0000
  H   H374      1.0  0.30125  0.36919  0.74864  1.0000
  H   H375      1.0  0.98777  0.34040  0.69399  1.0000
  H   H376      1.0  0.17087  0.32944  0.87765  1.0000
  H   H377      1.0  0.02212  0.63289  0.77022  1.0000
  C   C473      1.0  0.98414  0.58253  0.82161  1.0000
  H   H378      1.0  0.00493  0.39897  0.60855  1.0000
  H   H379      1.0  0.01727  0.32716  0.85797  1.0000
  H   H380      1.0  0.29561  0.31828  0.99545  1.0000
  C   C474      1.0  0.97822  0.61835  0.58685  1.0000
  H   H381      1.0  0.03253  0.58089  0.50201  1.0000
  C   C475      1.0  0.36515  0.36605  0.99087  1.0000
  H   H382      1.0  0.00344  0.37196  0.56367  1.0000
  H   H383      1.0  0.12990  0.33071  0.85699  1.0000
  H   H384      1.0  0.97823  0.59019  0.86744  1.0000
  C   C476      1.0  0.00993  0.36755  0.58491  1.0000
  C   C477      1.0  0.12931  0.32357  0.87970  1.0000
  H   H385      1.0  0.28290  0.32242  0.70111  1.0000
  C   C478      1.0  0.15255  0.32280  0.89156  1.0000
  C   C479      1.0  0.31779  0.32898  0.00065  1.0000
  H   H386      1.0  0.07013  0.73104  0.03263  1.0000
  S   S68       1.0  0.04203  0.65896  0.17871  1.0000
  H   H387      1.0  0.14105  0.80424  0.06825  1.0000
  Fe  Fe36      1.0  0.00735  0.74063  0.04590  1.0000
  S   S69       1.0  0.02951  0.74464  0.09064  1.0000
  H   H388      1.0  0.12255  0.87623  0.43101  1.0000
  C   C480      1.0  0.18565  0.91772  0.10651  1.0000
  C   C481      1.0  0.03928  0.79883  0.16129  1.0000
  C   C482      1.0  0.40524  0.92093  0.35313  1.0000
  C   C483      1.0  0.26605  0.78987  0.41676  1.0000
  H   H389      1.0  0.08202  0.83769  0.44621  1.0000
  Fe  Fe37      1.0  0.06847  0.68742  0.28986  1.0000
  S   S70       1.0  0.26654  0.83351  0.30057  1.0000
  Fe  Fe38      1.0  0.12123  0.70136  0.25330  1.0000
  S   S71       1.0  0.08581  0.71017  0.24604  1.0000
  S   S72       1.0  0.16370  0.73300  0.23387  1.0000
  C   C484      1.0  0.23814  0.80569  0.28166  1.0000
  C   C485      1.0  0.23833  0.80263  0.25072  1.0000
  C   C486      1.0  0.21527  0.78024  0.23651  1.0000
  C   C487      1.0  0.19175  0.76095  0.25298  1.0000
  C   C488      1.0  0.19151  0.76398  0.28393  1.0000
  C   C489      1.0  0.21482  0.78604  0.29821  1.0000
  H   H390      1.0  0.25631  0.81739  0.23779  1.0000
  H   H391      1.0  0.21568  0.77786  0.21263  1.0000
  H   H392      1.0  0.17367  0.74903  0.29687  1.0000
  H   H393      1.0  0.21486  0.78789  0.32222  1.0000
  C   C490      1.0  0.04475  0.71056  0.35797  1.0000
  C   C491      1.0  0.14109  0.88054  0.41852  1.0000
  C   C492      1.0  0.17491  0.93867  0.14854  1.0000
  C   C493      1.0  0.03463  0.71327  0.42002  1.0000
  C   C494      1.0  0.03039  0.73018  0.39948  1.0000
  C   C495      1.0  0.03538  0.72877  0.36872  1.0000
  H   H394      1.0  0.02312  0.74423  0.40727  1.0000
  H   H395      1.0  0.03184  0.74181  0.35310  1.0000
  C   C496      1.0  0.19062  0.89296  0.38862  1.0000
  H   H396      1.0  0.06139  0.87384  0.19893  1.0000
  C   C497      1.0  0.10250  0.84364  0.09488  1.0000
  H   H397      1.0  0.25929  0.92805  0.37588  1.0000
  C   C498      1.0  0.20694  0.87811  0.49302  1.0000
  S   S73       1.0  0.00372  0.77180  0.46999  1.0000
  C   C499      1.0  0.02775  0.81497  0.39780  1.0000
  C   C500      1.0  0.03256  0.72026  0.11465  1.0000
  C   C501      1.0  0.02296  0.69226  0.10660  1.0000
  C   C502      1.0  0.03859  0.68309  0.15463  1.0000
  C   C503      1.0  0.04779  0.71099  0.16281  1.0000
  C   C504      1.0  0.04487  0.72943  0.14290  1.0000
  H   H398      1.0  0.05696  0.71828  0.18460  1.0000
  H   H399      1.0  0.05194  0.75087  0.14959  1.0000
  C   C505      1.0  0.29303  0.94278  0.10542  1.0000
  H   H400      1.0  0.28710  0.93666  0.08249  1.0000
  S   S74       1.0  0.05014  0.70939  0.31873  1.0000
  C   C506      1.0  0.10471  0.76638  0.05363  1.0000
  H   H401      1.0  0.01052  0.72342  0.27387  1.0000
  C   C507      1.0  0.16382  0.90797  0.41871  1.0000
  Fe  Fe39      1.0  0.32918  0.91160  0.22549  1.0000
  S   S75       1.0  0.32947  0.87139  0.23813  1.0000
  S   S76       1.0  0.31881  0.91343  0.17593  1.0000
  Fe  Fe40      1.0  0.34080  0.93316  0.28998  1.0000
  S   S77       1.0  0.34171  0.89476  0.30593  1.0000
  H   H402      1.0  0.43497  0.96717  0.26973  1.0000
  Fe  Fe41      1.0  0.36810  0.89894  0.26546  1.0000
  S   S78       1.0  0.40464  0.89040  0.27668  1.0000
  Fe  Fe42      1.0  0.30358  0.87041  0.27751  1.0000
  S   S79       1.0  0.36944  0.93923  0.25067  1.0000
  S   S80       1.0  0.30102  0.90873  0.26373  1.0000
  C   C508      1.0  0.12195  0.91024  0.07943  1.0000
  C   C509      1.0  0.13953  0.80105  0.02028  1.0000
  C   C510      1.0  0.45326  0.88722  0.28456  1.0000
  C   C511      1.0  0.43875  0.89643  0.26569  1.0000
  C   C512      1.0  0.45179  0.90998  0.23901  1.0000
  C   C513      1.0  0.14340  0.93218  0.06286  1.0000
  C   C514      1.0  0.15711  0.68146  0.17911  1.0000
  H   H403      1.0  0.17905  0.90389  0.08739  1.0000
  H   H404      1.0  0.44087  0.91667  0.22389  1.0000
  C   C515      1.0  0.32673  0.96701  0.35184  1.0000
  C   C516      1.0  0.09408  0.81506  0.09767  1.0000
  Fe  Fe43      1.0  0.06361  0.66795  0.22434  1.0000
  H   H405      1.0  0.04960  0.82685  0.12359  1.0000
  H   H406      1.0  0.16493  0.94233  0.07015  1.0000
  H   H407      1.0  0.09043  0.86480  0.16365  1.0000
  H   H408      1.0  0.20915  0.72139  0.28623  1.0000
  C   C517      1.0  0.30020  0.92643  0.12418  1.0000
  C   C518      1.0  0.30854  0.93425  0.15400  1.0000
  C   C519      1.0  0.30929  0.95860  0.16491  1.0000
  H   H409      1.0  0.07162  0.79937  0.35954  1.0000
  H   H410      1.0  0.29988  0.90788  0.11536  1.0000
  H   H411      1.0  0.08393  0.81752  0.02327  1.0000
  H   H412      1.0  0.09650  0.78327  0.12391  1.0000
  S   S81       1.0  0.25595  0.94931  0.01478  1.0000
  H   H413      1.0  0.10515  0.93577  0.00499  1.0000
  C   C520      1.0  0.98233  0.68951  0.19642  1.0000
  P   P18       1.0  0.11524  0.82264  0.40685  1.0000
  S   S82       1.0  0.99535  0.77439  0.03940  1.0000
  H   H414      1.0  0.11022  0.76574  0.40780  1.0000
  H   H415      1.0  0.17618  0.69920  0.18737  1.0000
  C   C521      1.0  0.13503  0.81904  0.49454  1.0000
  C   C522      1.0  0.07448  0.91549  0.18215  1.0000
  H   H416      1.0  0.12050  0.94736  0.12514  1.0000
  H   H417      1.0  0.26367  0.77423  0.40044  1.0000
  S   S83       1.0  0.10582  0.68149  0.29862  1.0000
  H   H418      1.0  0.20635  0.93540  0.40416  1.0000
  H   H419      1.0  0.14395  0.86775  0.15655  1.0000
  C   C523      1.0  0.09664  0.83801  0.01320  1.0000
  C   C524      1.0  0.03803  0.80517  0.37495  1.0000
  H   H420      1.0  0.10245  0.89546  0.47628  1.0000
  H   H421      1.0  0.06007  0.81002  0.17082  1.0000
  C   C525      1.0  0.11569  0.81058  0.44438  1.0000
  P   P19       1.0  0.12904  0.89949  0.11517  1.0000
  C   C526      1.0  0.43205  0.96697  0.33046  1.0000
  H   H422      1.0  0.29117  0.92963  0.33544  1.0000
  S   S84       1.0  0.09985  0.65991  0.22930  1.0000
  C   C527      1.0  0.10780  0.90549  0.14180  1.0000
  C   C528      1.0  0.08970  0.75043  0.02912  1.0000
  H   H423      1.0  0.27760  0.84780  0.47396  1.0000
  C   C529      1.0  0.28474  0.83152  0.16728  1.0000
  C   C530      1.0  0.27727  0.80320  0.16469  1.0000
  C   C531      1.0  0.24992  0.78336  0.15667  1.0000
  C   C532      1.0  0.22997  0.79180  0.15145  1.0000
  C   C533      1.0  0.23724  0.82019  0.15463  1.0000
  C   C534      1.0  0.26485  0.83996  0.16224  1.0000
  P   P20       1.0  0.21158  0.83153  0.14985  1.0000
  C   C535      1.0  0.21492  0.84722  0.11343  1.0000
  C   C536      1.0  0.17700  0.80122  0.15447  1.0000
  C   C537      1.0  0.16295  0.78448  0.12964  1.0000
  C   C538      1.0  0.13714  0.75990  0.13322  1.0000
  C   C539      1.0  0.12532  0.75160  0.16162  1.0000
  C   C540      1.0  0.13915  0.76799  0.18639  1.0000
  C   C541      1.0  0.16486  0.79266  0.18291  1.0000
  C   C542      1.0  0.19211  0.84854  0.10103  1.0000
  C   C543      1.0  0.19477  0.86165  0.07347  1.0000
  C   C544      1.0  0.22042  0.87430  0.05843  1.0000
  C   C545      1.0  0.24337  0.87345  0.07080  1.0000
  C   C546      1.0  0.24066  0.85988  0.09816  1.0000
  C   C547      1.0  0.21912  0.85785  0.17821  1.0000
  C   C548      1.0  0.22435  0.85281  0.20763  1.0000
  C   C549      1.0  0.23315  0.87390  0.22916  1.0000
  C   C550      1.0  0.23736  0.90049  0.22139  1.0000
  C   C551      1.0  0.23237  0.90583  0.19216  1.0000
  C   C552      1.0  0.22319  0.88463  0.17063  1.0000
  H   H424      1.0  0.30591  0.84707  0.17355  1.0000
  H   H425      1.0  0.29267  0.79670  0.16913  1.0000
  H   H426      1.0  0.24407  0.76136  0.15499  1.0000
  H   H427      1.0  0.20884  0.77602  0.14579  1.0000
  H   H428      1.0  0.27095  0.86195  0.16470  1.0000
  H   H429      1.0  0.17229  0.78996  0.10761  1.0000
  H   H430      1.0  0.12656  0.74685  0.11412  1.0000
  H   H431      1.0  0.10585  0.73203  0.16462  1.0000
  H   H432      1.0  0.13045  0.76101  0.20855  1.0000
  H   H433      1.0  0.17537  0.80431  0.20267  1.0000
  H   H434      1.0  0.17237  0.83982  0.11283  1.0000
  H   H435      1.0  0.17713  0.86264  0.06402  1.0000
  H   H436      1.0  0.22256  0.88521  0.03748  1.0000
  H   H437      1.0  0.26348  0.88383  0.05948  1.0000
  H   H438      1.0  0.25884  0.85993  0.10755  1.0000
  H   H439      1.0  0.22271  0.83290  0.21370  1.0000
  H   H440      1.0  0.23779  0.86988  0.25159  1.0000
  H   H441      1.0  0.24529  0.91718  0.23780  1.0000
  H   H442      1.0  0.23664  0.92675  0.18594  1.0000
  H   H443      1.0  0.22051  0.88971  0.14796  1.0000
  H   H444      1.0  0.20993  0.89773  0.37731  1.0000
  C   C553      1.0  0.18854  0.91422  0.40365  1.0000
  H   H445      1.0  0.12884  0.81715  0.16122  1.0000
  C   C554      1.0  0.11894  0.80095  0.37856  1.0000
  C   C555      1.0  0.11446  0.77388  0.38529  1.0000
  C   C556      1.0  0.11447  0.75638  0.36255  1.0000
  C   C557      1.0  0.11903  0.76569  0.33295  1.0000
  C   C558      1.0  0.12402  0.79273  0.32607  1.0000
  C   C559      1.0  0.12399  0.81029  0.34873  1.0000
  H   H446      1.0  0.01327  0.68481  0.08506  1.0000
  C   C560      1.0  0.04403  0.82723  0.42308  1.0000
  H   H447      1.0  0.13322  0.84755  0.03924  1.0000
  H   H448      1.0  0.11001  0.73517  0.36772  1.0000
  H   H449      1.0  0.11815  0.75169  0.31532  1.0000
  H   H450      1.0  0.12730  0.79977  0.30306  1.0000
  H   H451      1.0  0.12700  0.83086  0.34289  1.0000
  C   C561      1.0  0.22520  0.85760  0.33564  1.0000
  C   C562      1.0  0.20055  0.83167  0.33479  1.0000
  C   C563      1.0  0.19185  0.81436  0.36007  1.0000
  C   C564      1.0  0.20774  0.82296  0.38619  1.0000
  C   C565      1.0  0.23300  0.84857  0.38688  1.0000
  C   C566      1.0  0.24138  0.86604  0.36158  1.0000
  P   P21       1.0  0.25410  0.85822  0.42020  1.0000
  C   C567      1.0  0.27369  0.83131  0.45811  1.0000
  C   C568      1.0  0.20993  0.66684  0.19265  1.0000
  C   C569      1.0  0.09344  0.77517  0.48315  1.0000
  C   C570      1.0  0.40747  0.94647  0.34409  1.0000
  H   H452      1.0  0.21537  0.91392  0.46560  1.0000
  C   C571      1.0  0.28822  0.88860  0.41441  1.0000
  C   C572      1.0  0.30511  0.88875  0.39074  1.0000
  C   C573      1.0  0.33181  0.91182  0.38638  1.0000
  C   C574      1.0  0.34214  0.93461  0.40590  1.0000
  C   C575      1.0  0.29897  0.91138  0.43432  1.0000
  H   H453      1.0  0.23248  0.87069  0.31582  1.0000
  H   H454      1.0  0.18867  0.82465  0.31428  1.0000
  H   H455      1.0  0.17313  0.79402  0.35924  1.0000
  H   H456      1.0  0.20079  0.80928  0.40558  1.0000
  C   C576      1.0  0.16824  0.86540  0.38905  1.0000
  C   C577      1.0  0.00243  0.71396  0.25227  1.0000
  H   H457      1.0  0.25135  0.81036  0.38685  1.0000
  H   H458      1.0  0.29747  0.87129  0.37526  1.0000
  H   H459      1.0  0.34421  0.91242  0.36736  1.0000
  C   C578      1.0  0.29465  0.96761  0.11605  1.0000
  H   H460      1.0  0.01862  0.65225  0.11998  1.0000
  H   H461      1.0  0.09750  0.66786  0.14223  1.0000
  H   H462      1.0  0.38585  0.90463  0.36271  1.0000
  C   C579      1.0  0.01849  0.77453  0.17529  1.0000
  H   H463      1.0  0.15861  0.82093  0.01752  1.0000
  C   C580      1.0  0.10346  0.80551  0.12161  1.0000
  Fe  Fe44      1.0  0.21350  0.94641  0.01251  1.0000
  C   C581      1.0  0.13234  0.95796  0.44428  1.0000
  C   C582      1.0  0.12271  0.96142  0.47202  1.0000
  C   C583      1.0  0.12964  0.79165  0.04923  1.0000
  C   C584      1.0  0.99169  0.75936  0.16259  1.0000
  H   H464      1.0  0.15213  0.92762  0.49052  1.0000
  C   C585      1.0  0.22315  0.95277  0.13656  1.0000
  C   C586      1.0  0.09114  0.93613  0.16134  1.0000
  H   H465      1.0  0.17180  0.69178  0.32243  1.0000
  C   C587      1.0  0.14165  0.88183  0.00951  1.0000
  H   H466      1.0  0.16017  0.94088  0.16275  1.0000
  C   C588      1.0  0.17452  0.66175  0.24461  1.0000
  C   C589      1.0  0.09419  0.89837  0.06928  1.0000
  C   C590      1.0  0.21450  0.67646  0.16297  1.0000
  H   H467      1.0  0.23920  0.90207  0.42610  1.0000
  H   H468      1.0  0.11887  0.94023  0.43034  1.0000
  H   H469      1.0  0.07713  0.88209  0.08208  1.0000
  C   C591      1.0  0.09095  0.88481  0.16274  1.0000
  H   H470      1.0  0.98439  0.65726  0.46810  1.0000
  C   C592      1.0  0.13728  0.94146  0.03627  1.0000
  C   C593      1.0  0.26009  0.68585  0.19869  1.0000
  C   C594      1.0  0.19379  0.69998  0.28052  1.0000
  H   H471      1.0  0.06689  0.89746  0.03416  1.0000
  H   H472      1.0  0.17100  0.84918  0.37855  1.0000
  C   C595      1.0  0.45293  0.97376  0.25525  1.0000
  S   S85       1.0  0.17692  0.90202  0.02201  1.0000
  C   C596      1.0  0.11274  0.66396  0.15355  1.0000
  C   C597      1.0  0.12041  0.86297  0.11610  1.0000
  C   C598      1.0  0.03347  0.80825  0.13464  1.0000
  H   H473      1.0  0.44346  0.87647  0.30514  1.0000
  C   C599      1.0  0.10973  0.92898  0.02597  1.0000
  H   H474      1.0  0.07675  0.75475  0.49008  1.0000
  C   C600      1.0  0.45229  0.93645  0.33508  1.0000
  H   H475      1.0  0.05652  0.67984  0.37079  1.0000
  C   C601      1.0  0.32577  0.93433  0.42994  1.0000
  H   H476      1.0  0.09661  0.75925  0.07594  1.0000
  C   C602      1.0  0.13013  0.85324  0.13987  1.0000
  S   S86       1.0  0.02832  0.71365  0.45913  1.0000
  C   C603      1.0  0.08820  0.90737  0.04241  1.0000
  H   H477      1.0  0.00692  0.81247  0.39632  1.0000
  H   H478      1.0  0.28282  0.77430  0.45063  1.0000
  H   H479      1.0  0.27775  0.68948  0.21254  1.0000
  H   H480      1.0  0.33348  0.95231  0.44467  1.0000
  H   H481      1.0  0.46769  0.97662  0.18112  1.0000
  H   H482      1.0  0.21063  0.96958  0.17310  1.0000
  C   C604      1.0  0.23086  0.88844  0.44539  1.0000
  C   C605      1.0  0.09393  0.78439  0.45394  1.0000
  H   H483      1.0  0.06165  0.91939  0.19774  1.0000
  H   H484      1.0  0.09477  0.85030  0.07620  1.0000
  C   C606      1.0  0.02602  0.67384  0.12648  1.0000
  H   H485      1.0  0.42551  0.89577  0.35460  1.0000
  H   H486      1.0  0.22960  0.93280  0.09836  1.0000
  H   H487      1.0  0.26067  0.88583  0.36142  1.0000
  H   H488      1.0  0.46892  0.93167  0.33096  1.0000
  C   C607      1.0  0.30264  0.97524  0.14598  1.0000
  C   C608      1.0  0.14307  0.85891  0.40365  1.0000
  C   C609      1.0  0.04431  0.69532  0.40933  1.0000
  H   H489      1.0  0.21044  0.70306  0.23663  1.0000
  C   C610      1.0  0.04934  0.69395  0.37857  1.0000
  H   H490      1.0  0.16254  0.92427  0.43117  1.0000
  C   C611      1.0  0.23464  0.86497  0.44846  1.0000
  C   C612      1.0  0.08133  0.82037  0.40258  1.0000
  H   H491      1.0  0.03578  0.83414  0.44122  1.0000
  H   H492      1.0  0.19712  0.67265  0.14864  1.0000
  C   C613      1.0  0.07046  0.82949  0.42570  1.0000
  C   C614      1.0  0.16580  0.92018  0.12415  1.0000
  H   H493      1.0  0.42764  0.96323  0.21560  1.0000
  H   H494      1.0  0.14275  0.70791  0.15914  1.0000
  H   H495      1.0  0.07987  0.80022  0.08140  1.0000
  S   S87       1.0  0.26651  0.96149  0.42731  1.0000
  H   H496      1.0  0.02511  0.79497  0.35569  1.0000
  C   C615      1.0  0.29880  0.94556  0.35259  1.0000
  H   H497      1.0  0.15322  0.84838  0.45864  1.0000
  H   H498      1.0  0.15407  0.95805  0.02338  1.0000
  C   C616      1.0  0.07436  0.88984  0.18282  1.0000
  C   C617      1.0  0.13640  0.82783  0.46494  1.0000
  H   H499      1.0  0.02369  0.76749  0.19562  1.0000
  C   C618      1.0  0.12156  0.82460  0.14266  1.0000
  C   C619      1.0  0.29034  0.96509  0.39825  1.0000
  C   C620      1.0  0.20353  0.95493  0.15463  1.0000
  C   C621      1.0  0.06468  0.80786  0.37725  1.0000
  H   H500      1.0  0.07712  0.77113  0.43892  1.0000
  C   C622      1.0  0.10770  0.93115  0.14120  1.0000
  H   H501      1.0  0.04774  0.68219  0.42493  1.0000
  H   H502      1.0  0.28996  0.81132  0.48721  1.0000
  C   C623      1.0  0.21423  0.93406  0.11261  1.0000
  C   C624      1.0  0.26455  0.69590  0.16934  1.0000
  C   C625      1.0  0.28078  0.94472  0.37556  1.0000
  S   S88       1.0  0.35044  0.96816  0.32387  1.0000
  H   H503      1.0  0.24521  0.69863  0.12860  1.0000
  Fe  Fe45      1.0  0.01243  0.73834  0.48718  1.0000
  H   H504      1.0  0.03587  0.66013  0.49618  1.0000
  C   C626      1.0  0.12470  0.85506  0.02214  1.0000
  C   C627      1.0  0.25875  0.81029  0.40925  1.0000
  C   C628      1.0  0.19456  0.68937  0.25239  1.0000
  H   H505      1.0  0.10152  0.94649  0.47865  1.0000
  C   C629      1.0  0.24175  0.69108  0.15145  1.0000
  C   C630      1.0  0.26188  0.83077  0.43017  1.0000
  C   C631      1.0  0.42765  0.91598  0.34870  1.0000
  H   H506      1.0  0.31573  0.96503  0.18768  1.0000
  H   H507      1.0  0.00270  0.80019  0.10074  1.0000
  C   C632      1.0  0.17268  0.68337  0.30084  1.0000
  H   H508      1.0  0.28567  0.70730  0.16044  1.0000
  H   H509      1.0  0.09123  0.95602  0.16077  1.0000
  C   C633      1.0  0.11170  0.88970  0.49437  1.0000
  C   C634      1.0  0.98620  0.76884  0.13558  1.0000
  C   C635      1.0  0.00695  0.79326  0.12180  1.0000
  S   S89       1.0  0.22322  0.98192  0.47437  1.0000
  C   C636      1.0  0.44865  0.97153  0.22439  1.0000
  C   C637      1.0  0.27697  0.79002  0.44497  1.0000
  C   C638      1.0  0.13817  0.68649  0.16304  1.0000
  H   H510      1.0  0.38987  0.95011  0.34673  1.0000
  H   H511      1.0  0.22969  0.66343  0.23302  1.0000
  C   C639      1.0  0.21730  0.89514  0.46770  1.0000
  H   H512      1.0  0.24534  0.96588  0.14090  1.0000
  H   H513      1.0  0.36246  0.95287  0.40181  1.0000
  H   H514      1.0  0.16667  0.97505  0.41283  1.0000
  C   C640      1.0  0.23287  0.67119  0.21025  1.0000
  C   C641      1.0  0.45469  0.96213  0.32583  1.0000
  C   C642      1.0  0.00449  0.69053  0.24356  1.0000
  H   H515      1.0  0.28680  0.91187  0.45309  1.0000
  H   H516      1.0  0.99621  0.66021  0.20895  1.0000
  H   H517      1.0  0.22457  0.82831  0.47571  1.0000
  C   C643      1.0  0.15918  0.97753  0.43438  1.0000
  C   C644      1.0  0.28092  0.81082  0.46558  1.0000
  C   C645      1.0  0.47121  0.97906  0.20498  1.0000
  C   C646      1.0  0.22309  0.84722  0.47334  1.0000
  C   C647      1.0  0.99434  0.67826  0.21575  1.0000
  C   C648      1.0  0.20956  0.85400  0.49570  1.0000
  C   C649      1.0  0.99017  0.72513  0.23317  1.0000
  H   H518      1.0  0.98887  0.74340  0.24025  1.0000
  H   H519      1.0  0.01415  0.68202  0.25835  1.0000
  S   S90       1.0  0.22447  0.98100  0.04595  1.0000
  C   C650      1.0  0.97999  0.71298  0.20506  1.0000
  H   H520      1.0  0.97958  0.71100  0.12474  1.0000
  C   C651      1.0  0.15090  0.65381  0.18564  1.0000
  Fe  Fe46      1.0  0.26525  0.98429  0.46983  1.0000
  C   C652      1.0  0.15214  0.65624  0.29289  1.0000
  S   S91       1.0  0.03139  0.74988  0.00273  1.0000
  S   S92       1.0  0.05886  0.84386  0.50132  1.0000
  H   H521      1.0  0.97528  0.67996  0.17474  1.0000
  C   C653      1.0  0.14022  0.98414  0.49045  1.0000
  C   C654      1.0  0.16268  0.83389  0.95734  1.0000
  C   C655      1.0  0.11044  0.70010  0.74624  1.0000
  C   C656      1.0  0.12439  0.78524  0.99542  1.0000
  S   S93       1.0  0.98566  0.68365  0.95000  1.0000
  H   H522      1.0  0.11266  0.71886  0.89037  1.0000
  C   C657      1.0  0.15164  0.90145  0.52671  1.0000
  C   C658      1.0  0.10204  0.87431  0.97858  1.0000
  Fe  Fe47      1.0  0.99041  0.71941  0.98072  1.0000
  C   C659      1.0  0.09190  0.93392  0.53721  1.0000
  H   H523      1.0  0.99347  0.67576  0.56849  1.0000
  C   C660      1.0  0.01211  0.68141  0.55551  1.0000
  C   C661      1.0  0.09130  0.71305  0.88469  1.0000
  C   C662      1.0  0.08504  0.84761  0.99145  1.0000
  H   H524      1.0  0.06552  0.72306  0.76685  1.0000
  C   C663      1.0  0.07550  0.71019  0.76696  1.0000
  S   S94       1.0  0.99440  0.73359  0.60174  1.0000
  C   C664      1.0  0.13531  0.87582  0.54189  1.0000
  C   C665      1.0  0.10734  0.85728  0.53349  1.0000
  C   C666      1.0  0.09721  0.71640  0.74668  1.0000
  H   H525      1.0  0.07835  0.70496  0.50662  1.0000
  H   H526      1.0  0.12748  0.78669  0.89305  1.0000
  H   H527      1.0  0.15025  0.71373  0.94976  1.0000
  C   C667      1.0  0.98164  0.68957  0.76341  1.0000
  H   H528      1.0  0.45225  0.90655  0.87063  1.0000
  H   H529      1.0  0.40791  0.92794  0.78544  1.0000
  C   C668      1.0  0.11368  0.79265  0.50360  1.0000
  C   C669      1.0  0.44462  0.98265  0.76853  1.0000
  H   H530      1.0  0.99236  0.71758  0.66311  1.0000
  H   H531      1.0  0.07904  0.73499  0.54853  1.0000
  P   P22       1.0  0.03857  0.67913  0.81304  1.0000
  H   H532      1.0  0.09490  0.83800  0.54587  1.0000
  H   H533      1.0  0.03365  0.71166  0.91460  1.0000
  C   C670      1.0  0.04677  0.70892  0.89838  1.0000
  Fe  Fe48      1.0  0.22195  0.96557  0.52051  1.0000
  H   H534      1.0  0.09421  0.69958  0.84067  1.0000
  C   C671      1.0  0.41068  0.98167  0.73292  1.0000
  C   C672      1.0  0.01729  0.69315  0.79814  1.0000
  C   C673      1.0  0.17352  0.78911  0.92086  1.0000
  S   S95       1.0  0.22599  0.97616  0.97338  1.0000
  C   C674      1.0  0.10202  0.67762  0.76617  1.0000
  H   H535      1.0  0.14416  0.87052  0.56073  1.0000
  H   H536      1.0  0.20127  0.84069  0.51526  1.0000
  H   H537      1.0  0.41166  0.86801  0.84456  1.0000
  Fe  Fe49      1.0  0.26944  0.98189  0.97784  1.0000
  H   H538      1.0  0.17089  0.89790  0.93760  1.0000
  C   C675      1.0  0.99764  0.67855  0.77569  1.0000
  C   C676      1.0  0.41983  0.88960  0.83729  1.0000
  C   C677      1.0  0.17635  0.88239  0.94528  1.0000
  H   H539      1.0  0.99432  0.65848  0.76783  1.0000
  C   C678      1.0  0.06048  0.71501  0.54428  1.0000
  C   C679      1.0  0.10797  0.79067  0.93352  1.0000
  C   C680      1.0  0.10923  0.78622  0.90280  1.0000
  C   C681      1.0  0.08664  0.78091  0.88425  1.0000
  C   C682      1.0  0.06273  0.78017  0.89618  1.0000
  C   C683      1.0  0.06159  0.78519  0.92654  1.0000
  C   C684      1.0  0.08419  0.79070  0.94509  1.0000
  H   H540      1.0  0.20145  0.78315  0.89173  1.0000
  C   C685      1.0  0.06016  0.69798  0.52090  1.0000
  C   C686      1.0  0.09515  0.86438  0.51005  1.0000
  H   H541      1.0  0.19586  0.82768  0.97548  1.0000
  H   H542      1.0  0.18007  0.81002  0.91226  1.0000
  C   C687      1.0  0.18559  0.77387  0.90901  1.0000
  C   C688      1.0  0.20365  0.89102  0.95477  1.0000
  C   C689      1.0  0.41792  0.92364  0.80394  1.0000
  H   H543      1.0  0.11248  0.78600  0.52659  1.0000
  S   S96       1.0  0.18594  0.92494  0.54016  1.0000
  H   H544      1.0  0.09332  0.88195  0.96171  1.0000
  H   H545      1.0  0.12714  0.70486  0.73038  1.0000
  H   H546      1.0  0.08756  0.77716  0.86066  1.0000
  H   H547      1.0  0.04509  0.77586  0.88197  1.0000
  H   H548      1.0  0.04322  0.78507  0.93573  1.0000
  H   H549      1.0  0.08304  0.79511  0.96842  1.0000
  C   C690      1.0  0.00496  0.73024  0.79541  1.0000
  H   H550      1.0  0.23164  0.87812  0.97341  1.0000
  H   H551      1.0  0.15014  0.83297  0.51067  1.0000
  C   C691      1.0  0.21053  0.87123  0.96570  1.0000
  H   H552      1.0  0.02840  0.94301  0.55905  1.0000
  C   C692      1.0  0.13018  0.89132  0.98750  1.0000
  C   C693      1.0  0.07426  0.71628  0.90570  1.0000
  C   C694      1.0  0.06675  0.68748  0.78690  1.0000
  H   H553      1.0  0.14291  0.91184  0.97753  1.0000
  C   C695      1.0  0.09937  0.75984  0.00015  1.0000
  S   S97       1.0  0.97926  0.75288  0.96997  1.0000
  H   H554      1.0  0.10366  0.73377  0.73115  1.0000
  H   H555      1.0  0.10960  0.93106  0.53190  1.0000
  C   C696      1.0  0.03641  0.70675  0.56150  1.0000
  S   S98       1.0  0.04954  0.82711  0.97981  1.0000
  H   H556      1.0  0.08709  0.74736  0.98144  1.0000
  C   C697      1.0  0.01194  0.66357  0.53295  1.0000
  S   S99       1.0  0.03797  0.76437  0.52638  1.0000
  C   C698      1.0  0.97750  0.69896  0.65123  1.0000
  C   C699      1.0  0.03606  0.69788  0.87027  1.0000
  C   C700      1.0  0.02121  0.71940  0.80752  1.0000
  H   H557      1.0  0.18671  0.73499  0.91034  1.0000
  H   H558      1.0  0.01444  0.69168  0.86527  1.0000
  H   H559      1.0  0.00757  0.75014  0.80322  1.0000
  C   C701      1.0  0.44270  0.91131  0.85196  1.0000
  C   C702      1.0  0.15314  0.77742  0.94349  1.0000
  H   H560      1.0  0.21934  0.91315  0.95421  1.0000
  H   H561      1.0  0.03671  0.73155  0.82416  1.0000
  H   H562      1.0  0.39083  0.98079  0.72835  1.0000
  C   C703      1.0  0.40743  0.89577  0.81333  1.0000
  H   H563      1.0  0.38961  0.87896  0.80204  1.0000
  C   C704      1.0  0.44101  0.94554  0.81845  1.0000
  C   C705      1.0  0.05299  0.69456  0.84895  1.0000
  H   H564      1.0  0.25043  0.96604  0.85164  1.0000
  S   S100      1.0  0.98848  0.78055  0.53876  1.0000
  C   C706      1.0  0.15584  0.85397  0.94675  1.0000
  H   H565      1.0  0.03632  0.72031  0.57909  1.0000
  H   H566      1.0  0.13467  0.84794  0.94001  1.0000
  C   C707      1.0  0.15675  0.73479  0.94167  1.0000
  H   H567      1.0  0.12880  0.74018  0.97068  1.0000
  H   H568      1.0  0.07403  0.65385  0.80181  1.0000
  Fe  Fe50      1.0  0.99713  0.74556  0.55211  1.0000
  H   H569      1.0  0.47084  0.95580  0.85443  1.0000
  H   H570      1.0  0.19687  0.88367  0.51052  1.0000
  Fe  Fe51      1.0  0.01843  0.78250  0.99571  1.0000
  P   P23       1.0  0.13683  0.79689  0.95772  1.0000
  Fe  Fe52      1.0  0.02761  0.79710  0.51023  1.0000
  S   S101      1.0  0.26317  0.96609  0.51569  1.0000
  H   H571      1.0  0.08227  0.72460  0.92764  1.0000
  H   H572      1.0  0.11222  0.66493  0.76578  1.0000
  C   C708      1.0  0.08072  0.70215  0.85644  1.0000
  C   C709      1.0  0.04612  0.94051  0.55268  1.0000
  C   C710      1.0  0.19018  0.84275  0.96693  1.0000
  C   C711      1.0  0.17725  0.74674  0.91945  1.0000
  C   C712      1.0  0.14465  0.74998  0.95358  1.0000
  C   C713      1.0  0.08031  0.67134  0.78648  1.0000
  H   H573      1.0  0.30758  0.97186  0.87599  1.0000
  H   H574      1.0  0.24304  0.97846  0.90267  1.0000
  H   H575      1.0  0.06448  0.88967  0.54513  1.0000
  C   C714      1.0  0.03596  0.67240  0.51514  1.0000
  C   C715      1.0  0.45324  0.93918  0.84265  1.0000
  C   C716      1.0  0.16596  0.98024  0.55542  1.0000
  H   H576      1.0  0.40434  0.97843  0.78029  1.0000
  C   C717      1.0  0.06642  0.91044  0.54503  1.0000
  C   C718      1.0  0.04346  0.91369  0.55255  1.0000
  S   S102      1.0  0.29048  0.97736  0.93521  1.0000
  H   H577      1.0  0.19276  0.96932  0.58048  1.0000
  C   C719      1.0  0.07159  0.96405  0.54465  1.0000
  H   H578      1.0  0.02369  0.89539  0.55848  1.0000
  C   C720      1.0  0.18156  0.98106  0.58045  1.0000
  C   C721      1.0  0.98511  0.71528  0.77344  1.0000
  C   C722      1.0  0.09443  0.96078  0.53595  1.0000
  H   H579      1.0  0.16524  0.96768  0.53639  1.0000
  C   C723      1.0  0.13986  0.90802  0.50242  1.0000
  H   H580      1.0  0.42298  0.96519  0.86386  1.0000
  C   C724      1.0  0.41853  0.98055  0.76237  1.0000
  P   P24       1.0  0.45470  0.98164  0.80675  1.0000
  H   H581      1.0  0.29781  0.98442  0.66128  1.0000
  H   H582      1.0  0.82109  0.16630  0.03586  1.0000
  C   C725      1.0  0.93045  0.15677  0.10179  1.0000
  Fe  Fe53      1.0  0.72705  0.98668  0.04613  1.0000
  H   H583      1.0  0.86211  0.20960  0.05512  1.0000
  H   H584      1.0  0.86891  0.18024  0.34032  1.0000
  H   H585      1.0  0.86944  0.15674  0.11721  1.0000
  C   C726      1.0  0.75052  0.06684  0.43753  1.0000
  H   H586      1.0  0.71625  0.05901  0.46680  1.0000
  C   C727      1.0  0.78104  0.11688  0.46924  1.0000
  C   C728      1.0  0.87608  0.06154  0.08112  1.0000
  H   H587      1.0  0.85231  0.12095  0.41092  1.0000
  H   H588      1.0  0.75818  0.08824  0.04415  1.0000
  H   H589      1.0  0.94357  0.10744  0.04680  1.0000
  Fe  Fe54      1.0  0.78664  0.03323  0.02743  1.0000
  C   C729      1.0  0.86221  0.20272  0.03250  1.0000
  C   C730      1.0  0.86547  0.13062  0.03778  1.0000
  H   H590      1.0  0.94334  0.16176  0.16050  1.0000
  H   H591      1.0  0.83280  0.04121  0.47736  1.0000
  C   C731      1.0  0.50667  0.07130  0.30456  1.0000
  C   C732      1.0  0.67632  0.09228  0.06537  1.0000
  H   H592      1.0  0.61381  0.09133  0.06842  1.0000
  S   S103      1.0  0.77031  0.99710  0.06033  1.0000
  H   H593      1.0  0.89967  0.03382  0.13428  1.0000
  H   H594      1.0  0.68804  0.00485  0.43503  1.0000
  C   C733      1.0  0.63010  0.08726  0.06028  1.0000
  C   C734      1.0  0.77847  0.08541  0.42950  1.0000
  C   C735      1.0  0.79369  0.11041  0.44572  1.0000
  H   H595      1.0  0.70692  0.04031  0.34098  1.0000
  C   C736      1.0  0.89898  0.04947  0.11997  1.0000
  S   S104      1.0  0.74313  0.02481  0.01601  1.0000
  H   H596      1.0  0.86648  0.14576  0.45899  1.0000
  H   H597      1.0  0.93686  0.08342  0.13757  1.0000
  H   H598      1.0  0.79304  0.13605  0.48183  1.0000
  C   C737      1.0  0.97134  0.14245  0.07488  1.0000
  C   C738      1.0  0.96440  0.12508  0.04967  1.0000
  S   S105      1.0  0.73424  0.99240  0.43430  1.0000
  H   H599      1.0  0.94711  0.22392  0.08373  1.0000
  S   S106      1.0  0.95949  0.24175  0.01999  1.0000
  H   H600      1.0  0.89015  0.12582  0.11994  1.0000
  P   P25       1.0  0.69912  0.06905  0.02665  1.0000
  C   C739      1.0  0.67203  0.07620  0.03950  1.0000
  C   C740      1.0  0.91928  0.09798  0.10311  1.0000
  H   H601      1.0  0.89637  0.10494  0.06805  1.0000
  S   S107      1.0  0.78054  0.99604  0.49932  1.0000
  C   C741      1.0  0.72434  0.03723  0.34707  1.0000
  C   C742      1.0  0.84526  0.12681  0.39095  1.0000
  C   C743      1.0  0.82809  0.14313  0.33957  1.0000
  C   C744      1.0  0.80982  0.11768  0.35371  1.0000
  S   S108      1.0  0.81738  0.07906  0.04017  1.0000
  C   C745      1.0  0.87698  0.04143  0.09969  1.0000
  P   P26       1.0  0.79474  0.07701  0.39899  1.0000
  C   C746      1.0  0.90274  0.14700  0.11145  1.0000
  C   C747      1.0  0.76793  0.05229  0.37409  1.0000
  H   H602      1.0  0.90310  0.17144  0.03692  1.0000
  H   H603      1.0  0.65872  0.10991  0.09586  1.0000
  C   C748      1.0  0.72489  0.01326  0.33731  1.0000
  C   C749      1.0  0.74680  0.00867  0.34589  1.0000
  C   C750      1.0  0.76814  0.02796  0.36437  1.0000
  H   H604      1.0  0.85899  0.05541  0.06542  1.0000
  H   H605      1.0  0.74324  0.10345  0.49491  1.0000
  H   H606      1.0  0.69625  0.02422  0.12348  1.0000
  H   H607      1.0  0.88406  0.16578  0.38608  1.0000
  H   H608      1.0  0.51387  0.08802  0.28811  1.0000
  C   C751      1.0  0.81621  0.06285  0.41287  1.0000
  C   C752      1.0  0.83632  0.06202  0.39406  1.0000
  C   C753      1.0  0.85477  0.05345  0.40516  1.0000
  C   C754      1.0  0.85345  0.04590  0.43517  1.0000
  C   C755      1.0  0.83346  0.04658  0.45397  1.0000
  C   C756      1.0  0.81456  0.05455  0.44279  1.0000
  C   C757      1.0  0.74425  0.07476  0.06145  1.0000
  H   H609      1.0  0.67955  0.00869  0.03690  1.0000
  H   H610      1.0  0.82146  0.14950  0.31964  1.0000
  H   H611      1.0  0.78926  0.10476  0.34430  1.0000
  H   H612      1.0  0.89844  0.10537  0.46066  1.0000
  H   H613      1.0  0.83245  0.09998  0.48233  1.0000
  C   C758      1.0  0.55660  0.99581  0.34705  1.0000
  C   C759      1.0  0.49819  0.98928  0.21639  1.0000
  H   H614      1.0  0.69580  0.10048  0.07761  1.0000
  H   H615      1.0  0.78415  0.02325  0.37165  1.0000
  C   C760      1.0  0.95954  0.15602  0.16276  1.0000
  H   H616      1.0  0.86062  0.01962  0.09825  1.0000
  H   H617      1.0  0.52371  0.00010  0.25560  1.0000
  C   C761      1.0  0.81828  0.10925  0.37951  1.0000
  H   H618      1.0  0.96773  0.19291  0.08475  1.0000
  H   H619      1.0  0.83792  0.06835  0.37087  1.0000
  H   H620      1.0  0.87031  0.05300  0.39058  1.0000
  H   H621      1.0  0.86797  0.03965  0.44394  1.0000
  C   C762      1.0  0.75303  0.09856  0.47660  1.0000
  H   H622      1.0  0.79907  0.05468  0.45767  1.0000
  S   S109      1.0  0.92215  0.18823  0.47464  1.0000
  C   C763      1.0  0.49245  0.02282  0.31737  1.0000
  C   C764      1.0  0.85483  0.16045  0.35118  1.0000
  H   H623      1.0  0.85858  0.07151  0.00495  1.0000
  H   H624      1.0  0.81538  0.12489  0.44052  1.0000
  C   C765      1.0  0.65539  0.09773  0.07573  1.0000
  H   H625      1.0  0.94687  0.14561  0.46089  1.0000
  C   C766      1.0  0.89096  0.16461  0.11030  1.0000
  C   C767      1.0  0.94093  0.12824  0.47635  1.0000
  C   C768      1.0  0.90693  0.19231  0.10022  1.0000
  H   H626      1.0  0.70789  0.99784  0.32377  1.0000
  C   C769      1.0  0.73777  0.07361  0.46067  1.0000
  Fe  Fe55      1.0  0.74274  0.99928  0.48467  1.0000
  C   C770      1.0  0.53400  0.99981  0.33951  1.0000
  C   C771      1.0  0.64664  0.06592  0.02398  1.0000
  C   C772      1.0  0.92007  0.07766  0.12174  1.0000
  C   C773      1.0  0.97504  0.16277  0.18919  1.0000
  C   C774      1.0  0.89353  0.14972  0.02999  1.0000
  H   H627      1.0  0.70941  0.12695  0.01549  1.0000
  C   C775      1.0  0.71503  0.06284  0.05908  1.0000
  H   H628      1.0  0.48020  0.01141  0.36351  1.0000
  C   C776      1.0  0.75596  0.06836  0.08592  1.0000
  C   C777      1.0  0.73869  0.05027  0.10832  1.0000
  C   C778      1.0  0.70970  0.03892  0.10655  1.0000
  C   C779      1.0  0.69790  0.04524  0.08213  1.0000
  P   P27       1.0  0.94625  0.13454  0.10476  1.0000
  C   C780      1.0  0.49217  0.05461  0.35508  1.0000
  C   C781      1.0  0.72445  0.12377  0.00290  1.0000
  C   C782      1.0  0.68415  0.98983  0.41748  1.0000
  C   C783      1.0  0.91364  0.10549  0.47617  1.0000
  C   C784      1.0  0.83912  0.17843  0.02163  1.0000
  C   C785      1.0  0.85260  0.10224  0.02896  1.0000
  H   H629      1.0  0.74478  0.07497  0.37302  1.0000
  H   H630      1.0  0.89797  0.20608  0.09941  1.0000
  C   C786      1.0  0.87144  0.13947  0.47998  1.0000
  H   H631      1.0  0.85371  0.13788  0.05084  1.0000
  C   C787      1.0  0.89722  0.08962  0.08271  1.0000
  Fe  Fe56      1.0  0.96582  0.21995  0.49194  1.0000
  H   H632      1.0  0.74770  0.04455  0.12673  1.0000
  H   H633      1.0  0.67531  0.03544  0.08069  1.0000
  H   H634      1.0  0.77844  0.07678  0.08701  1.0000
  H   H635      1.0  0.73856  0.04694  0.42621  1.0000
  C   C788      1.0  0.50215  0.04471  0.29628  1.0000
  C   C789      1.0  0.62576  0.07143  0.03440  1.0000
  Fe  Fe57      1.0  0.97374  0.21044  0.01157  1.0000
  C   C790      1.0  0.90931  0.14053  0.01379  1.0000
  C   C791      1.0  0.86339  0.15229  0.37688  1.0000
  C   C792      1.0  0.50162  0.07624  0.33392  1.0000
  C   C793      1.0  0.74579  0.05673  0.36527  1.0000
  C   C794      1.0  0.93463  0.20235  0.09122  1.0000
  C   C795      1.0  0.90542  0.08390  0.49727  1.0000
  H   H636      1.0  0.50601  0.04128  0.27340  1.0000
  C   C796      1.0  0.86813  0.09322  0.01200  1.0000
  C   C797      1.0  0.67648  0.01177  0.01374  1.0000
  H   H637      1.0  0.51563  0.99476  0.20137  1.0000
  H   H638      1.0  0.90327  0.23723  0.02235  1.0000
  H   H639      1.0  0.53129  0.01555  0.35128  1.0000
  H   H640      1.0  0.57106  0.00840  0.36439  1.0000
  C   C798      1.0  0.94631  0.18466  0.09185  1.0000
  C   C799      1.0  0.88546  0.21820  0.01412  1.0000
  C   C800      1.0  0.50262  0.99196  0.24723  1.0000
  C   C801      1.0  0.85210  0.11354  0.49317  1.0000
  C   C802      1.0  0.96529  0.14238  0.13951  1.0000
  H   H641      1.0  0.60613  0.06324  0.02244  1.0000
  H   H642      1.0  0.64747  0.99053  0.40106  1.0000
  C   C803      1.0  0.89754  0.15703  0.49337  1.0000
  H   H643      1.0  0.50487  0.09678  0.34022  1.0000
  H   H644      1.0  0.88370  0.06761  0.49803  1.0000
  P   P28       1.0  0.48584  0.98820  0.30679  1.0000
  S   S110      1.0  0.94545  0.16291  0.00558  1.0000
  H   H645      1.0  0.74669  0.98961  0.33905  1.0000
  H   H646      1.0  0.97071  0.17356  0.20692  1.0000
  H   H647      1.0  0.48806  0.05837  0.37780  1.0000
  C   C804      1.0  0.48766  0.02801  0.34689  1.0000
  C   C805      1.0  0.89635  0.11223  0.00465  1.0000
  H   H648      1.0  0.88968  0.02400  0.49288  1.0000
  C   C806      1.0  0.68366  0.03853  0.00262  1.0000
  C   C807      1.0  0.72469  0.09820  0.00459  1.0000
  H   H649      1.0  0.64274  0.05351  0.00397  1.0000
  C   C808      1.0  0.96016  0.12924  0.49739  1.0000
  H   H650      1.0  0.87191  0.18582  0.87198  1.0000
  H   H651      1.0  0.85923  0.21366  0.83808  1.0000
  H   H652      1.0  0.91003  0.18075  0.59036  1.0000
  H   H653      1.0  0.49692  0.03776  0.82927  1.0000
  C   C809      1.0  0.78530  0.12742  0.73106  1.0000
  H   H654      1.0  0.48863  0.23087  0.72244  1.0000
  Fe  Fe58      1.0  0.88330  0.29390  0.77293  1.0000
  S   S111      1.0  0.84767  0.25475  0.79424  1.0000
  S   S112      1.0  0.92128  0.29090  0.75983  1.0000
  Fe  Fe59      1.0  0.68851  0.08181  0.80839  1.0000
  S   S113      1.0  0.68031  0.11756  0.79728  1.0000
  S   S114      1.0  0.70321  0.08135  0.85644  1.0000
  Fe  Fe60      1.0  0.67689  0.06084  0.74360  1.0000
  S   S115      1.0  0.66735  0.09447  0.72887  1.0000
  S   S116      1.0  0.67938  0.02892  0.71234  1.0000
  Fe  Fe61      1.0  0.70531  0.12342  0.75562  1.0000
  S   S117      1.0  0.73528  0.16413  0.73180  1.0000
  Fe  Fe62      1.0  0.64230  0.08610  0.77156  1.0000
  S   S118      1.0  0.60349  0.09216  0.77897  1.0000
  S   S119      1.0  0.71624  0.09025  0.76817  1.0000
  S   S120      1.0  0.64917  0.04985  0.78505  1.0000
  C   C810      1.0  0.84462  0.04968  0.67383  1.0000
  S   S121      1.0  0.76924  0.01079  0.56663  1.0000
  C   C811      1.0  0.78288  0.11432  0.62139  1.0000
  H   H655      1.0  0.82184  0.00556  0.66285  1.0000
  S   S122      1.0  0.47632  0.05679  0.74361  1.0000
  H   H656      1.0  0.50364  0.19719  0.73732  1.0000
  C   C812      1.0  0.80598  0.11003  0.61791  1.0000
  H   H657      1.0  0.51266  0.03491  0.72731  1.0000
  H   H658      1.0  0.77776  0.11312  0.95550  1.0000
  H   H659      1.0  0.81978  0.23191  0.91077  1.0000
  C   C813      1.0  0.69071  0.03267  0.67439  1.0000
  C   C814      1.0  0.68958  0.05217  0.65488  1.0000
  C   C815      1.0  0.76265  0.14160  0.96707  1.0000
  C   C816      1.0  0.70406  0.03331  0.61281  1.0000
  C   C817      1.0  0.78776  0.09585  0.69485  1.0000
  C   C818      1.0  0.55176  0.16733  0.76022  1.0000
  H   H660      1.0  0.74504  0.07534  0.98891  1.0000
  H   H661      1.0  0.79620  0.08978  0.54498  1.0000
  C   C819      1.0  0.95214  0.10744  0.51819  1.0000
  C   C820      1.0  0.49246  0.99924  0.81031  1.0000
  C   C821      1.0  0.56797  0.08181  0.76899  1.0000
  C   C822      1.0  0.55517  0.09659  0.78102  1.0000
  C   C823      1.0  0.52711  0.08899  0.77412  1.0000
  C   C824      1.0  0.51149  0.06679  0.75451  1.0000
  C   C825      1.0  0.52428  0.05203  0.74255  1.0000
  C   C826      1.0  0.55205  0.05918  0.74999  1.0000
  H   H662      1.0  0.56706  0.11401  0.79592  1.0000
  H   H663      1.0  0.51774  0.10063  0.78350  1.0000
  H   H664      1.0  0.56108  0.04701  0.74123  1.0000
  C   C827      1.0  0.94704  0.29771  0.65100  1.0000
  H   H665      1.0  0.81822  0.17041  0.72900  1.0000
  C   C828      1.0  0.53087  0.13351  0.72027  1.0000
  C   C829      1.0  0.91806  0.20762  0.91609  1.0000
  C   C830      1.0  0.91604  0.07508  0.58084  1.0000
  C   C831      1.0  0.55103  0.02581  0.81582  1.0000
  H   H666      1.0  0.83326  0.23656  0.85728  1.0000
  C   C832      1.0  0.97441  0.27521  0.61573  1.0000
  C   C833      1.0  0.94486  0.29215  0.89687  1.0000
  C   C834      1.0  0.81692  0.22971  0.77601  1.0000
  C   C835      1.0  0.79878  0.20462  0.79106  1.0000
  C   C836      1.0  0.77383  0.18427  0.77763  1.0000
  C   C837      1.0  0.76679  0.18892  0.74903  1.0000
  C   C838      1.0  0.78506  0.21390  0.73382  1.0000
  C   C839      1.0  0.81004  0.23429  0.74728  1.0000
  H   H667      1.0  0.80395  0.20089  0.81328  1.0000
  H   H668      1.0  0.75992  0.16512  0.78954  1.0000
  H   H669      1.0  0.77972  0.21762  0.71168  1.0000
  H   H670      1.0  0.82383  0.25362  0.73559  1.0000
  C   C840      1.0  0.80245  0.02807  0.64410  1.0000
  C   C841      1.0  0.93469  0.16774  0.92788  1.0000
  H   H671      1.0  0.96720  0.10882  0.53466  1.0000
  H   H672      1.0  0.70502  0.99237  0.87302  1.0000
  C   C842      1.0  0.95839  0.28561  0.60210  1.0000
  C   C843      1.0  0.83636  0.30383  0.83522  1.0000
  C   C844      1.0  0.72228  0.02028  0.91055  1.0000
  C   C845      1.0  0.72907  0.04679  0.92161  1.0000
  C   C846      1.0  0.72335  0.06523  0.90465  1.0000
  C   C847      1.0  0.71103  0.05759  0.87617  1.0000
  C   C848      1.0  0.70471  0.03126  0.86483  1.0000
  C   C849      1.0  0.50720  0.98560  0.80093  1.0000
  H   H673      1.0  0.73834  0.05282  0.94343  1.0000
  H   H674      1.0  0.72833  0.08548  0.91373  1.0000
  H   H675      1.0  0.69527  0.02501  0.84301  1.0000
  C   C850      1.0  0.83839  0.20627  0.92185  1.0000
  C   C851      1.0  0.84328  0.17626  0.56143  1.0000
  H   H676      1.0  0.78711  0.05499  0.62871  1.0000
  H   H677      1.0  0.68286  0.06649  0.66317  1.0000
  C   C852      1.0  0.77000  0.16894  0.66077  1.0000
  C   C853      1.0  0.75377  0.18178  0.65579  1.0000
  C   C854      1.0  0.76554  0.20798  0.64158  1.0000
  C   C855      1.0  0.79374  0.22163  0.63288  1.0000
  C   C856      1.0  0.81033  0.20906  0.63837  1.0000
  C   C857      1.0  0.79805  0.18237  0.65175  1.0000
  P   P29       1.0  0.84755  0.22752  0.63061  1.0000
  C   C858      1.0  0.85622  0.21277  0.59885  1.0000
  C   C859      1.0  0.85831  0.26399  0.62318  1.0000
  C   C860      1.0  0.95680  0.04800  0.52399  1.0000
  S   S123      1.0  0.93015  0.31288  0.67175  1.0000
  C   C861      1.0  0.86379  0.28276  0.64686  1.0000
  C   C862      1.0  0.88277  0.22787  0.58541  1.0000
  C   C863      1.0  0.88957  0.21715  0.56040  1.0000
  C   C864      1.0  0.76315  0.11633  0.96894  1.0000
  C   C865      1.0  0.83649  0.18680  0.58666  1.0000
  C   C866      1.0  0.86553  0.22609  0.66391  1.0000
  C   C867      1.0  0.89157  0.22705  0.66212  1.0000
  C   C868      1.0  0.90577  0.22728  0.68811  1.0000
  C   C869      1.0  0.89419  0.22658  0.71609  1.0000
  C   C870      1.0  0.86834  0.22560  0.71813  1.0000
  C   C871      1.0  0.85403  0.22531  0.69221  1.0000
  H   H678      1.0  0.76097  0.14898  0.67259  1.0000
  H   H679      1.0  0.73228  0.17168  0.66372  1.0000
  H   H680      1.0  0.75299  0.21805  0.63808  1.0000
  H   H681      1.0  0.80256  0.24221  0.62262  1.0000
  H   H682      1.0  0.81048  0.17240  0.65585  1.0000
  H   H683      1.0  0.85496  0.25940  0.57506  1.0000
  H   H684      1.0  0.87864  0.09887  0.61980  1.0000
  H   H685      1.0  0.86286  0.27611  0.66980  1.0000
  H   H686      1.0  0.89821  0.24809  0.59416  1.0000
  H   H687      1.0  0.91018  0.22887  0.55024  1.0000
  H   H688      1.0  0.81579  0.17473  0.59625  1.0000
  H   H689      1.0  0.90148  0.22837  0.64089  1.0000
  H   H690      1.0  0.92621  0.22887  0.68652  1.0000
  H   H691      1.0  0.90553  0.22748  0.73623  1.0000
  H   H692      1.0  0.85969  0.22574  0.73989  1.0000
  H   H693      1.0  0.83430  0.22517  0.69436  1.0000
  H   H694      1.0  0.77696  0.15808  0.95212  1.0000
  C   C872      1.0  0.63172  0.12391  0.70413  1.0000
  C   C873      1.0  0.65201  0.14167  0.68368  1.0000
  C   C874      1.0  0.65291  0.13182  0.65518  1.0000
  C   C875      1.0  0.63357  0.10419  0.64713  1.0000
  C   C876      1.0  0.61336  0.08600  0.66778  1.0000
  C   C877      1.0  0.61279  0.09613  0.69635  1.0000
  P   P30       1.0  0.58792  0.05026  0.65779  1.0000
  C   C878      1.0  0.60034  0.04069  0.62465  1.0000
  C   C879      1.0  0.58428  0.02704  0.68845  1.0000
  S   S124      1.0  0.97433  0.26302  0.50661  1.0000
  C   C880      1.0  0.87128  0.31077  0.64119  1.0000
  C   C881      1.0  0.94310  0.10436  0.62243  1.0000
  H   H695      1.0  0.62896  0.04442  0.69471  1.0000
  H   H696      1.0  0.86533  0.02187  0.58493  1.0000
  H   H697      1.0  0.90832  0.10488  0.99205  1.0000
  C   C882      1.0  0.60694  0.04339  0.57074  1.0000
  C   C883      1.0  0.59601  0.04909  0.59637  1.0000
  C   C884      1.0  0.55403  0.04744  0.65119  1.0000
  C   C885      1.0  0.54520  0.06335  0.66805  1.0000
  C   C886      1.0  0.51795  0.05899  0.66509  1.0000
  C   C887      1.0  0.92476  0.08442  0.51811  1.0000
  H   H698      1.0  0.92327  0.02351  0.59065  1.0000
  C   C888      1.0  0.89357  0.07890  0.58945  1.0000
  H   H699      1.0  0.63139  0.13121  0.72655  1.0000
  H   H700      1.0  0.66738  0.16283  0.69022  1.0000
  H   H701      1.0  0.66886  0.14552  0.63945  1.0000
  H   H702      1.0  0.63490  0.09713  0.62500  1.0000
  H   H703      1.0  0.59814  0.08241  0.71295  1.0000
  H   H704      1.0  0.95691  0.28553  0.57803  1.0000
  H   H705      1.0  0.71223  0.99974  0.62416  1.0000
  H   H706      1.0  0.82121  0.15076  0.98453  1.0000
  H   H707      1.0  0.53875  0.00466  0.68886  1.0000
  H   H708      1.0  0.58466  0.06057  0.59420  1.0000
  H   H709      1.0  0.55886  0.07858  0.68418  1.0000
  H   H710      1.0  0.51100  0.07073  0.67885  1.0000
  H   H711      1.0  0.87453  0.06989  0.57647  1.0000
  C   C889      1.0  0.57894  0.99029  0.73519  1.0000
  H   H712      1.0  0.48721  0.26388  0.75939  1.0000
  P   P31       1.0  0.82749  0.11225  0.64954  1.0000
  C   C890      1.0  0.60544  0.01037  0.72506  1.0000
  C   C891      1.0  0.53656  0.03945  0.82535  1.0000
  C   C892      1.0  0.86749  0.30168  0.58812  1.0000
  C   C893      1.0  0.86088  0.01390  0.56239  1.0000
  H   H713      1.0  0.63931  0.01057  0.60296  1.0000
  H   H714      1.0  0.48711  0.11857  0.71220  1.0000
  C   C894      1.0  0.94558  0.21389  0.91020  1.0000
  H   H715      1.0  0.77826  0.07503  0.68510  1.0000
  C   C895      1.0  0.87418  0.15117  0.61605  1.0000
  H   H716      1.0  0.70008  0.99879  0.67778  1.0000
  H   H717      1.0  0.92399  0.17777  0.68418  1.0000
  Fe  Fe63      1.0  0.74439  0.99774  0.97929  1.0000
  H   H718      1.0  0.68471  0.06189  0.96291  1.0000
  H   H719      1.0  0.60371  0.05011  0.54904  1.0000
  H   H720      1.0  0.66611  0.02081  0.92965  1.0000
  C   C896      1.0  0.86376  0.13957  0.64442  1.0000
  C   C897      1.0  0.82371  0.14495  0.69565  1.0000
  C   C898      1.0  0.67929  0.04151  0.97223  1.0000
  H   H721      1.0  0.74292  0.16493  0.98258  1.0000
  C   C899      1.0  0.60816  0.02901  0.70219  1.0000
  C   C900      1.0  0.47991  0.11542  0.84825  1.0000
  C   C901      1.0  0.81265  0.11800  0.68308  1.0000
  C   C902      1.0  0.88208  0.14936  0.66894  1.0000
  C   C903      1.0  0.51081  0.21025  0.78378  1.0000
  C   C904      1.0  0.49444  0.24941  0.76599  1.0000
  C   C905      1.0  0.83937  0.16950  0.99248  1.0000
  H   H722      1.0  0.75480  0.08336  0.72739  1.0000
  H   H723      1.0  0.92246  0.12129  0.64961  1.0000
  Fe  Fe64      1.0  0.73275  0.01382  0.54843  1.0000
  C   C906      1.0  0.90346  0.14913  0.52092  1.0000
  P   P32       1.0  0.91443  0.05735  0.54634  1.0000
  C   C907      1.0  0.53636  0.99890  0.80359  1.0000
  S   S125      1.0  0.96267  0.27873  0.94876  1.0000
  C   C908      1.0  0.55502  0.98852  0.72213  1.0000
  C   C909      1.0  0.85875  0.10489  0.51987  1.0000
  H   H724      1.0  0.57372  0.03644  0.81735  1.0000
  C   C910      1.0  0.81056  0.10113  0.59012  1.0000
  P   P33       1.0  0.52192  0.18566  0.79601  1.0000
  H   H725      1.0  0.50060  0.26268  0.81176  1.0000
  C   C911      1.0  0.51030  0.22933  0.80443  1.0000
  C   C912      1.0  0.49958  0.13627  0.82940  1.0000
  C   C913      1.0  0.74343  0.14539  0.98420  1.0000
  H   H726      1.0  0.96069  0.23462  0.90202  1.0000
  C   C914      1.0  0.55492  0.20644  0.81484  1.0000
  C   C915      1.0  0.55960  0.19951  0.84369  1.0000
  C   C916      1.0  0.58554  0.21574  0.85752  1.0000
  C   C917      1.0  0.60689  0.23904  0.84276  1.0000
  C   C918      1.0  0.60228  0.24623  0.81419  1.0000
  C   C919      1.0  0.57638  0.23004  0.80028  1.0000
  C   C920      1.0  0.79263  0.09697  0.56619  1.0000
  H   H727      1.0  0.95710  0.05971  0.50433  1.0000
  C   C921      1.0  0.88592  0.20916  0.98505  1.0000
  H   H728      1.0  0.75492  0.09640  0.55181  1.0000
  C   C922      1.0  0.76960  0.10103  0.56993  1.0000
  H   H729      1.0  0.84230  0.16270  0.68652  1.0000
  C   C923      1.0  0.85978  0.27357  0.59373  1.0000
  H   H730      1.0  0.54342  0.18168  0.85566  1.0000
  H   H731      1.0  0.58913  0.21018  0.87968  1.0000
  H   H732      1.0  0.62702  0.25150  0.85346  1.0000
  H   H733      1.0  0.61883  0.26429  0.80274  1.0000
  H   H734      1.0  0.57311  0.23576  0.77806  1.0000
  H   H735      1.0  0.56984  0.17988  0.77400  1.0000
  H   H736      1.0  0.78538  0.00950  0.63403  1.0000
  C   C924      1.0  0.50744  0.02641  0.82234  1.0000
  C   C925      1.0  0.66858  0.01821  0.95327  1.0000
  H   H737      1.0  0.94175  0.19797  0.63384  1.0000
  H   H738      1.0  0.77456  0.13123  0.74928  1.0000
  C   C926      1.0  0.66637  0.98865  0.99462  1.0000
  C   C927      1.0  0.80370  0.05413  0.64096  1.0000
  H   H739      1.0  0.47821  0.03556  0.64303  1.0000
  C   C928      1.0  0.86300  0.18447  0.97411  1.0000
  C   C929      1.0  0.84594  0.07581  0.67077  1.0000
  P   P34       1.0  0.86313  0.17353  0.93607  1.0000
  C   C930      1.0  0.89843  0.18109  0.92750  1.0000
  C   C931      1.0  0.83901  0.13615  0.93234  1.0000
  C   C932      1.0  0.83776  0.11744  0.95463  1.0000
  C   C933      1.0  0.81885  0.08863  0.95243  1.0000
  C   C934      1.0  0.80109  0.07817  0.92783  1.0000
  C   C935      1.0  0.80202  0.09658  0.90555  1.0000
  C   C936      1.0  0.82091  0.12547  0.90773  1.0000
  C   C937      1.0  0.90710  0.16130  0.93362  1.0000
  C   C938      1.0  0.81005  0.14956  0.71958  1.0000
  H   H740      1.0  0.95901  0.08635  0.59071  1.0000
  S   S126      1.0  0.70882  0.03221  0.57349  1.0000
  C   C939      1.0  0.91008  0.17019  0.66513  1.0000
  C   C940      1.0  0.85329  0.19327  0.91115  1.0000
  C   C941      1.0  0.71025  0.01275  0.88195  1.0000
  C   C942      1.0  0.85335  0.21142  0.86148  1.0000
  C   C943      1.0  0.86054  0.19579  0.88075  1.0000
  C   C944      1.0  0.93782  0.02757  0.57244  1.0000
  H   H741      1.0  0.77803  0.12011  0.64271  1.0000
  H   H742      1.0  0.90425  0.22152  0.97128  1.0000
  H   H743      1.0  0.85138  0.12521  0.97382  1.0000
  H   H744      1.0  0.81794  0.07441  0.96990  1.0000
  H   H745      1.0  0.78647  0.05577  0.92612  1.0000
  H   H746      1.0  0.78789  0.08839  0.88668  1.0000
  H   H747      1.0  0.82109  0.13922  0.89023  1.0000
  H   H748      1.0  0.89300  0.14114  0.94352  1.0000
  C   C945      1.0  0.90218  0.17198  0.61234  1.0000
  H   H749      1.0  0.87468  0.14113  0.69115  1.0000
  C   C946      1.0  0.94490  0.29688  0.61967  1.0000
  H   H750      1.0  0.91249  0.22387  0.91246  1.0000
  C   C947      1.0  0.87443  0.01492  0.51073  1.0000
  C   C948      1.0  0.66262  0.99190  0.96434  1.0000
  C   C949      1.0  0.86979  0.19141  0.54835  1.0000
  C   C950      1.0  0.52611  0.16665  0.76527  1.0000
  C   C951      1.0  0.62247  0.02946  0.57311  1.0000
  H   H751      1.0  0.82803  0.15629  0.55199  1.0000
  C   C952      1.0  0.83870  0.22442  0.87233  1.0000
  C   C953      1.0  0.74442  0.09483  0.98776  1.0000
  H   H752      1.0  0.51595  0.22896  0.82751  1.0000
  C   C954      1.0  0.69594  0.05226  0.62426  1.0000
  C   C955      1.0  0.49935  0.03894  0.64512  1.0000
  C   C956      1.0  0.70621  0.01458  0.63254  1.0000
  C   C957      1.0  0.83114  0.22179  0.90246  1.0000
  H   H753      1.0  0.83252  0.20463  0.94513  1.0000
  C   C958      1.0  0.93840  0.04374  0.54777  1.0000
  C   C959      1.0  0.77421  0.10055  0.71875  1.0000
  H   H754      1.0  0.86029  0.04784  0.68684  1.0000
  H   H755      1.0  0.69398  0.06672  0.60924  1.0000
  H   H756      1.0  0.54815  0.06057  0.83423  1.0000
  H   H757      1.0  0.86269  0.09380  0.68169  1.0000
  H   H758      1.0  0.88946  0.11727  0.55492  1.0000
  H   H759      1.0  0.54773  0.98850  0.79608  1.0000
  H   H760      1.0  0.87505  0.18330  0.52879  1.0000
  C   C960      1.0  0.76479  0.10982  0.59748  1.0000
  C   C961      1.0  0.96264  0.28686  0.66464  1.0000
  C   C962      1.0  0.50193  0.24865  0.79560  1.0000
  C   C963      1.0  0.94790  0.30383  0.86801  1.0000
  C   C964      1.0  0.89587  0.09542  0.61415  1.0000
  S   S127      1.0  0.83742  0.07072  0.53528  1.0000
  S   S128      1.0  0.72801  0.99574  0.93161  1.0000
  C   C965      1.0  0.92058  0.10813  0.63072  1.0000
  H   H761      1.0  0.53247  0.12016  0.70345  1.0000
  H   H762      1.0  0.92460  0.28262  0.90773  1.0000
  C   C966      1.0  0.49638  0.15929  0.82078  1.0000
  C   C967      1.0  0.82297  0.02585  0.66038  1.0000
  H   H763      1.0  0.83040  0.28308  0.84389  1.0000
  H   H764      1.0  0.81613  0.28798  0.79294  1.0000
  S   S129      1.0  0.75713  0.04028  0.50881  1.0000
  C   C968      1.0  0.94095  0.08808  0.59745  1.0000
  C   C969      1.0  0.55411  0.15091  0.73770  1.0000
  C   C970      1.0  0.88414  0.12328  0.53406  1.0000
  H   H765      1.0  0.94142  0.15271  0.93364  1.0000
  C   C971      1.0  0.50286  0.14897  0.74772  1.0000
  C   C972      1.0  0.49519  0.23078  0.74521  1.0000
  H   H766      1.0  0.74642  0.11210  0.60064  1.0000
  H   H767      1.0  0.92331  0.16251  0.53166  1.0000
  S   S130      1.0  0.78876  0.00761  0.98919  1.0000
  C   C973      1.0  0.69925  0.01406  0.66299  1.0000
  H   H768      1.0  0.48276  0.14776  0.75148  1.0000
  H   H769      1.0  0.82751  0.09654  0.58715  1.0000
  Fe  Fe65      1.0  0.79279  0.03534  0.52593  1.0000
  H   H770      1.0  0.57372  0.15096  0.73437  1.0000
  H   H771      1.0  0.86103  0.14440  0.59656  1.0000
  C   C974      1.0  0.50528  0.13256  0.72527  1.0000
  C   C975      1.0  0.50341  0.21132  0.75397  1.0000
  C   C976      1.0  0.95387  0.19393  0.91599  1.0000
  C   C977      1.0  0.92011  0.18157  0.63684  1.0000
  C   C978      1.0  0.88039  0.02719  0.53922  1.0000
  H   H772      1.0  0.51718  0.13432  0.82132  1.0000
  H   H773      1.0  0.62397  0.01135  0.73479  1.0000
  C   C979      1.0  0.82580  0.07842  0.65379  1.0000
  H   H774      1.0  0.93008  0.30323  0.85696  1.0000
  H   H775      1.0  0.62017  0.02008  0.64795  1.0000
  C   C980      1.0  0.61590  0.02656  0.62673  1.0000
  H   H776      1.0  0.48231  0.09753  0.85449  1.0000
  H   H777      1.0  0.96437  0.28719  0.68869  1.0000
  C   C981      1.0  0.96776  0.29278  0.91181  1.0000
  H   H778      1.0  0.96249  0.11465  0.63492  1.0000
  H   H779      1.0  0.93290  0.30525  0.60888  1.0000
  C   C982      1.0  0.53501  0.02699  0.63147  1.0000
  C   C983      1.0  0.82836  0.30658  0.80636  1.0000
  C   C984      1.0  0.95591  0.01639  0.57365  1.0000
  H   H780      1.0  0.86902  0.30906  0.56537  1.0000
  C   C985      1.0  0.50790  0.02299  0.62825  1.0000
  H   H781      1.0  0.49335  0.00722  0.61298  1.0000
  H   H782      1.0  0.48260  0.98699  0.74869  1.0000
  C   C986      1.0  0.55762  0.00664  0.69868  1.0000
  C   C987      1.0  0.83523  0.98977  0.55667  1.0000
  H   H783      1.0  0.63141  0.02543  0.55338  1.0000
  H   H784      1.0  0.54086  0.01368  0.61905  1.0000
  C   C988      1.0  0.62687  0.02101  0.60107  1.0000
  C   C989      1.0  0.97492  0.03684  0.52531  1.0000
  C   C990      1.0  0.97452  0.02110  0.55015  1.0000
  H   H785      1.0  0.95536  0.00391  0.59276  1.0000
  C   C991      1.0  0.97406  0.31672  0.85381  1.0000
  C   C992      1.0  0.84882  0.99073  0.50512  1.0000
  H   H786      1.0  0.52995  0.55183  0.27174  1.0000
  C   C993      1.0  0.56266  0.61184  0.37323  1.0000
  H   H787      1.0  0.62817  0.58018  0.24582  1.0000
  H   H788      1.0  0.60522  0.62136  0.38034  1.0000
  C   C994      1.0  0.58498  0.60641  0.37120  1.0000
  C   C995      1.0  0.56702  0.55065  0.28553  1.0000
  Fe  Fe66      1.0  0.54685  0.62270  0.27778  1.0000
  S   S131      1.0  0.50188  0.58513  0.28740  1.0000
  C   C996      1.0  0.55093  0.55668  0.26567  1.0000
  C   C997      1.0  0.58163  0.58260  0.35604  1.0000
  H   H789      1.0  0.79909  0.60668  0.16631  1.0000
  C   C998      1.0  0.53347  0.56950  0.34523  1.0000
  C   C999      1.0  0.47885  0.47199  0.28681  1.0000
  C   C1000     1.0  0.93975  0.42046  0.25343  1.0000
  H   H790      1.0  0.96183  0.42701  0.18116  1.0000
  H   H791      1.0  0.60846  0.48045  0.37201  1.0000
  H   H792      1.0  0.96997  0.39003  0.26577  1.0000
  H   H793      1.0  0.97013  0.57108  0.43798  1.0000
  C   C1001     1.0  0.81275  0.62925  0.16743  1.0000
  H   H794      1.0  0.52071  0.49820  0.27095  1.0000
  C   C1002     1.0  0.57808  0.50177  0.31937  1.0000
  C   C1003     1.0  0.95836  0.42717  0.22932  1.0000
  H   H795      1.0  0.51378  0.55625  0.33413  1.0000
  H   H796      1.0  0.59376  0.50776  0.40429  1.0000
  C   C1004     1.0  0.91084  0.40700  0.24848  1.0000
  C   C1005     1.0  0.90039  0.40054  0.21941  1.0000
  C   C1006     1.0  0.91886  0.40774  0.19525  1.0000
  H   H797      1.0  0.64753  0.62768  0.04460  1.0000
  H   H798      1.0  0.57351  0.49964  0.29569  1.0000
  C   C1007     1.0  0.59508  0.55937  0.27839  1.0000
  H   H799      1.0  0.52005  0.59834  0.36037  1.0000
  H   H800      1.0  0.60849  0.55657  0.29408  1.0000
  H   H801      1.0  0.56904  0.53100  0.38267  1.0000
  H   H802      1.0  0.94758  0.42568  0.27604  1.0000
  H   H803      1.0  0.61641  0.57592  0.04250  1.0000
  H   H804      1.0  0.89656  0.40168  0.26720  1.0000
  H   H805      1.0  0.91079  0.40297  0.17269  1.0000
  H   H806      1.0  0.95750  0.60044  0.46873  1.0000
  C   C1008     1.0  0.82544  0.64700  0.04553  1.0000
  H   H807      1.0  0.59876  0.58878  0.21020  1.0000
  H   H808      1.0  0.59955  0.57948  0.35343  1.0000
  C   C1009     1.0  0.49775  0.49952  0.34144  1.0000
  S   S132      1.0  0.58812  0.62544  0.29101  1.0000
  H   H809      1.0  0.56569  0.63087  0.38399  1.0000
  C   C1010     1.0  0.80527  0.64777  0.02716  1.0000
  H   H810      1.0  0.87799  0.39012  0.21559  1.0000
  C   C1011     1.0  0.60636  0.57280  0.25112  1.0000
  C   C1012     1.0  0.56216  0.56993  0.23839  1.0000
  C   C1013     1.0  0.94777  0.42120  0.20014  1.0000
  C   C1014     1.0  0.53697  0.59347  0.36012  1.0000
  H   H811      1.0  0.79929  0.63688  0.12520  1.0000
  H   H812      1.0  0.54975  0.57498  0.22341  1.0000
  C   C1015     1.0  0.58982  0.57781  0.23102  1.0000
  H   H813      1.0  0.59806  0.47627  0.31777  1.0000
  C   C1016     1.0  0.47944  0.39439  0.36332  1.0000
  H   H814      1.0  0.50143  0.40229  0.35843  1.0000
  C   C1017     1.0  0.82980  0.64116  0.19237  1.0000
  C   C1018     1.0  0.51622  0.50758  0.31700  1.0000
  C   C1019     1.0  0.50676  0.49304  0.28991  1.0000
  P   P35       1.0  0.55233  0.53471  0.32115  1.0000
  C   C1020     1.0  0.55567  0.56370  0.34335  1.0000
  C   C1021     1.0  0.57040  0.51789  0.33736  1.0000
  C   C1022     1.0  0.57561  0.51948  0.36817  1.0000
  C   C1023     1.0  0.58940  0.50611  0.38056  1.0000
  C   C1024     1.0  0.59764  0.49068  0.36239  1.0000
  C   C1025     1.0  0.59184  0.48838  0.33183  1.0000
  H   H815      1.0  0.82941  0.62781  0.21053  1.0000
  C   C1026     1.0  0.47590  0.53567  0.25271  1.0000
  H   H816      1.0  0.48208  0.34971  0.04629  1.0000
  C   C1027     1.0  0.81305  0.64644  0.14408  1.0000
  S   S133      1.0  0.63731  0.64834  0.21736  1.0000
  H   H817      1.0  0.48554  0.43443  0.37847  1.0000
  S   S134      1.0  0.56450  0.64664  0.23454  1.0000
  H   H818      1.0  0.83557  0.63514  0.03874  1.0000
  H   H819      1.0  0.49379  0.54569  0.23793  1.0000
  H   H820      1.0  0.50481  0.50993  0.36275  1.0000
  H   H821      1.0  0.66569  0.64706  0.48075  1.0000
  H   H822      1.0  0.79975  0.63653  0.00617  1.0000
  C   C1028     1.0  0.63092  0.58670  0.02438  1.0000
  C   C1029     1.0  0.64841  0.61585  0.02561  1.0000
  C   C1030     1.0  0.97414  0.59669  0.47617  1.0000
  H   H823      1.0  0.67873  0.65062  0.17583  1.0000
  C   C1031     1.0  0.66702  0.62984  0.00221  1.0000
  Fe  Fe67      1.0  0.92031  0.60989  0.78642  1.0000
  S   S135      1.0  0.89097  0.56387  0.79634  1.0000
  H   H824      1.0  0.68259  0.62590  0.95969  1.0000
  Fe  Fe68      1.0  0.91888  0.60015  0.71809  1.0000
  S   S136      1.0  0.89010  0.55346  0.72380  1.0000
  H   H825      1.0  0.96090  0.36256  0.88425  1.0000
  Fe  Fe69      1.0  0.86652  0.56546  0.75646  1.0000
  S   S137      1.0  0.81946  0.54484  0.74878  1.0000
  Fe  Fe70      1.0  0.91662  0.55487  0.76272  1.0000
  S   S138      1.0  0.93496  0.52505  0.77151  1.0000
  S   S139      1.0  0.89378  0.61162  0.74868  1.0000
  S   S140      1.0  0.94747  0.60130  0.75485  1.0000
  H   H826      1.0  0.61524  0.51644  0.69287  1.0000
  C   C1032     1.0  0.85324  0.32779  0.85212  1.0000
  H   H827      1.0  0.91914  0.41063  0.91470  1.0000
  H   H828      1.0  0.50864  0.40874  0.81130  1.0000
  H   H829      1.0  0.69356  0.49681  0.70839  1.0000
  H   H830      1.0  0.70654  0.59412  0.97544  1.0000
  Fe  Fe71      1.0  0.91236  0.35849  0.76056  1.0000
  S   S141      1.0  0.90139  0.39445  0.75504  1.0000
  S   S142      1.0  0.95253  0.35930  0.74740  1.0000
  Fe  Fe72      1.0  0.66421  0.60803  0.80497  1.0000
  S   S143      1.0  0.66267  0.56877  0.82212  1.0000
  C   C1033     1.0  0.83720  0.33329  0.79439  1.0000
  Fe  Fe73      1.0  0.66816  0.59249  0.73955  1.0000
  S   S144      1.0  0.66768  0.55232  0.75367  1.0000
  S   S145      1.0  0.67201  0.60048  0.68878  1.0000
  Fe  Fe74      1.0  0.63218  0.54519  0.78476  1.0000
  S   S146      1.0  0.59279  0.50255  0.79786  1.0000
  Fe  Fe75      1.0  0.69757  0.57886  0.78944  1.0000
  S   S147      1.0  0.73805  0.58294  0.80777  1.0000
  S   S148      1.0  0.63146  0.58433  0.76937  1.0000
  S   S149      1.0  0.70031  0.61921  0.77362  1.0000
  C   C1034     1.0  0.68658  0.63244  0.66775  1.0000
  C   C1035     1.0  0.69076  0.63163  0.63679  1.0000
  C   C1036     1.0  0.57065  0.64913  0.56728  1.0000
  H   H831      1.0  0.68602  0.61189  0.62652  1.0000
  C   C1037     1.0  0.61543  0.47224  0.96635  1.0000
  C   C1038     1.0  0.56256  0.47117  0.78419  1.0000
  C   C1039     1.0  0.55504  0.46689  0.75396  1.0000
  C   C1040     1.0  0.53111  0.44177  0.74447  1.0000
  C   C1041     1.0  0.51392  0.42041  0.76490  1.0000
  C   C1042     1.0  0.52135  0.42476  0.79516  1.0000
  C   C1043     1.0  0.54541  0.44979  0.80461  1.0000
  H   H832      1.0  0.56751  0.48305  0.73786  1.0000
  H   H833      1.0  0.52583  0.43891  0.72103  1.0000
  H   H834      1.0  0.55073  0.45263  0.82805  1.0000
  C   C1044     1.0  0.65698  0.52666  0.67973  1.0000
  C   C1045     1.0  0.60892  0.51183  0.95391  1.0000
  H   H835      1.0  0.69879  0.53370  0.67280  1.0000
  H   H836      1.0  0.61600  0.42435  0.79909  1.0000
  H   H837      1.0  0.73789  0.59037  0.68720  1.0000
  C   C1046     1.0  0.92871  0.37335  0.87492  1.0000
  C   C1047     1.0  0.92535  0.48879  0.76548  1.0000
  C   C1048     1.0  0.94484  0.47982  0.77241  1.0000
  C   C1049     1.0  0.93810  0.45134  0.76920  1.0000
  C   C1050     1.0  0.91154  0.43108  0.75913  1.0000
  C   C1051     1.0  0.89212  0.44008  0.75201  1.0000
  C   C1052     1.0  0.89893  0.46860  0.75505  1.0000
  C   C1053     1.0  0.66817  0.61472  0.97765  1.0000
  H   H838      1.0  0.95348  0.44513  0.77460  1.0000
  H   H839      1.0  0.87153  0.42482  0.74416  1.0000
  H   H840      1.0  0.88357  0.47489  0.74965  1.0000
  C   C1054     1.0  0.79799  0.55766  0.76366  1.0000
  C   C1055     1.0  0.80708  0.57715  0.78695  1.0000
  C   C1056     1.0  0.78861  0.58516  0.79976  1.0000
  C   C1057     1.0  0.76122  0.57446  0.78884  1.0000
  C   C1058     1.0  0.75247  0.55584  0.76477  1.0000
  C   C1059     1.0  0.77065  0.54713  0.75258  1.0000
  H   H841      1.0  0.82801  0.58527  0.79577  1.0000
  H   H842      1.0  0.79541  0.59937  0.81855  1.0000
  H   H843      1.0  0.73144  0.54751  0.75620  1.0000
  H   H844      1.0  0.76348  0.53204  0.73458  1.0000
  H   H845      1.0  0.96534  0.49504  0.78051  1.0000
  H   H846      1.0  0.93044  0.48733  0.83799  1.0000
  C   C1060     1.0  0.77610  0.60576  0.71246  1.0000
  H   H847      1.0  0.64433  0.50524  0.83967  1.0000
  C   C1061     1.0  0.89758  0.39700  0.92144  1.0000
  H   H848      1.0  0.88636  0.48496  0.82153  1.0000
  H   H849      1.0  0.76532  0.60961  0.90465  1.0000
  H   H850      1.0  0.60669  0.45003  0.97120  1.0000
  C   C1062     1.0  0.91109  0.44308  0.84864  1.0000
  C   C1063     1.0  0.95405  0.37379  0.86953  1.0000
  H   H851      1.0  0.62345  0.47496  0.79597  1.0000
  H   H852      1.0  0.56619  0.38914  0.80668  1.0000
  C   C1064     1.0  0.87332  0.32030  0.61186  1.0000
  Fe  Fe76      1.0  0.94483  0.33022  0.78705  1.0000
  H   H853      1.0  0.54923  0.39626  0.71464  1.0000
  H   H854      1.0  0.59489  0.52003  0.94924  1.0000
  H   H855      1.0  0.90456  0.55221  0.58177  1.0000
  H   H856      1.0  0.92762  0.57942  0.53611  1.0000
  H   H857      1.0  0.60979  0.47985  0.72889  1.0000
  H   H858      1.0  0.87309  0.60530  0.63306  1.0000
  H   H859      1.0  0.86138  0.37772  0.80114  1.0000
  C   C1065     1.0  0.84191  0.36310  0.93949  1.0000
  H   H860      1.0  0.59899  0.43150  0.70638  1.0000
  H   H861      1.0  0.73196  0.63144  0.69861  1.0000
  C   C1066     1.0  0.94084  0.40343  0.68726  1.0000
  C   C1067     1.0  0.59767  0.48322  0.96040  1.0000
  H   H862      1.0  0.87265  0.64232  0.60192  1.0000
  H   H863      1.0  0.86029  0.32529  0.87389  1.0000
  P   P36       1.0  0.88607  0.38550  0.86103  1.0000
  H   H864      1.0  0.92133  0.37066  0.65452  1.0000
  C   C1068     1.0  0.86231  0.61884  0.67349  1.0000
  C   C1069     1.0  0.71054  0.59263  0.95204  1.0000
  H   H865      1.0  0.70497  0.40111  0.70923  1.0000
  H   H866      1.0  0.75527  0.61289  0.95817  1.0000
  H   H867      1.0  0.70494  0.48855  0.76996  1.0000
  H   H868      1.0  0.68322  0.41791  0.67176  1.0000
  C   C1070     1.0  0.96447  0.61068  0.55918  1.0000
  H   H869      1.0  0.91608  0.36154  0.89385  1.0000
  C   C1071     1.0  0.65054  0.48423  0.71980  1.0000
  C   C1072     1.0  0.86102  0.41613  0.84040  1.0000
  H   H870      1.0  0.53274  0.37527  0.76460  1.0000
  H   H871      1.0  0.87954  0.34213  0.60756  1.0000
  S   S150      1.0  0.90666  0.33213  0.80195  1.0000
  C   C1073     1.0  0.94421  0.64867  0.65153  1.0000
  C   C1074     1.0  0.93545  0.40065  0.82992  1.0000
  C   C1075     1.0  0.60171  0.41848  0.78044  1.0000
  H   H872      1.0  0.67514  0.43261  0.77979  1.0000
  C   C1076     1.0  0.61536  0.59691  0.88660  1.0000
  C   C1077     1.0  0.60300  0.57558  0.86539  1.0000
  C   C1078     1.0  0.60518  0.55127  0.86824  1.0000
  C   C1079     1.0  0.61995  0.54839  0.89214  1.0000
  C   C1080     1.0  0.63220  0.56963  0.91381  1.0000
  C   C1081     1.0  0.63011  0.59411  0.91058  1.0000
  P   P37       1.0  0.65249  0.56647  0.94386  1.0000
  C   C1082     1.0  0.65077  0.58547  0.97615  1.0000
  C   C1083     1.0  0.63809  0.52969  0.95320  1.0000
  H   H873      1.0  0.90655  0.40642  0.96813  1.0000
  H   H874      1.0  0.77855  0.58762  0.70786  1.0000
  C   C1084     1.0  0.63185  0.51129  0.69543  1.0000
  C   C1085     1.0  0.93820  0.58620  0.55737  1.0000
  C   C1086     1.0  0.65579  0.51854  0.95939  1.0000
  H   H875      1.0  0.89524  0.63981  0.51500  1.0000
  H   H876      1.0  0.72539  0.51793  0.81454  1.0000
  C   C1087     1.0  0.87697  0.38166  0.90008  1.0000
  H   H877      1.0  0.93064  0.44460  0.85572  1.0000
  S   S151      1.0  0.66359  0.64076  0.83674  1.0000
  C   C1088     1.0  0.68836  0.58055  0.93153  1.0000
  C   C1089     1.0  0.84896  0.36524  0.90921  1.0000
  H   H878      1.0  0.82031  0.35018  0.94646  1.0000
  C   C1090     1.0  0.96484  0.38317  0.66014  1.0000
  C   C1091     1.0  0.72194  0.58899  0.89188  1.0000
  C   C1092     1.0  0.69428  0.57857  0.90143  1.0000
  H   H879      1.0  0.61462  0.61624  0.88367  1.0000
  H   H880      1.0  0.59249  0.57830  0.84625  1.0000
  H   H881      1.0  0.59611  0.53504  0.85135  1.0000
  H   H882      1.0  0.62225  0.52983  0.89322  1.0000
  H   H883      1.0  0.64037  0.61146  0.92595  1.0000
  C   C1093     1.0  0.73821  0.60311  0.94238  1.0000
  C   C1094     1.0  0.57357  0.39829  0.78479  1.0000
  H   H884      1.0  0.81205  0.62480  0.74081  1.0000
  H   H885      1.0  0.97268  0.41093  0.80451  1.0000
  H   H886      1.0  0.83197  0.33552  0.77160  1.0000
  C   C1095     1.0  0.91104  0.46745  0.83904  1.0000
  C   C1096     1.0  0.88612  0.46615  0.82981  1.0000
  C   C1097     1.0  0.55473  0.39033  0.76106  1.0000
  C   C1098     1.0  0.67594  0.50015  0.70439  1.0000
  C   C1099     1.0  0.79532  0.62714  0.73096  1.0000
  C   C1100     1.0  0.56406  0.40226  0.73285  1.0000
  C   C1101     1.0  0.75328  0.60730  0.70078  1.0000
  H   H887      1.0  0.69557  0.52704  0.84906  1.0000
  H   H888      1.0  0.72634  0.58775  0.86852  1.0000
  H   H889      1.0  0.67766  0.56924  0.88519  1.0000
  C   C1102     1.0  0.59217  0.42247  0.72840  1.0000
  C   C1103     1.0  0.97017  0.38782  0.84450  1.0000
  H   H890      1.0  0.84182  0.43960  0.82339  1.0000
  C   C1104     1.0  0.64446  0.48991  0.96590  1.0000
  C   C1105     1.0  0.85391  0.35727  0.81130  1.0000
  C   C1106     1.0  0.86269  0.37775  0.96075  1.0000
  C   C1107     1.0  0.69124  0.49101  0.78562  1.0000
  C   C1108     1.0  0.91953  0.38734  0.85544  1.0000
  C   C1109     1.0  0.67904  0.52116  0.68429  1.0000
  C   C1110     1.0  0.86108  0.44053  0.83067  1.0000
  H   H891      1.0  0.62757  0.63708  0.69100  1.0000
  H   H892      1.0  0.84142  0.39649  0.84107  1.0000
  C   C1111     1.0  0.74391  0.60133  0.91229  1.0000
  H   H893      1.0  0.83256  0.35416  0.89297  1.0000
  C   C1112     1.0  0.62877  0.49042  0.71570  1.0000
  H   H894      1.0  0.65782  0.44242  0.68795  1.0000
  H   H895      1.0  0.92787  0.41000  0.81374  1.0000
  C   C1113     1.0  0.89048  0.39480  0.95171  1.0000
  H   H896      1.0  0.70061  0.40831  0.76320  1.0000
  H   H897      1.0  0.62851  0.61334  0.64452  1.0000
  H   H898      1.0  0.65968  0.54355  0.66489  1.0000
  H   H899      1.0  0.96520  0.43446  0.72011  1.0000
  C   C1114     1.0  0.74990  0.63046  0.70721  1.0000
  H   H900      1.0  0.87868  0.64505  0.80184  1.0000
  C   C1115     1.0  0.88617  0.41708  0.84866  1.0000
  C   C1116     1.0  0.86188  0.35472  0.84039  1.0000
  C   C1117     1.0  0.68160  0.42136  0.69531  1.0000
  C   C1118     1.0  0.69377  0.41180  0.71642  1.0000
  C   C1119     1.0  0.69136  0.41590  0.74682  1.0000
  C   C1120     1.0  0.67711  0.42990  0.75613  1.0000
  C   C1121     1.0  0.66579  0.44051  0.73500  1.0000
  C   C1122     1.0  0.66741  0.43542  0.70456  1.0000
  P   P38       1.0  0.64713  0.45825  0.74697  1.0000
  C   C1123     1.0  0.61104  0.43134  0.75240  1.0000
  C   C1124     1.0  0.66230  0.47836  0.78042  1.0000
  C   C1125     1.0  0.64558  0.48360  0.80019  1.0000
  C   C1126     1.0  0.65741  0.50075  0.82508  1.0000
  C   C1127     1.0  0.68614  0.51293  0.83037  1.0000
  C   C1128     1.0  0.70298  0.50784  0.81080  1.0000
  C   C1129     1.0  0.70087  0.64424  0.88113  1.0000
  H   H901      1.0  0.65824  0.48139  0.97043  1.0000
  C   C1130     1.0  0.91459  0.64336  0.50470  1.0000
  H   H902      1.0  0.57515  0.46953  0.96061  1.0000
  C   C1131     1.0  0.86776  0.62018  0.64290  1.0000
  C   C1132     1.0  0.62762  0.63272  0.64330  1.0000
  C   C1133     1.0  0.95303  0.63879  0.87324  1.0000
  S   S152      1.0  0.88560  0.31972  0.73287  1.0000
  H   H903      1.0  0.92183  0.40412  0.69228  1.0000
  S   S153      1.0  0.92715  0.61498  0.66921  1.0000
  H   H904      1.0  0.85722  0.37608  0.98421  1.0000
  C   C1134     1.0  0.96078  0.40108  0.82457  1.0000
  H   H905      1.0  0.86313  0.60277  0.68707  1.0000
  S   S154      1.0  0.48420  0.38867  0.75111  1.0000
  H   H906      1.0  0.92578  0.63180  0.60870  1.0000
  C   C1135     1.0  0.94057  0.38470  0.66592  1.0000
  C   C1136     1.0  0.93844  0.57915  0.61072  1.0000
  H   H907      1.0  0.67833  0.53180  0.95902  1.0000
  H   H908      1.0  0.85314  0.63785  0.71050  1.0000
  H   H909      1.0  0.94790  0.61822  0.86501  1.0000
  C   C1137     1.0  0.63203  0.57153  0.99975  1.0000
  H   H910      1.0  0.70399  0.62950  0.86794  1.0000
  C   C1138     1.0  0.92514  0.57066  0.58310  1.0000
  H   H911      1.0  0.57656  0.63303  0.56437  1.0000
  C   C1139     1.0  0.86752  0.64128  0.62536  1.0000
  C   C1140     1.0  0.85658  0.63862  0.68664  1.0000
  H   H912      1.0  0.87608  0.32513  0.65973  1.0000
  H   H913      1.0  0.92805  0.56766  0.63088  1.0000
  C   C1141     1.0  0.96504  0.60280  0.61252  1.0000
  H   H914      1.0  0.96370  0.36759  0.64449  1.0000
  H   H915      1.0  0.92650  0.62748  0.54232  1.0000
  C   C1142     1.0  0.93227  0.63599  0.51999  1.0000
  H   H916      1.0  0.76102  0.64348  0.78660  1.0000
  S   S155      1.0  0.93576  0.64820  0.81761  1.0000
  H   H917      1.0  0.83433  0.64617  0.79757  1.0000
  H   H918      1.0  0.74255  0.63958  0.83709  1.0000
  Fe  Fe77      1.0  0.92560  0.31943  0.72158  1.0000
  H   H919      1.0  0.72991  0.64775  0.91556  1.0000
  C   C1143     1.0  0.96539  0.42059  0.70296  1.0000
  H   H920      1.0  0.62824  0.63379  0.59561  1.0000
  C   C1144     1.0  0.96412  0.64719  0.90226  1.0000
  H   H921      1.0  0.96768  0.63297  0.91604  1.0000
  C   C1145     1.0  0.95726  0.64023  0.50663  1.0000
  C   C1146     1.0  0.94001  0.65058  0.62077  1.0000
  H   H922      1.0  0.97065  0.55993  0.82323  1.0000
  H   H923      1.0  0.97508  0.60947  0.63410  1.0000
  H   H924      1.0  0.52686  0.62049  0.55948  1.0000
  C   C1147     1.0  0.62702  0.64609  0.66958  1.0000
  C   C1148     1.0  0.62790  0.64468  0.61557  1.0000
  C   C1149     1.0  0.54249  0.64195  0.56461  1.0000
  H   H925      1.0  0.61822  0.54905  0.99931  1.0000
  C   C1150     1.0  0.79239  0.65078  0.73695  1.0000
  C   C1151     1.0  0.84172  0.73770  0.02431  1.0000
  C   C1152     1.0  0.54409  0.67374  0.38874  1.0000
  P   P39       1.0  0.83092  0.69798  0.11537  1.0000
  C   C1153     1.0  0.61786  0.83004  0.47736  1.0000
  C   C1154     1.0  0.67547  0.87923  0.03004  1.0000
  C   C1155     1.0  0.90031  0.77548  0.12782  1.0000
  C   C1156     1.0  0.77873  0.88587  0.03336  1.0000
  Fe  Fe78      1.0  0.78296  0.75850  0.03468  1.0000
  S   S156      1.0  0.82991  0.77886  0.04453  1.0000
  Fe  Fe79      1.0  0.72255  0.73134  0.05976  1.0000
  S   S157      1.0  0.69276  0.72276  0.09962  1.0000
  S   S158      1.0  0.75765  0.77625  0.05613  1.0000
  Fe  Fe80      1.0  0.95726  0.74212  0.01465  1.0000
  C   C1157     1.0  0.94378  0.70325  0.15161  1.0000
  H   H926      1.0  0.72027  0.85354  0.09291  1.0000
  H   H927      1.0  0.79040  0.69098  0.06792  1.0000
  C   C1158     1.0  0.78768  0.74125  0.11357  1.0000
  H   H928      1.0  0.58498  0.76570  0.43973  1.0000
  H   H929      1.0  0.49118  0.88487  0.29220  1.0000
  H   H930      1.0  0.64516  0.96687  0.46826  1.0000
  S   S159      1.0  0.71274  0.69567  0.45090  1.0000
  C   C1159     1.0  0.51944  0.96323  0.30234  1.0000
  C   C1160     1.0  0.54305  0.69033  0.36552  1.0000
  C   C1161     1.0  0.92084  0.77385  0.11082  1.0000
  Fe  Fe81      1.0  0.62273  0.91619  0.24221  1.0000
  S   S160      1.0  0.57869  0.87995  0.23696  1.0000
  S   S161      1.0  0.65986  0.92767  0.21036  1.0000
  Fe  Fe82      1.0  0.61211  0.92778  0.30726  1.0000
  S   S162      1.0  0.56716  0.89274  0.30611  1.0000
  S   S163      1.0  0.62788  0.95526  0.34943  1.0000
  Fe  Fe83      1.0  0.58425  0.86746  0.28332  1.0000
  S   S164      1.0  0.57064  0.82386  0.30236  1.0000
  Fe  Fe84      1.0  0.56439  0.90775  0.26009  1.0000
  S   S165      1.0  0.52866  0.91420  0.24088  1.0000
  S   S166      1.0  0.62906  0.90153  0.28742  1.0000
  S   S167      1.0  0.60856  0.94496  0.26245  1.0000
  Fe  Fe85      1.0  0.57751  0.68634  0.26095  1.0000
  S   S168      1.0  0.57747  0.72355  0.23778  1.0000
  S   S169      1.0  0.61982  0.69260  0.27333  1.0000
  C   C1162     1.0  0.70257  0.97928  0.41347  1.0000
  C   C1163     1.0  0.57250  0.79631  0.28349  1.0000
  C   C1164     1.0  0.56150  0.76992  0.29756  1.0000
  C   C1165     1.0  0.56314  0.74761  0.28386  1.0000
  C   C1166     1.0  0.57551  0.75135  0.25578  1.0000
  C   C1167     1.0  0.58597  0.77753  0.24128  1.0000
  C   C1168     1.0  0.58472  0.80004  0.25519  1.0000
  H   H931      1.0  0.55131  0.76658  0.31902  1.0000
  H   H932      1.0  0.55429  0.72726  0.29458  1.0000
  H   H933      1.0  0.59517  0.78043  0.21931  1.0000
  H   H934      1.0  0.59304  0.82016  0.24403  1.0000
  C   C1169     1.0  0.64238  0.68515  0.38601  1.0000
  C   C1170     1.0  0.64431  0.69619  0.41484  1.0000
  C   C1171     1.0  0.66604  0.70026  0.43456  1.0000
  C   C1172     1.0  0.68584  0.69251  0.42612  1.0000
  C   C1173     1.0  0.68354  0.68073  0.39758  1.0000
  C   C1174     1.0  0.66216  0.67733  0.37752  1.0000
  H   H935      1.0  0.76760  0.86639  0.12379  1.0000
  H   H936      1.0  0.66733  0.70915  0.45645  1.0000
  C   C1175     1.0  0.80815  0.73339  0.10938  1.0000
  C   C1176     1.0  0.56060  0.97556  0.33223  1.0000
  P   P40       1.0  0.61029  0.76758  0.38207  1.0000
  C   C1177     1.0  0.69736  0.96016  0.39004  1.0000
  H   H937      1.0  0.75147  0.78106  0.12591  1.0000
  C   C1178     1.0  0.84708  0.67029  0.19403  1.0000
  S   S170      1.0  0.92256  0.74209  0.48138  1.0000
  H   H938      1.0  0.55307  0.81382  0.36866  1.0000
  C   C1179     1.0  0.80599  0.70960  0.12387  1.0000
  C   C1180     1.0  0.65628  0.96310  0.37424  1.0000
  C   C1181     1.0  0.67430  0.95198  0.37065  1.0000
  S   S171      1.0  0.96739  0.70755  0.02480  1.0000
  C   C1182     1.0  0.85986  0.72672  0.01909  1.0000
  H   H939      1.0  0.94565  0.76933  0.17086  1.0000
  C   C1183     1.0  0.74703  0.79718  0.13389  1.0000
  H   H940      1.0  0.67086  0.93762  0.35251  1.0000
  H   H941      1.0  0.58807  0.78934  0.49515  1.0000
  H   H942      1.0  0.82541  0.74553  0.09428  1.0000
  C   C1184     1.0  0.58565  0.71409  0.40804  1.0000
  C   C1185     1.0  0.49357  0.90583  0.25070  1.0000
  C   C1186     1.0  0.79256  0.66345  0.03563  1.0000
  C   C1187     1.0  0.64161  0.87231  0.13532  1.0000
  S   S172      1.0  0.74929  0.71351  0.04196  1.0000
  C   C1188     1.0  0.67689  0.70058  0.13135  1.0000
  C   C1189     1.0  0.65607  0.70318  0.14714  1.0000
  C   C1190     1.0  0.64355  0.68716  0.17315  1.0000
  H   H943      1.0  0.74435  0.68903  0.16088  1.0000
  C   C1191     1.0  0.56361  0.71862  0.36324  1.0000
  H   H944      1.0  0.83093  0.87368  0.01480  1.0000
  C   C1192     1.0  0.66111  0.79480  0.04616  1.0000
  C   C1193     1.0  0.78279  0.69356  0.14246  1.0000
  C   C1194     1.0  0.90988  0.72770  0.24305  1.0000
  C   C1195     1.0  0.64665  0.95013  0.47961  1.0000
  H   H945      1.0  0.77115  0.92172  0.42651  1.0000
  C   C1196     1.0  0.60297  0.83431  0.16187  1.0000
  H   H946      1.0  0.95178  0.67857  0.08463  1.0000
  C   C1197     1.0  0.56057  0.80400  0.38455  1.0000
  C   C1198     1.0  0.65702  0.81594  0.05869  1.0000
  C   C1199     1.0  0.70032  0.95771  0.13074  1.0000
  C   C1200     1.0  0.69358  0.94789  0.16046  1.0000
  C   C1201     1.0  0.66740  0.94098  0.17309  1.0000
  H   H947      1.0  0.86737  0.67928  0.49063  1.0000
  C   C1202     1.0  0.60951  0.80634  0.49563  1.0000
  H   H948      1.0  0.48871  0.92553  0.21112  1.0000
  C   C1203     1.0  0.66607  0.88140  0.05865  1.0000
  C   C1204     1.0  0.67232  0.66529  0.16788  1.0000
  H   H949      1.0  0.62909  0.70197  0.42197  1.0000
  C   C1205     1.0  0.65180  0.66830  0.18394  1.0000
  H   H950      1.0  0.91334  0.78000  0.19878  1.0000
  C   C1206     1.0  0.74154  0.93316  0.44397  1.0000
  H   H951      1.0  0.81946  0.72483  0.02062  1.0000
  C   C1207     1.0  0.64047  0.77519  0.40457  1.0000
  C   C1208     1.0  0.68760  0.78594  0.43874  1.0000
  C   C1209     1.0  0.67975  0.76748  0.41463  1.0000
  C   C1210     1.0  0.65626  0.76207  0.39763  1.0000
  C   C1211     1.0  0.62370  0.77837  0.34462  1.0000
  C   C1212     1.0  0.64361  0.79542  0.28624  1.0000
  C   C1213     1.0  0.64568  0.81526  0.30715  1.0000
  C   C1214     1.0  0.63627  0.80687  0.33641  1.0000
  H   H952      1.0  0.69175  0.75711  0.40930  1.0000
  H   H953      1.0  0.65025  0.74735  0.37922  1.0000
  H   H954      1.0  0.65005  0.80170  0.26335  1.0000
  H   H955      1.0  0.65395  0.83702  0.30049  1.0000
  H   H956      1.0  0.63804  0.82249  0.35238  1.0000
  H   H957      1.0  0.52654  0.68123  0.34902  1.0000
  H   H958      1.0  0.83033  0.73697  0.48623  1.0000
  H   H959      1.0  0.62772  0.68968  0.18502  1.0000
  H   H960      1.0  0.56242  0.73138  0.34547  1.0000
  H   H961      1.0  0.89982  0.71615  0.26327  1.0000
  C   C1215     1.0  0.76263  0.82476  0.12335  1.0000
  C   C1216     1.0  0.64799  0.94406  0.15553  1.0000
  C   C1217     1.0  0.59435  0.87243  0.39799  1.0000
  C   C1218     1.0  0.60528  0.87158  0.37010  1.0000
  C   C1219     1.0  0.63137  0.87308  0.36807  1.0000
  C   C1220     1.0  0.64683  0.87589  0.39389  1.0000
  C   C1221     1.0  0.63607  0.87689  0.42212  1.0000
  C   C1222     1.0  0.60949  0.87474  0.42393  1.0000
  P   P41       1.0  0.65678  0.88336  0.45567  1.0000
  C   C1223     1.0  0.83300  0.66196  0.07236  1.0000
  C   C1224     1.0  0.69303  0.89596  0.44598  1.0000
  C   C1225     1.0  0.71351  0.92388  0.45129  1.0000
  C   C1226     1.0  0.64560  0.85212  0.47811  1.0000
  C   C1227     1.0  0.63262  0.76730  0.29469  1.0000
  C   C1228     1.0  0.94742  0.66100  0.46348  1.0000
  H   H962      1.0  0.65544  0.89469  0.13246  1.0000
  H   H963      1.0  0.73026  0.86059  0.48178  1.0000
  H   H964      1.0  0.77620  0.84499  0.03470  1.0000
  H   H965      1.0  0.70038  0.67865  0.12964  1.0000
  H   H966      1.0  0.57425  0.87164  0.39935  1.0000
  H   H967      1.0  0.59357  0.86983  0.34998  1.0000
  H   H968      1.0  0.63980  0.87274  0.34628  1.0000
  H   H969      1.0  0.66741  0.87817  0.39140  1.0000
  H   H970      1.0  0.60088  0.87588  0.44531  1.0000
  H   H971      1.0  0.75721  0.95486  0.44789  1.0000
  H   H972      1.0  0.70797  0.93854  0.46115  1.0000
  C   C1229     1.0  0.93602  0.75768  0.19106  1.0000
  C   C1230     1.0  0.47893  0.91474  0.23169  1.0000
  H   H973      1.0  0.65219  0.93272  0.43897  1.0000
  S   S173      1.0  0.61477  0.68159  0.36198  1.0000
  C   C1231     1.0  0.57895  0.77718  0.42446  1.0000
  C   C1232     1.0  0.66037  0.85431  0.21456  1.0000
  C   C1233     1.0  0.68439  0.87671  0.22671  1.0000
  C   C1234     1.0  0.70954  0.87609  0.22689  1.0000
  C   C1235     1.0  0.71074  0.85315  0.21468  1.0000
  C   C1236     1.0  0.68673  0.83062  0.20207  1.0000
  C   C1237     1.0  0.66146  0.83133  0.20229  1.0000
  P   P42       1.0  0.68818  0.80031  0.18787  1.0000
  C   C1238     1.0  0.71831  0.81046  0.16381  1.0000
  C   C1239     1.0  0.68946  0.77940  0.21870  1.0000
  C   C1240     1.0  0.69758  0.79074  0.24748  1.0000
  C   C1241     1.0  0.69795  0.77401  0.27100  1.0000
  C   C1242     1.0  0.69042  0.74593  0.26601  1.0000
  C   C1243     1.0  0.68240  0.73451  0.23750  1.0000
  C   C1244     1.0  0.68174  0.75111  0.21407  1.0000
  C   C1245     1.0  0.73369  0.83800  0.15246  1.0000
  H   H974      1.0  0.63087  0.75193  0.27833  1.0000
  Fe  Fe86      1.0  0.73058  0.72298  0.49299  1.0000
  C   C1246     1.0  0.72503  0.79005  0.15404  1.0000
  C   C1247     1.0  0.65720  0.77808  0.16630  1.0000
  C   C1248     1.0  0.65847  0.77705  0.13502  1.0000
  C   C1249     1.0  0.63473  0.75867  0.11874  1.0000
  C   C1250     1.0  0.60945  0.74152  0.13342  1.0000
  C   C1251     1.0  0.60793  0.74260  0.16445  1.0000
  C   C1252     1.0  0.63171  0.76065  0.18089  1.0000
  H   H975      1.0  0.64089  0.85490  0.21473  1.0000
  H   H976      1.0  0.68341  0.89455  0.23600  1.0000
  H   H977      1.0  0.72808  0.89344  0.23655  1.0000
  H   H978      1.0  0.73034  0.85284  0.21530  1.0000
  H   H979      1.0  0.64249  0.81426  0.19318  1.0000
  H   H980      1.0  0.70328  0.81225  0.25216  1.0000
  H   H981      1.0  0.70377  0.78270  0.29325  1.0000
  H   H982      1.0  0.69035  0.73284  0.28429  1.0000
  H   H983      1.0  0.67608  0.71256  0.23365  1.0000
  H   H984      1.0  0.67485  0.74170  0.19239  1.0000
  H   H985      1.0  0.72818  0.85386  0.15813  1.0000
  C   C1253     1.0  0.76234  0.70151  0.14669  1.0000
  H   H986      1.0  0.71276  0.76832  0.16100  1.0000
  H   H987      1.0  0.67782  0.78984  0.12308  1.0000
  H   H988      1.0  0.63612  0.75726  0.09477  1.0000
  H   H989      1.0  0.59113  0.72703  0.12085  1.0000
  H   H990      1.0  0.58838  0.72900  0.17586  1.0000
  H   H991      1.0  0.63022  0.76074  0.20502  1.0000
  H   H992      1.0  0.63650  0.92164  0.04039  1.0000
  C   C1254     1.0  0.64878  0.79418  0.42847  1.0000
  Fe  Fe87      1.0  0.59918  0.66632  0.31408  1.0000
  H   H993      1.0  0.90905  0.66274  0.46518  1.0000
  H   H994      1.0  0.64532  0.89990  0.08374  1.0000
  H   H995      1.0  0.94171  0.79184  0.10908  1.0000
  H   H996      1.0  0.90532  0.79474  0.13946  1.0000
  H   H997      1.0  0.69227  0.87657  0.15294  1.0000
  H   H998      1.0  0.70571  0.78990  0.45205  1.0000
  S   S174      1.0  0.72502  0.95867  0.00832  1.0000
  C   C1255     1.0  0.47994  0.98377  0.26696  1.0000
  C   C1256     1.0  0.65079  0.93079  0.46306  1.0000
  H   H999      1.0  0.92987  0.74806  0.08150  1.0000
  H   H1000     1.0  0.63746  0.80514  0.43372  1.0000
  H   H1001     1.0  0.62992  0.80842  0.11079  1.0000
  C   C1257     1.0  0.70107  0.87731  0.43378  1.0000
  C   C1258     1.0  0.67798  0.83703  0.07631  1.0000
  C   C1259     1.0  0.76821  0.90253  0.02092  1.0000
  C   C1260     1.0  0.91423  0.74920  0.09539  1.0000
  H   H1002     1.0  0.92203  0.78408  0.03621  1.0000
  H   H1003     1.0  0.77941  0.83012  0.10737  1.0000
  H   H1004     1.0  0.70875  0.94560  0.17379  1.0000
  H   H1005     1.0  0.68585  0.86777  0.49965  1.0000
  C   C1261     1.0  0.55025  0.79854  0.41372  1.0000
  H   H1006     1.0  0.77473  0.94757  0.14419  1.0000
  H   H1007     1.0  0.58686  0.79988  0.35233  1.0000
  H   H1008     1.0  0.60154  0.72315  0.42510  1.0000
  H   H1009     1.0  0.61406  0.73674  0.32974  1.0000
  C   C1262     1.0  0.75546  0.93176  0.13407  1.0000
  C   C1263     1.0  0.64669  0.90912  0.03730  1.0000
  H   H1010     1.0  0.78945  0.75945  0.10186  1.0000
  C   C1264     1.0  0.80025  0.67863  0.06231  1.0000
  S   S175      1.0  0.76720  0.76689  0.48800  1.0000
  C   C1265     1.0  0.92817  0.72147  0.22728  1.0000
  C   C1266     1.0  0.62271  0.75872  0.32378  1.0000
  C   C1267     1.0  0.85234  0.76514  0.03477  1.0000
  H   H1011     1.0  0.64515  0.77886  0.03213  1.0000
  C   C1268     1.0  0.86607  0.72784  0.11311  1.0000
  C   C1269     1.0  0.67218  0.79931  0.44563  1.0000
  C   C1270     1.0  0.70716  0.81557  0.06834  1.0000
  H   H1012     1.0  0.55063  0.77999  0.45597  1.0000
  C   C1271     1.0  0.94125  0.68117  0.10385  1.0000
  C   C1272     1.0  0.87314  0.75250  0.12924  1.0000
  Fe  Fe88      1.0  0.76897  0.97043  0.02106  1.0000
  C   C1273     1.0  0.89974  0.77109  0.03277  1.0000
  H   H1013     1.0  0.72537  0.91155  0.06583  1.0000
  C   C1274     1.0  0.58553  0.73047  0.38393  1.0000
  C   C1275     1.0  0.58979  0.78304  0.39529  1.0000
  S   S176      1.0  0.91017  0.72716  0.01857  1.0000
  C   C1276     1.0  0.89863  0.66943  0.13088  1.0000
  H   H1014     1.0  0.61816  0.87832  0.17038  1.0000
  H   H1015     1.0  0.85763  0.75418  0.14270  1.0000
  C   C1277     1.0  0.88699  0.72638  0.09635  1.0000
  C   C1278     1.0  0.65758  0.65330  0.49959  1.0000
  C   C1279     1.0  0.58021  0.79631  0.37537  1.0000
  C   C1280     1.0  0.74936  0.91453  0.43177  1.0000
  H   H1016     1.0  0.76922  0.94657  0.08933  1.0000
  S   S177      1.0  0.55722  0.66260  0.30305  1.0000
  C   C1281     1.0  0.55930  0.78496  0.43363  1.0000
  C   C1282     1.0  0.62056  0.86307  0.15704  1.0000
  H   H1017     1.0  0.68561  0.85562  0.42970  1.0000
  C   C1283     1.0  0.75598  0.84517  0.13265  1.0000
  H   H1018     1.0  0.93158  0.70465  0.23527  1.0000
  C   C1284     1.0  0.54198  0.95927  0.30990  1.0000
  H   H1019     1.0  0.68951  0.77840  0.04110  1.0000
  C   C1285     1.0  0.68609  0.79451  0.05118  1.0000
  H   H1020     1.0  0.59308  0.79246  0.14908  1.0000
  H   H1021     1.0  0.87602  0.65765  0.13260  1.0000
  C   C1286     1.0  0.88147  0.78181  0.03884  1.0000
  C   C1287     1.0  0.56526  0.68568  0.41014  1.0000
  P   P43       1.0  0.96452  0.72786  0.18038  1.0000
  C   C1288     1.0  0.94175  0.73672  0.20138  1.0000
  C   C1289     1.0  0.91443  0.68774  0.15379  1.0000
  C   C1290     1.0  0.73371  0.91196  0.15185  1.0000
  H   H1022     1.0  0.71161  0.95210  0.38646  1.0000
  C   C1291     1.0  0.60652  0.81478  0.14504  1.0000
  S   S178      1.0  0.78428  0.93885  0.03052  1.0000
  C   C1292     1.0  0.76468  0.72525  0.13210  1.0000
  H   H1023     1.0  0.53484  0.80435  0.42060  1.0000
  H   H1024     1.0  0.73520  0.87199  0.41756  1.0000
  H   H1025     1.0  0.58676  0.82721  0.17888  1.0000
  C   C1293     1.0  0.70875  0.89180  0.13871  1.0000
  H   H1026     1.0  0.60273  0.83122  0.46289  1.0000
  S   S179      1.0  0.68810  0.97320  0.07562  1.0000
  C   C1294     1.0  0.66121  0.98177  0.39804  1.0000
  H   H1027     1.0  0.86645  0.72733  0.46418  1.0000
  H   H1028     1.0  0.72684  0.81574  0.07122  1.0000
  H   H1029     1.0  0.63776  0.81623  0.05414  1.0000
  H   H1030     1.0  0.62774  0.93874  0.16478  1.0000
  C   C1295     1.0  0.68472  0.68123  0.14171  1.0000
  C   C1296     1.0  0.87098  0.73933  0.48456  1.0000
  C   C1297     1.0  0.62751  0.82399  0.12319  1.0000
  C   C1298     1.0  0.91204  0.66629  0.10581  1.0000
  H   H1031     1.0  0.74843  0.73095  0.13479  1.0000
  C   C1299     1.0  0.64513  0.85289  0.11791  1.0000
  C   C1300     1.0  0.72911  0.88657  0.42667  1.0000
  C   C1301     1.0  0.96481  0.65305  0.47842  1.0000
  C   C1302     1.0  0.72727  0.91142  0.08990  1.0000
  C   C1303     1.0  0.65474  0.95389  0.12581  1.0000
  C   C1304     1.0  0.75229  0.93134  0.10315  1.0000
  H   H1032     1.0  0.88995  0.80310  0.04691  1.0000
  H   H1033     1.0  0.84415  0.98147  0.48307  1.0000
  H   H1034     1.0  0.79582  0.89521  0.04911  1.0000
  H   H1035     1.0  0.88249  0.70810  0.08324  1.0000
  C   C1305     1.0  0.90457  0.74881  0.23281  1.0000
  C   C1306     1.0  0.88894  0.74324  0.02335  1.0000
  C   C1307     1.0  0.76767  0.85739  0.02522  1.0000
  H   H1036     1.0  0.56617  0.67286  0.42810  1.0000
  C   C1308     1.0  0.65189  0.89675  0.06207  1.0000
  C   C1309     1.0  0.70326  0.83690  0.08069  1.0000
  H   H1037     1.0  0.73602  0.91252  0.17585  1.0000
  P   P44       1.0  0.67314  0.86535  0.09047  1.0000
  H   H1038     1.0  0.67871  0.81379  0.46421  1.0000
  C   C1310     1.0  0.65299  0.90912  0.47749  1.0000
  C   C1311     1.0  0.70519  0.89161  0.10763  1.0000
  H   H1039     1.0  0.63952  0.95614  0.11249  1.0000
  H   H1040     1.0  0.64965  0.71786  0.13932  1.0000
  C   C1312     1.0  0.68091  0.96080  0.11321  1.0000
  H   H1041     1.0  0.90369  0.68979  0.17300  1.0000
  C   C1313     1.0  0.91754  0.76369  0.20676  1.0000
  S   S180      1.0  0.70505  0.73173  0.01418  1.0000
  H   H1042     1.0  0.68753  0.86861  0.02672  1.0000
  C   C1314     1.0  0.82080  0.67829  0.08080  1.0000
  H   H1043     1.0  0.89044  0.75367  0.24511  1.0000
  H   H1044     1.0  0.72050  0.96289  0.12141  1.0000
  H   H1045     1.0  0.54501  0.94353  0.29833  1.0000
  C   C1315     1.0  0.95702  0.69953  0.12665  1.0000
  C   C1316     1.0  0.83072  0.67571  0.14535  1.0000
  H   H1046     1.0  0.86102  0.71007  0.17245  1.0000
  H   H1047     1.0  0.50519  0.95045  0.28504  1.0000
  H   H1048     1.0  0.78015  0.67471  0.15335  1.0000
  H   H1049     1.0  0.95391  0.67165  0.44208  1.0000
  C   C1317     1.0  0.48038  0.89187  0.27722  1.0000
  C   C1318     1.0  0.51526  0.98354  0.31696  1.0000
  C   C1319     1.0  0.84758  0.68755  0.17064  1.0000
  C   C1320     1.0  0.89734  0.74942  0.49816  1.0000
  Fe  Fe89      1.0  0.96556  0.75272  0.49992  1.0000
  Fe  Fe90      1.0  0.60620  0.65205  0.24902  1.0000
  C   C1321     1.0  0.74615  0.84527  0.00415  1.0000
  H   H1050     1.0  0.84858  0.66099  0.08631  1.0000
  Fe  Fe91      1.0  0.74131  0.77604  0.01036  1.0000
  H   H1051     1.0  0.77714  0.66440  0.02124  1.0000
  H   H1052     1.0  0.57811  0.97241  0.33797  1.0000
  C   C1322     1.0  0.85042  0.74474  0.49703  1.0000
  C   C1323     1.0  0.65552  0.90627  0.00891  1.0000
  H   H1053     1.0  0.96600  0.75718  0.12491  1.0000
  C   C1324     1.0  0.66994  0.89135  0.00530  1.0000
  C   C1325     1.0  0.66462  0.85052  0.49788  1.0000
  H   H1054     1.0  0.84128  0.83458  0.02193  1.0000
  H   H1055     1.0  0.69861  0.67445  0.39082  1.0000
  H   H1056     1.0  0.66101  0.66865  0.35556  1.0000
  H   H1057     1.0  0.86006  0.67953  0.21351  1.0000
  H   H1058     1.0  0.85129  0.70523  0.01171  1.0000
  H   H1059     1.0  0.89991  0.65228  0.08790  1.0000
  H   H1060     1.0  0.73827  0.90684  0.50067  1.0000
  C   C1326     1.0  0.63419  0.65684  0.49607  1.0000
  C   C1327     1.0  0.92224  0.65605  0.47654  1.0000
  H   H1061     1.0  0.66223  0.96842  0.00328  1.0000
  H   H1062     1.0  0.62428  0.65333  0.47441  1.0000
  H   H1063     1.0  0.52853  0.65166  0.39004  1.0000
  H   H1064     1.0  0.68057  0.65248  0.00297  1.0000
  H   H1065     1.0  0.63405  0.72695  0.53312  1.0000
  C   C1328     1.0  0.95518  0.68362  0.86623  1.0000
  C   C1329     1.0  0.76647  0.75703  0.88855  1.0000
  C   C1330     1.0  0.93555  0.76640  0.60716  1.0000
  C   C1331     1.0  0.86158  0.66117  0.63833  1.0000
  H   H1066     1.0  0.73060  0.72471  0.86540  1.0000
  H   H1067     1.0  0.65343  0.89120  0.52068  1.0000
  C   C1332     1.0  0.89003  0.68697  0.53183  1.0000
  S   S181      1.0  0.97252  0.71703  0.51453  1.0000
  S   S182      1.0  0.72925  0.68419  0.96104  1.0000
  H   H1068     1.0  0.62232  0.78644  0.52903  1.0000
  H   H1069     1.0  0.80858  0.65613  0.64515  1.0000
  S   S183      1.0  0.75667  0.93416  0.55913  1.0000
  H   H1070     1.0  0.84302  0.70579  0.81698  1.0000
  C   C1333     1.0  0.88244  0.77060  0.53679  1.0000
  C   C1334     1.0  0.86749  0.85395  0.84122  1.0000
  H   H1071     1.0  0.67762  0.88991  0.98344  1.0000
  Fe  Fe92      1.0  0.73060  0.72765  0.56179  1.0000
  S   S184      1.0  0.76602  0.77246  0.56012  1.0000
  S   S185      1.0  0.71621  0.71272  0.61008  1.0000
  C   C1335     1.0  0.84233  0.73496  0.94699  1.0000
  H   H1072     1.0  0.86897  0.84747  0.91649  1.0000
  H   H1073     1.0  0.75742  0.84421  0.56542  1.0000
  C   C1336     1.0  0.74323  0.84902  0.52221  1.0000
  H   H1074     1.0  0.76759  0.66299  0.64993  1.0000
  C   C1337     1.0  0.73796  0.86706  0.50417  1.0000
  H   H1075     1.0  0.71858  0.85262  0.97593  1.0000
  C   C1338     1.0  0.75193  0.90181  0.54396  1.0000
  C   C1339     1.0  0.96574  0.69182  0.89547  1.0000
  C   C1340     1.0  0.75319  0.85771  0.55119  1.0000
  C   C1341     1.0  0.75732  0.88382  0.56200  1.0000
  C   C1342     1.0  0.59103  0.67688  0.57389  1.0000
  H   H1076     1.0  0.97056  0.71230  0.90375  1.0000
  C   C1343     1.0  0.70592  0.68158  0.63164  1.0000
  C   C1344     1.0  0.70226  0.68248  0.66267  1.0000
  C   C1345     1.0  0.64887  0.73788  0.55081  1.0000
  H   H1077     1.0  0.70632  0.70207  0.67284  1.0000
  C   C1346     1.0  0.67783  0.67159  0.88911  1.0000
  C   C1347     1.0  0.69294  0.65819  0.68067  1.0000
  H   H1078     1.0  0.79837  0.70490  0.95186  1.0000
  C   C1348     1.0  0.71130  0.67338  0.92613  1.0000
  C   C1349     1.0  0.69214  0.68162  0.91650  1.0000
  H   H1079     1.0  0.68831  0.69569  0.93015  1.0000
  C   C1350     1.0  0.95435  0.67648  0.60535  1.0000
  C   C1351     1.0  0.62615  0.67121  0.66817  1.0000
  C   C1352     1.0  0.78740  0.70329  0.62806  1.0000
  C   C1353     1.0  0.82817  0.85961  0.99651  1.0000
  C   C1354     1.0  0.71921  0.74919  0.89386  1.0000
  H   H1080     1.0  0.81990  0.97981  0.57438  1.0000
  H   H1081     1.0  0.78070  0.75087  0.87875  1.0000
  P   P45       1.0  0.62706  0.68555  0.57828  1.0000
  H   H1082     1.0  0.71389  0.77592  0.92550  1.0000
  C   C1355     1.0  0.82427  0.81420  0.85885  1.0000
  H   H1083     1.0  0.69005  0.65726  0.52942  1.0000
  H   H1084     1.0  0.82393  0.70170  0.86796  1.0000
  S   S186      1.0  0.73553  0.81547  0.50769  1.0000
  H   H1085     1.0  0.73777  0.90263  0.99079  1.0000
  H   H1086     1.0  0.67308  0.67356  0.57181  1.0000
  Fe  Fe93      1.0  0.74430  0.77954  0.52119  1.0000
  P   P46       1.0  0.81309  0.79800  0.91918  1.0000
  C   C1356     1.0  0.81929  0.82211  0.94961  1.0000
  C   C1357     1.0  0.85613  0.65967  0.66916  1.0000
  C   C1358     1.0  0.83394  0.83759  0.00052  1.0000
  H   H1087     1.0  0.80934  0.95940  0.52383  1.0000
  H   H1088     1.0  0.76891  0.70572  0.62916  1.0000
  C   C1359     1.0  0.78192  0.67074  0.85578  1.0000
  H   H1089     1.0  0.83301  0.82710  0.81278  1.0000
  C   C1360     1.0  0.86092  0.84256  0.89394  1.0000
  H   H1090     1.0  0.82265  0.73200  0.78434  1.0000
  C   C1361     1.0  0.82964  0.81895  0.97717  1.0000
  C   C1362     1.0  0.82448  0.77300  0.92915  1.0000
  C   C1363     1.0  0.80485  0.74508  0.93676  1.0000
  H   H1091     1.0  0.76616  0.66977  0.73013  1.0000
  C   C1364     1.0  0.64475  0.94803  0.51070  1.0000
  S   S187      1.0  0.83152  0.76903  0.53952  1.0000
  C   C1365     1.0  0.85318  0.78164  0.93085  1.0000
  H   H1092     1.0  0.62523  0.70244  0.63977  1.0000
  H   H1093     1.0  0.83378  0.80177  0.98111  1.0000
  C   C1366     1.0  0.66158  0.66817  0.55104  1.0000
  C   C1367     1.0  0.88899  0.68871  0.56283  1.0000
  H   H1094     1.0  0.89806  0.87724  0.87503  1.0000
  C   C1368     1.0  0.89962  0.67606  0.76745  1.0000
  H   H1095     1.0  0.78258  0.73777  0.93663  1.0000
  Fe  Fe94      1.0  0.73424  0.71735  0.99584  1.0000
  C   C1369     1.0  0.90289  0.76497  0.52448  1.0000
  C   C1370     1.0  0.62876  0.80470  0.51482  1.0000
  H   H1096     1.0  0.86881  0.80312  0.92598  1.0000
  H   H1097     1.0  0.66321  0.67827  0.88182  1.0000
  C   C1371     1.0  0.64995  0.72315  0.57607  1.0000
  C   C1372     1.0  0.87686  0.65901  0.78579  1.0000
  C   C1373     1.0  0.81837  0.86322  0.96902  1.0000
  C   C1374     1.0  0.81430  0.84480  0.94552  1.0000
  C   C1375     1.0  0.75694  0.78587  0.92233  1.0000
  Fe  Fe95      1.0  0.75428  0.97159  0.53849  1.0000
  C   C1376     1.0  0.81376  0.72619  0.94555  1.0000
  C   C1377     1.0  0.84949  0.67787  0.76265  1.0000
  C   C1378     1.0  0.53448  0.66235  0.56891  1.0000
  C   C1379     1.0  0.87750  0.85957  0.87047  1.0000
  H   H1098     1.0  0.92306  0.77295  0.53511  1.0000
  C   C1380     1.0  0.89737  0.69382  0.74648  1.0000
  C   C1381     1.0  0.87245  0.69487  0.74415  1.0000
  C   C1382     1.0  0.84096  0.67343  0.52873  1.0000
  H   H1099     1.0  0.65576  0.97424  0.94928  1.0000
  H   H1100     1.0  0.77351  0.66890  0.87810  1.0000
  C   C1383     1.0  0.81027  0.68923  0.85001  1.0000
  C   C1384     1.0  0.82098  0.69151  0.82111  1.0000
  C   C1385     1.0  0.82347  0.71161  0.74315  1.0000
  C   C1386     1.0  0.82504  0.73380  0.76036  1.0000
  C   C1387     1.0  0.82930  0.75863  0.74656  1.0000
  C   C1388     1.0  0.83196  0.76147  0.71553  1.0000
  C   C1389     1.0  0.83039  0.73949  0.69826  1.0000
  C   C1390     1.0  0.82608  0.71464  0.71196  1.0000
  H   H1101     1.0  0.66819  0.77756  0.52720  1.0000
  S   S188      1.0  0.71570  0.97280  0.52288  1.0000
  Fe  Fe96      1.0  0.78606  0.75622  0.52737  1.0000
  C   C1391     1.0  0.97040  0.67367  0.91370  1.0000
  C   C1392     1.0  0.85185  0.65977  0.78334  1.0000
  C   C1393     1.0  0.73526  0.86175  0.99217  1.0000
  C   C1394     1.0  0.86609  0.67939  0.51476  1.0000
  H   H1102     1.0  0.70348  0.65497  0.59513  1.0000
  H   H1103     1.0  0.91498  0.70677  0.73206  1.0000
  H   H1104     1.0  0.87132  0.70896  0.72796  1.0000
  H   H1105     1.0  0.81338  0.88000  0.96615  1.0000
  H   H1106     1.0  0.62571  0.68155  0.68860  1.0000
  C   C1395     1.0  0.77628  0.77930  0.90910  1.0000
  H   H1107     1.0  0.97460  0.78228  0.63073  1.0000
  H   H1108     1.0  0.69717  0.73736  0.88825  1.0000
  C   C1396     1.0  0.77500  0.65675  0.80385  1.0000
  H   H1109     1.0  0.83027  0.77559  0.75990  1.0000
  H   H1110     1.0  0.83501  0.78060  0.70481  1.0000
  H   H1111     1.0  0.83224  0.74164  0.67420  1.0000
  H   H1112     1.0  0.82457  0.69771  0.69819  1.0000
  H   H1113     1.0  0.85232  0.67523  0.67979  1.0000
  H   H1114     1.0  0.94364  0.78365  0.59128  1.0000
  C   C1397     1.0  0.74606  0.89013  0.00061  1.0000
  H   H1115     1.0  0.96595  0.67767  0.74674  1.0000
  C   C1398     1.0  0.84089  0.83129  0.83543  1.0000
  C   C1399     1.0  0.96274  0.67316  0.66677  1.0000
  H   H1116     1.0  0.80650  0.84778  0.92441  1.0000
  H   H1117     1.0  0.95191  0.69796  0.85231  1.0000
  H   H1118     1.0  0.97224  0.72345  0.76437  1.0000
  H   H1119     1.0  0.80369  0.79711  0.85367  1.0000
  C   C1400     1.0  0.95297  0.76568  0.62942  1.0000
  S   S189      1.0  0.75122  0.71134  0.53029  1.0000
  C   C1401     1.0  0.83412  0.81969  0.88837  1.0000
  H   H1120     1.0  0.90975  0.69276  0.52086  1.0000
  H   H1121     1.0  0.76468  0.89008  0.58457  1.0000
  C   C1402     1.0  0.82921  0.97821  0.52808  1.0000
  P   P47       1.0  0.81713  0.67896  0.76033  1.0000
  C   C1403     1.0  0.66798  0.76658  0.54745  1.0000
  C   C1404     1.0  0.86202  0.76269  0.93979  1.0000
  C   C1405     1.0  0.64698  0.92657  0.52527  1.0000
  H   H1122     1.0  0.64614  0.92534  0.54943  1.0000
  H   H1123     1.0  0.70360  0.80275  0.56624  1.0000
  C   C1406     1.0  0.65629  0.82689  0.51604  1.0000
  C   C1407     1.0  0.58279  0.69717  0.57869  1.0000
  H   H1124     1.0  0.67132  0.82601  0.53114  1.0000
  H   H1125     1.0  0.67289  0.72656  0.61668  1.0000
  C   C1408     1.0  0.83533  0.72057  0.61192  1.0000
  C   C1409     1.0  0.81163  0.72384  0.61397  1.0000
  C   C1410     1.0  0.68948  0.76624  0.59442  1.0000
  P   P48       1.0  0.86408  0.69027  0.61647  1.0000
  H   H1126     1.0  0.95086  0.67755  0.58174  1.0000
  H   H1127     1.0  0.88714  0.78303  0.55688  1.0000
  S   S190      1.0  0.76897  0.76160  0.98854  1.0000
  H   H1128     1.0  0.81180  0.74199  0.60376  1.0000
  S   S191      1.0  0.73285  0.81008  0.99134  1.0000
  C   C1411     1.0  0.78674  0.67924  0.63978  1.0000
  H   H1129     1.0  0.64213  0.96336  0.52356  1.0000
  C   C1412     1.0  0.72860  0.77089  0.91472  1.0000
  H   H1130     1.0  0.54834  0.70562  0.57987  1.0000
  C   C1413     1.0  0.68820  0.78076  0.56932  1.0000
  C   C1414     1.0  0.67052  0.73753  0.59777  1.0000
  H   H1131     1.0  0.88418  0.76960  0.94174  1.0000
  C   C1415     1.0  0.89773  0.72103  0.62394  1.0000
  C   C1416     1.0  0.90816  0.74417  0.60433  1.0000
  C   C1417     1.0  0.94288  0.74286  0.64909  1.0000
  C   C1418     1.0  0.91545  0.72061  0.64640  1.0000
  H   H1132     1.0  0.85323  0.73632  0.59976  1.0000
  C   C1419     1.0  0.70058  0.65605  0.61887  1.0000
  H   H1133     1.0  0.51263  0.65672  0.56705  1.0000
  H   H1134     1.0  0.88028  0.86726  0.82308  1.0000
  H   H1135     1.0  0.76321  0.80194  0.93919  1.0000
  C   C1420     1.0  0.55461  0.68992  0.57605  1.0000
  C   C1421     1.0  0.76440  0.65440  0.83272  1.0000
  C   C1422     1.0  0.63770  0.67113  0.54797  1.0000
  C   C1423     1.0  0.97373  0.70076  0.62037  1.0000
  H   H1136     1.0  0.91890  0.67521  0.76946  1.0000
  C   C1424     1.0  0.65127  0.90727  0.50879  1.0000
  H   H1137     1.0  0.70593  0.77694  0.61075  1.0000
  H   H1138     1.0  0.89579  0.74436  0.58566  1.0000
  C   C1425     1.0  0.62785  0.67036  0.61394  1.0000
  H   H1139     1.0  0.90892  0.70270  0.66104  1.0000
  C   C1426     1.0  0.62620  0.68312  0.64047  1.0000
  H   H1140     1.0  0.59799  0.71846  0.58488  1.0000
  H   H1141     1.0  0.95683  0.74183  0.66551  1.0000
  C   C1427     1.0  0.73811  0.74215  0.88090  1.0000
  C   C1428     1.0  0.83506  0.69658  0.62386  1.0000
  C   C1429     1.0  0.85611  0.76061  0.52315  1.0000
  C   C1430     1.0  0.83985  0.67540  0.55977  1.0000
  C   C1431     1.0  0.67130  0.65902  0.52704  1.0000
  H   H1142     1.0  0.65199  0.91635  0.98984  1.0000
  C   C1432     1.0  0.80330  0.67553  0.79771  1.0000
  S   S192      1.0  0.70707  0.73569  0.52485  1.0000
  H   H1143     1.0  0.84929  0.72048  0.95434  1.0000
  C   C1433     1.0  0.74249  0.89333  0.51482  1.0000
  H   H1144     1.0  0.57709  0.97606  0.75306  1.0000
  C   C1434     1.0  0.71546  0.65458  0.90824  1.0000
  H   H1145     1.0  0.68983  0.65924  0.70438  1.0000
  H   H1146     1.0  0.82036  0.67151  0.56997  1.0000
  H   H1147     1.0  0.90803  0.69527  0.57552  1.0000
  C   C1435     1.0  0.62441  0.66599  0.52007  1.0000
  C   C1436     1.0  0.68212  0.65286  0.87117  1.0000
  H   H1148     1.0  0.60695  0.66963  0.51654  1.0000
  H   H1149     1.0  0.96635  0.67205  0.69031  1.0000
  C   C1437     1.0  0.86400  0.68349  0.57702  1.0000
  C   C1438     1.0  0.81026  0.67565  0.63733  1.0000
  H   H1150     1.0  0.82263  0.66839  0.51539  1.0000
  H   H1151     1.0  0.53446  0.97300  0.73004  1.0000
  C   C1439     1.0  0.94869  0.65705  0.85488  1.0000
  H   H1152     1.0  0.49614  0.96470  0.79144  1.0000
  C   C1440     1.0  0.76937  0.65215  0.72513  1.0000
