data_image0
_chemical_formula_structural       HSCHC2SH2FeS2FeS2CSHCH4C7H5PC2PHCHCHC3H2C2H2C3HC2PCH2C6FeCHC5HC2HC2FeC2HCHCH5C7PC9H2C7H5CFeH5C2H6CS2CFeHSCHC3SHCHC2H4FeSH7CH2CHC3H2CH3C3FeHC2HC4H2SH2CHC4SFeS2FeSFeS2CSC2H3C7H6SCH3C2HC5HCHSCHCHFeHCHSCFeCHC3FeH3CHCFeC2SH2CHCH4C4H3CH2PSFeCH4SC2HC2HCHCHC2HCH2CHCH3C2H2C2H2C5H2C2H2C4HC8PCH2CHCH3C3HS3C4H2CH3CSH2CFeC2FeSC2HS2C8H4SH3FeCH3CH4C2SHC2HCFeC4PC4H2C9HC2SC2H5C2H7CH6SC2HCH3PCHCH4C2HC3HCHCH4C4SC2HCHC2HC2FeCHCH3C3H3C2S2FeS2HSH2CH2PC6H4C2H2FeHCHFeCHCHCH6CHSH2CH2CPCHC4HC3HC3H2CSCHC6HC3HCH3CH2CHCHC4H5CSH2CH2CHC2H2CHC2HPC18H3S2HCHCH2CHC2HC2FeS2FeS2FeSFeS5HSFeS2FeS2FeSFeS4HC6H4FeC2H2C6H4C6H4C6H4C6H4C4HCSC4PC3H2C7H2C2HCHFeC2H3CH5CH2CHFeCSH2CPH2C4HCH2C7H4C2HCHC2HC4H2C2HCH3CHCH2CH2C2H2PC2HCH2C2HSCHCHC6H2C3HS2C2HC2H2C7PC4HC12H18FeH2C2H2C2HC2PHCH2CHC4HC3H2C2H2CHCH3C2HCH2CHPCHC6H3C2H2CHC3HCHCH2C3HC2HCHC2FeS2FeS2FeSFeS4HFeS2FeS2FeSFeS3H2C6HCH2C6H4CH4C6H4C6H4C6H5CH2C7PC7HC2H4CH4C11H2C2H5C2HCH3C3HPH3CH3CH3C4SCH4C2H4CHC3H2FeC6H2C2H2CHC2HCPC5HCH3C2H2CH2SCHCH3CFeHSCH3C2FeC2HC2HPC3SCH2C6H2CH4C2HCHCHC5H3C8SCH2C4H3CPHCH4CH2CHC4HC2HC2SHC4HC6HC3H3CH2PC3H2CH3CH2C2H3CH2FeC4H4CHFeS2FeS2FeSFeS3C2FeS2FeS2FeSFeS3CSC6H4C3H2C6H4C6H4C3H2C6H4C6H5C7PC18HSCH18CH4CFeHC3HSCHCH2C2H2CH4CFeSC5H4C2H2CHCH5C4H2CH2C3H2C2HC2PHCHC2HC3HC4H2CH3C3H3SC3HCHC5H2CHC4H2C3HC3HC2HCPHCHC4HCHPH2C4HCFeHCHCH2C2HCHC2H2C4H4C2HCH4CHCH2CHCH4C2H3PHCFeC2HC7H4C2SHSHFeS2FeS2FeSFeS3FeS2FeS2FeSFeS5C6H4C6H4C4HC6H4C3H2C6H4C6H4C2H6CHC3HC3H2C2HC4HC2H3C3HCH2CHCHCHCFeHCH4C3HC2HCHC3HCHCH2C2H2C2HPCSC4SC7HC3H4C2HPH7CHC2H2CH2C3HC2H5C3HCHC2HC7H3CHCSCHC2HC3H2C3H3C4PCH4C2H2C3H2CHC3HCHCH4FeCHCH2C7H3FeH2PCH3CHCP2C2HCH2C2HC3H2C2HCPCHC4HCHCHCHCHCHCH2C2H2CHC8FeH3C3HCSHC5HCSHCH2CFeSCSHC2HSFeS2FeS2HSHFeCH3C7H6CH3C4H2SH4C4FeHC3H2C2HCPHC4H3SH7CHC2PC9HC13H7C2H3FeH2C2SCH2CHCH2FeSC2HCHCHC3H2C2HC3HC2H4CH2CFeSCHC2PHC8HC4HCHC4HC2HCHPH2CSFeS2HSFeS2C2PH2CH2C6H4C2SC3H3C3FeCHSHC2FeCHCH2CFeSHC2HCH3CFeHCH3C6PC9HC8H5CH4C2HCH6CSCS2H2CFeHSHCFeCHCH2SC3H2CH2CH2CHCSH2C2H2FeS2H2PCH2C4SCSHCHC3HSH3CH2PC6H5CHCHC2HCSHCHC7HC5PC2HCSFeC13H3CHCHCH8CH2PC8H4CH3CHCHFeHC3SC2HC2H7C3H2CH2C4HC2S2H2CH2C2HC2H3C3H2C3FeSCFeS2CSCH3CHC6H4FeHCHCHCH2C3FeH2CH2C3HC4HSCH2CHCHCHCH2CHCH2C2HCHC2SHCHC6PHCH2PH2CH2C8H2CH3CHPCHCHCH3C3H2CSCHC3HC3HC2H2C3HCH2CSH2C3SHCHC2H3SCFeCHCHC3H2CH2C2SCSH3
_chemical_formula_sum              "H1152 S192 C1440 Fe96 P48"
_cell_length_a       52.6492
_cell_length_b       52.489
_cell_length_c       52.6367
_cell_angle_alpha    90.109
_cell_angle_beta     90.1221
_cell_angle_gamma    90.05

_space_group_name_H-M_alt    "P 1"
_space_group_IT_number       1

loop_
  _space_group_symop_operation_xyz
  'x, y, z'

loop_
  _atom_site_type_symbol
  _atom_site_label
  _atom_site_symmetry_multiplicity
  _atom_site_fract_x
  _atom_site_fract_y
  _atom_site_fract_z
  _atom_site_occupancy
  H   H1        1.0  0.28679  0.11102  0.40241  1.0000
  S   S1        1.0  0.27847  0.44597  0.09745  1.0000
  C   C1        1.0  0.02586  0.47074  0.40117  1.0000
  H   H2        1.0  0.26602  0.32422  0.02841  1.0000
  C   C2        1.0  0.98484  0.40450  0.35708  1.0000
  C   C3        1.0  0.00968  0.45882  0.29353  1.0000
  S   S2        1.0  0.08987  0.33097  0.46911  1.0000
  H   H3        1.0  0.27558  0.18266  0.35882  1.0000
  H   H4        1.0  0.00440  0.37505  0.37729  1.0000
  Fe  Fe1       1.0  0.12922  0.45239  0.33037  1.0000
  S   S3        1.0  0.15055  0.42965  0.36023  1.0000
  S   S4        1.0  0.11610  0.43956  0.29165  1.0000
  Fe  Fe2       1.0  0.11234  0.31060  0.43934  1.0000
  S   S5        1.0  0.09855  0.27155  0.45077  1.0000
  S   S6        1.0  0.10809  0.32283  0.39813  1.0000
  C   C4        1.0  0.22745  0.47169  0.18927  1.0000
  S   S7        1.0  0.09232  0.47115  0.34032  1.0000
  H   H5        1.0  0.99844  0.33205  0.35732  1.0000
  C   C5        1.0  0.19574  0.16692  0.46888  1.0000
  H   H6        1.0  0.20776  0.12691  0.41470  1.0000
  H   H7        1.0  0.12199  0.45483  0.41625  1.0000
  H   H8        1.0  0.02709  0.39887  0.45183  1.0000
  H   H9        1.0  0.11101  0.38594  0.47932  1.0000
  C   C6        1.0  0.28657  0.19311  0.45696  1.0000
  C   C7        1.0  0.13939  0.39940  0.36984  1.0000
  C   C8        1.0  0.14948  0.38816  0.39186  1.0000
  C   C9        1.0  0.13997  0.36478  0.40085  1.0000
  C   C10       1.0  0.12085  0.35206  0.38738  1.0000
  C   C11       1.0  0.11154  0.36278  0.36477  1.0000
  C   C12       1.0  0.12043  0.38658  0.35625  1.0000
  H   H10       1.0  0.16421  0.39791  0.40244  1.0000
  H   H11       1.0  0.14742  0.35662  0.41819  1.0000
  H   H12       1.0  0.09700  0.35287  0.35408  1.0000
  H   H13       1.0  0.11270  0.39497  0.33913  1.0000
  H   H14       1.0  0.29813  0.11610  0.21463  1.0000
  P   P1        1.0  0.26432  0.20219  0.40963  1.0000
  C   C13       1.0  0.11272  0.40148  0.46595  1.0000
  C   C14       1.0  0.11839  0.44085  0.43085  1.0000
  P   P2        1.0  0.02545  0.44941  0.42815  1.0000
  H   H15       1.0  0.06443  0.39047  0.36573  1.0000
  C   C15       1.0  0.06885  0.44442  0.23494  1.0000
  H   H16       1.0  0.19010  0.14896  0.46048  1.0000
  C   C16       1.0  0.05455  0.37117  0.40040  1.0000
  H   H17       1.0  0.05292  0.45682  0.23912  1.0000
  C   C17       1.0  0.19347  0.24979  0.38911  1.0000
  C   C18       1.0  0.20460  0.46519  0.22976  1.0000
  C   C19       1.0  0.22636  0.46186  0.21420  1.0000
  H   H18       1.0  0.05081  0.41130  0.25075  1.0000
  H   H19       1.0  0.24245  0.45133  0.22147  1.0000
  C   C20       1.0  0.99335  0.44427  0.43946  1.0000
  C   C21       1.0  0.10401  0.39835  0.44113  1.0000
  H   H20       1.0  0.10096  0.41529  0.40411  1.0000
  H   H21       1.0  0.24829  0.22864  0.36257  1.0000
  C   C22       1.0  0.17755  0.45969  0.42549  1.0000
  C   C23       1.0  0.30594  0.37713  0.00136  1.0000
  C   C24       1.0  0.27148  0.12463  0.40471  1.0000
  H   H22       1.0  0.31291  0.15403  0.23874  1.0000
  C   C25       1.0  0.05973  0.44733  0.46897  1.0000
  C   C26       1.0  0.04790  0.41617  0.39297  1.0000
  P   P3        1.0  0.14407  0.47322  0.46458  1.0000
  C   C27       1.0  0.19578  0.46494  0.40695  1.0000
  H   H23       1.0  0.99442  0.31203  0.43671  1.0000
  H   H24       1.0  0.16325  0.43334  0.14197  1.0000
  C   C28       1.0  0.99410  0.32533  0.39769  1.0000
  C   C29       1.0  0.25714  0.16851  0.40859  1.0000
  C   C30       1.0  0.10665  0.41811  0.42368  1.0000
  C   C31       1.0  0.22694  0.13358  0.41142  1.0000
  C   C32       1.0  0.04400  0.46275  0.45392  1.0000
  C   C33       1.0  0.29373  0.30689  0.00367  1.0000
  Fe  Fe3       1.0  0.13291  0.47677  0.27753  1.0000
  C   C34       1.0  0.21741  0.22462  0.41929  1.0000
  H   H25       1.0  0.24261  0.09581  0.40829  1.0000
  C   C35       1.0  0.02824  0.30092  0.41711  1.0000
  C   C36       1.0  0.04122  0.30051  0.39402  1.0000
  C   C37       1.0  0.03028  0.31156  0.37249  1.0000
  C   C38       1.0  0.00669  0.32372  0.37423  1.0000
  C   C39       1.0  0.06765  0.41867  0.24148  1.0000
  H   H26       1.0  0.09221  0.47441  0.21961  1.0000
  C   C40       1.0  0.03729  0.41888  0.41735  1.0000
  C   C41       1.0  0.21239  0.24587  0.37093  1.0000
  H   H27       1.0  0.30916  0.39107  0.03982  1.0000
  C   C42       1.0  0.12725  0.44432  0.45585  1.0000
  C   C43       1.0  0.05621  0.39236  0.38451  1.0000
  Fe  Fe4       1.0  0.13322  0.27063  0.47667  1.0000
  C   C44       1.0  0.03527  0.39734  0.43303  1.0000
  C   C45       1.0  0.30808  0.98647  0.38586  1.0000
  H   H28       1.0  0.13227  0.41710  0.17323  1.0000
  C   C46       1.0  0.30295  0.32253  0.04597  1.0000
  H   H29       1.0  0.17039  0.44042  0.42701  1.0000
  C   C47       1.0  0.29670  0.00941  0.39306  1.0000
  H   H30       1.0  0.05009  0.43226  0.38033  1.0000
  H   H31       1.0  0.18126  0.24204  0.42737  1.0000
  H   H32       1.0  0.03665  0.29214  0.43376  1.0000
  H   H33       1.0  0.05977  0.29156  0.39283  1.0000
  H   H34       1.0  0.04028  0.31089  0.35453  1.0000
  C   C48       1.0  0.30913  0.02572  0.40999  1.0000
  C   C49       1.0  0.15336  0.37298  0.29671  1.0000
  C   C50       1.0  0.16936  0.39266  0.30477  1.0000
  C   C51       1.0  0.17618  0.41200  0.28790  1.0000
  C   C52       1.0  0.16714  0.41156  0.26290  1.0000
  C   C53       1.0  0.15176  0.39143  0.25438  1.0000
  C   C54       1.0  0.14439  0.37245  0.27166  1.0000
  P   P4        1.0  0.13831  0.39252  0.22285  1.0000
  C   C55       1.0  0.11061  0.41248  0.22583  1.0000
  C   C56       1.0  0.16091  0.40429  0.19989  1.0000
  C   C57       1.0  0.15239  0.41524  0.17709  1.0000
  C   C58       1.0  0.16985  0.42420  0.15919  1.0000
  C   C59       1.0  0.19589  0.42169  0.16363  1.0000
  C   C60       1.0  0.20450  0.40999  0.18583  1.0000
  C   C61       1.0  0.18713  0.40121  0.20388  1.0000
  C   C62       1.0  0.08853  0.40278  0.23720  1.0000
  C   C63       1.0  0.17832  0.18751  0.46917  1.0000
  H   H35       1.0  0.28703  0.36953  0.00414  1.0000
  H   H36       1.0  0.00216  0.41313  0.34993  1.0000
  C   C64       1.0  0.11169  0.43839  0.21942  1.0000
  C   C65       1.0  0.13012  0.36105  0.21178  1.0000
  C   C66       1.0  0.14657  0.34055  0.21647  1.0000
  C   C67       1.0  0.14064  0.31619  0.20738  1.0000
  C   C68       1.0  0.11845  0.31224  0.19327  1.0000
  C   C69       1.0  0.10228  0.33269  0.18806  1.0000
  C   C70       1.0  0.10816  0.35707  0.19712  1.0000
  H   H37       1.0  0.14743  0.35852  0.31014  1.0000
  H   H38       1.0  0.17584  0.39336  0.32434  1.0000
  H   H39       1.0  0.18773  0.42780  0.29447  1.0000
  H   H40       1.0  0.17140  0.42732  0.25040  1.0000
  H   H41       1.0  0.13129  0.35757  0.26603  1.0000
  C   C71       1.0  0.27464  0.21102  0.44122  1.0000
  Fe  Fe5       1.0  0.27840  0.11708  0.48080  1.0000
  H   H42       1.0  0.20950  0.42917  0.15009  1.0000
  H   H43       1.0  0.22476  0.40837  0.18925  1.0000
  H   H44       1.0  0.19426  0.39222  0.22094  1.0000
  H   H45       1.0  0.08765  0.38314  0.24337  1.0000
  H   H46       1.0  0.21039  0.25416  0.35220  1.0000
  C   C72       1.0  0.98516  0.45444  0.46282  1.0000
  C   C73       1.0  0.04418  0.37365  0.42465  1.0000
  H   H47       1.0  0.12886  0.44660  0.21170  1.0000
  H   H48       1.0  0.16403  0.34343  0.22703  1.0000
  H   H49       1.0  0.15335  0.30041  0.21115  1.0000
  H   H50       1.0  0.11391  0.29338  0.18618  1.0000
  H   H51       1.0  0.08524  0.32970  0.17684  1.0000
  H   H52       1.0  0.09568  0.37279  0.19246  1.0000
  C   C74       1.0  0.00800  0.46792  0.38152  1.0000
  S   S8        1.0  0.14773  0.30878  0.46312  1.0000
  S   S9        1.0  0.28103  0.08100  0.45689  1.0000
  C   C75       1.0  0.09088  0.45428  0.22394  1.0000
  Fe  Fe6       1.0  0.07997  0.46131  0.30066  1.0000
  H   H53       1.0  0.28021  0.30338  0.98852  1.0000
  S   S10       1.0  0.24196  0.14253  0.47764  1.0000
  C   C76       1.0  0.23390  0.23137  0.37692  1.0000
  H   H54       1.0  0.06255  0.42745  0.46454  1.0000
  C   C77       1.0  0.27680  0.15071  0.40520  1.0000
  C   C78       1.0  0.29341  0.45868  0.00419  1.0000
  C   C79       1.0  0.29046  0.19597  0.36402  1.0000
  S   S11       1.0  0.25530  0.46597  0.16998  1.0000
  H   H55       1.0  0.17684  0.26111  0.38458  1.0000
  C   C80       1.0  0.19596  0.23908  0.41325  1.0000
  H   H56       1.0  0.99768  0.35785  0.44281  1.0000
  C   C81       1.0  0.00052  0.26631  0.46691  1.0000
  C   C82       1.0  0.23215  0.15972  0.41172  1.0000
  H   H57       1.0  0.27838  0.01473  0.38532  1.0000
  H   H58       1.0  0.98983  0.42293  0.29509  1.0000
  H   H59       1.0  0.99292  0.45408  0.38279  1.0000
  H   H60       1.0  0.98298  0.41939  0.40842  1.0000
  Fe  Fe7       1.0  0.28181  0.46854  0.13427  1.0000
  S   S12       1.0  0.04006  0.44400  0.29636  1.0000
  H   H61       1.0  0.28869  0.17356  0.45091  1.0000
  H   H62       1.0  0.20186  0.44994  0.39413  1.0000
  H   H63       1.0  0.28410  0.00457  0.45482  1.0000
  H   H64       1.0  0.01632  0.25630  0.45845  1.0000
  H   H65       1.0  0.06172  0.35288  0.39408  1.0000
  H   H66       1.0  0.09618  0.38020  0.43518  1.0000
  H   H67       1.0  0.31101  0.19023  0.32911  1.0000
  C   C83       1.0  0.12453  0.42419  0.47328  1.0000
  H   H68       1.0  0.04348  0.35717  0.43706  1.0000
  H   H69       1.0  0.15965  0.18511  0.46091  1.0000
  C   C84       1.0  0.24658  0.11605  0.40791  1.0000
  H   H70       1.0  0.21670  0.17281  0.41510  1.0000
  C   C85       1.0  0.23666  0.22082  0.40129  1.0000
  C   C86       1.0  0.98781  0.44338  0.29362  1.0000
  C   C87       1.0  0.18497  0.21114  0.47985  1.0000
  H   H71       1.0  0.20447  0.45736  0.24870  1.0000
  H   H72       1.0  0.29448  0.44593  0.02027  1.0000
  C   C88       1.0  0.00449  0.31272  0.41881  1.0000
  H   H73       1.0  0.21902  0.21639  0.43805  1.0000
  H   H74       1.0  0.29676  0.33139  0.06356  1.0000
  H   H75       1.0  0.30062  0.04380  0.41515  1.0000
  C   C89       1.0  0.28568  0.31850  0.02619  1.0000
  C   C90       1.0  0.18336  0.47871  0.22086  1.0000
  C   C91       1.0  0.98601  0.38263  0.37222  1.0000
  Fe  Fe8       1.0  0.29491  0.48032  0.07757  1.0000
  H   H76       1.0  0.29636  0.15687  0.40343  1.0000
  C   C92       1.0  0.28029  0.24311  0.47416  1.0000
  C   C93       1.0  0.28744  0.98792  0.46641  1.0000
  H   H77       1.0  0.09082  0.21467  0.47863  1.0000
  C   C94       1.0  0.16848  0.47926  0.44130  1.0000
  C   C95       1.0  0.27161  0.23614  0.44998  1.0000
  C   C96       1.0  0.28983  0.20857  0.38759  1.0000
  C   C97       1.0  0.22037  0.16933  0.47911  1.0000
  H   H78       1.0  0.26254  0.25037  0.43817  1.0000
  H   H79       1.0  0.99743  0.46631  0.47429  1.0000
  S   S13       1.0  0.16319  0.23775  0.47901  1.0000
  H   H80       1.0  0.27757  0.26241  0.48094  1.0000
  H   H81       1.0  0.30937  0.23580  0.41178  1.0000
  C   C98       1.0  0.31047  0.20026  0.34711  1.0000
  H   H82       1.0  0.99628  0.47992  0.34413  1.0000
  C   C99       1.0  0.30933  0.22579  0.39380  1.0000
  C   C100      1.0  0.29549  0.20017  0.48099  1.0000
  C   C101      1.0  0.00996  0.48245  0.35937  1.0000
  C   C102      1.0  0.22191  0.35907  0.73679  1.0000
  S   S14       1.0  0.29905  0.44228  0.85352  1.0000
  Fe  Fe9       1.0  0.11024  0.43476  0.64412  1.0000
  S   S15       1.0  0.10602  0.39475  0.62775  1.0000
  S   S16       1.0  0.10291  0.44524  0.68535  1.0000
  Fe  Fe10      1.0  0.28028  0.47403  0.83086  1.0000
  S   S17       1.0  0.29313  0.09665  0.51592  1.0000
  Fe  Fe11      1.0  0.07785  0.29213  0.48234  1.0000
  S   S18       1.0  0.11127  0.28833  0.50950  1.0000
  S   S19       1.0  0.13906  0.36065  0.51628  1.0000
  C   C103      1.0  0.15076  0.17957  0.54202  1.0000
  S   S20       1.0  0.03630  0.29314  0.49609  1.0000
  C   C104      1.0  0.18897  0.45487  0.75110  1.0000
  C   C105      1.0  0.31200  0.33623  0.89990  1.0000
  H   H83       1.0  0.13695  0.31581  0.59101  1.0000
  H   H84       1.0  0.20242  0.36559  0.73521  1.0000
  H   H85       1.0  0.27389  0.45767  0.74195  1.0000
  C   C106      1.0  0.15826  0.46961  0.49578  1.0000
  C   C107      1.0  0.11343  0.38684  0.59579  1.0000
  C   C108      1.0  0.10468  0.36360  0.58567  1.0000
  C   C109      1.0  0.11149  0.35582  0.56095  1.0000
  C   C110      1.0  0.12765  0.37096  0.54629  1.0000
  C   C111      1.0  0.13595  0.39449  0.55614  1.0000
  C   C112      1.0  0.12870  0.40253  0.58068  1.0000
  H   H86       1.0  0.09279  0.35140  0.59716  1.0000
  H   H87       1.0  0.10487  0.33774  0.55356  1.0000
  H   H88       1.0  0.14849  0.40631  0.54495  1.0000
  H   H89       1.0  0.13564  0.42040  0.58827  1.0000
  H   H90       1.0  0.12701  0.21061  0.50786  1.0000
  H   H91       1.0  0.26422  0.32006  0.70737  1.0000
  S   S21       1.0  0.29561  0.45143  0.92690  1.0000
  C   C113      1.0  0.29321  0.40507  0.77467  1.0000
  H   H92       1.0  0.07888  0.18258  0.62315  1.0000
  H   H93       1.0  0.30732  0.36599  0.96234  1.0000
  H   H94       1.0  0.29867  0.42887  0.97636  1.0000
  C   C114      1.0  0.10748  0.22738  0.54002  1.0000
  C   C115      1.0  0.08488  0.23915  0.54792  1.0000
  H   H95       1.0  0.29890  0.23046  0.50842  1.0000
  C   C116      1.0  0.11037  0.20128  0.64163  1.0000
  C   C117      1.0  0.00739  0.47893  0.67512  1.0000
  C   C118      1.0  0.00509  0.28514  0.48525  1.0000
  C   C119      1.0  0.15377  0.46539  0.54160  1.0000
  C   C120      1.0  0.02756  0.46900  0.55057  1.0000
  H   H96       1.0  0.29903  0.33860  0.82471  1.0000
  C   C121      1.0  0.10301  0.20165  0.59616  1.0000
  H   H97       1.0  0.13200  0.42538  0.49239  1.0000
  S   S22       1.0  0.24556  0.46238  0.80529  1.0000
  C   C122      1.0  0.30964  0.45424  0.76162  1.0000
  H   H98       1.0  0.21804  0.37880  0.86958  1.0000
  C   C123      1.0  0.29793  0.35302  0.88486  1.0000
  H   H99       1.0  0.29058  0.39229  0.87581  1.0000
  Fe  Fe12      1.0  0.12393  0.32620  0.49430  1.0000
  H   H100      1.0  0.22964  0.38201  0.76967  1.0000
  C   C124      1.0  0.31361  0.33912  0.81036  1.0000
  H   H101      1.0  0.00773  0.46943  0.54513  1.0000
  S   S23       1.0  0.14512  0.45916  0.64138  1.0000
  C   C125      1.0  0.25951  0.39799  0.82400  1.0000
  Fe  Fe13      1.0  0.30025  0.46910  0.88718  1.0000
  C   C126      1.0  0.10946  0.21862  0.51488  1.0000
  H   H102      1.0  0.09826  0.46599  0.57098  1.0000
  C   C127      1.0  0.23156  0.34169  0.71916  1.0000
  C   C128      1.0  0.18465  0.46660  0.49845  1.0000
  C   C129      1.0  0.07196  0.45750  0.49030  1.0000
  Fe  Fe14      1.0  0.29840  0.06170  0.49096  1.0000
  H   H103      1.0  0.04725  0.25134  0.53700  1.0000
  H   H104      1.0  0.30440  0.18605  0.49310  1.0000
  H   H105      1.0  0.12253  0.27114  0.59270  1.0000
  C   C130      1.0  0.29582  0.44905  0.97922  1.0000
  H   H106      1.0  0.24039  0.41756  0.85438  1.0000
  C   C131      1.0  0.29395  0.46517  0.95793  1.0000
  Fe  Fe15      1.0  0.13668  0.47215  0.68163  1.0000
  C   C132      1.0  0.07864  0.46696  0.56485  1.0000
  C   C133      1.0  0.09578  0.19408  0.62057  1.0000
  S   S24       1.0  0.08397  0.46436  0.62850  1.0000
  H   H107      1.0  0.24557  0.19520  0.49842  1.0000
  H   H108      1.0  0.98900  0.37096  0.48678  1.0000
  C   C134      1.0  0.08894  0.22102  0.49813  1.0000
  H   H109      1.0  0.25943  0.41478  0.75298  1.0000
  C   C135      1.0  0.06442  0.24158  0.53111  1.0000
  H   H110      1.0  0.14374  0.22128  0.65456  1.0000
  H   H111      1.0  0.07754  0.42776  0.55276  1.0000
  H   H112      1.0  0.20902  0.15282  0.53338  1.0000
  H   H113      1.0  0.03241  0.42976  0.53914  1.0000
  C   C136      1.0  0.23402  0.35443  0.84065  1.0000
  C   C137      1.0  0.20952  0.21359  0.49036  1.0000
  C   C138      1.0  0.31082  0.35401  0.78837  1.0000
  C   C139      1.0  0.27241  0.34287  0.74052  1.0000
  H   H114      1.0  0.22380  0.33765  0.84689  1.0000
  H   H115      1.0  0.21951  0.33466  0.70395  1.0000
  H   H116      1.0  0.16337  0.14365  0.52656  1.0000
  C   C140      1.0  0.29274  0.99091  0.49232  1.0000
  H   H117      1.0  0.08328  0.24710  0.56685  1.0000
  H   H118      1.0  0.16752  0.32955  0.55809  1.0000
  P   P5        1.0  0.28280  0.37335  0.78317  1.0000
  S   S25       1.0  0.29359  0.02141  0.50738  1.0000
  Fe  Fe16      1.0  0.07833  0.47662  0.66883  1.0000
  C   C141      1.0  0.28615  0.44534  0.75301  1.0000
  H   H119      1.0  0.08386  0.44540  0.50196  1.0000
  H   H120      1.0  0.20262  0.43473  0.78436  1.0000
  H   H121      1.0  0.21514  0.23158  0.49869  1.0000
  H   H122      1.0  0.30763  0.04237  0.59899  1.0000
  S   S26       1.0  0.17134  0.48219  0.70805  1.0000
  C   C142      1.0  0.14289  0.46879  0.51759  1.0000
  C   C143      1.0  0.22543  0.46821  0.77789  1.0000
  H   H123      1.0  0.18829  0.45977  0.56275  1.0000
  C   C144      1.0  0.20226  0.18970  0.55017  1.0000
  C   C145      1.0  0.06692  0.44540  0.55460  1.0000
  H   H124      1.0  0.21578  0.46065  0.52446  1.0000
  C   C146      1.0  0.00301  0.45343  0.66862  1.0000
  H   H125      1.0  0.01898  0.44071  0.66606  1.0000
  C   C147      1.0  0.18001  0.46257  0.54408  1.0000
  H   H126      1.0  0.12250  0.47065  0.51606  1.0000
  C   C148      1.0  0.04146  0.44653  0.54709  1.0000
  C   C149      1.0  0.18402  0.20789  0.55680  1.0000
  H   H127      1.0  0.29183  0.33632  0.74155  1.0000
  C   C150      1.0  0.19196  0.47601  0.73505  1.0000
  H   H128      1.0  0.17110  0.25320  0.52925  1.0000
  H   H129      1.0  0.15680  0.23456  0.61151  1.0000
  C   C151      1.0  0.22701  0.19293  0.49000  1.0000
  H   H130      1.0  0.98729  0.31199  0.51063  1.0000
  C   C152      1.0  0.30168  0.37925  0.88722  1.0000
  H   H131      1.0  0.28401  0.34580  0.87149  1.0000
  H   H132      1.0  0.26861  0.41521  0.81746  1.0000
  H   H133      1.0  0.22226  0.19363  0.55308  1.0000
  C   C153      1.0  0.12473  0.21678  0.59272  1.0000
  C   C154      1.0  0.24336  0.39936  0.84499  1.0000
  H   H134      1.0  0.25203  0.33520  0.80940  1.0000
  H   H135      1.0  0.13088  0.17513  0.53914  1.0000
  C   C155      1.0  0.19481  0.16662  0.53918  1.0000
  C   C156      1.0  0.27795  0.42085  0.75945  1.0000
  H   H136      1.0  0.18447  0.29815  0.52722  1.0000
  H   H137      1.0  0.00437  0.47278  0.59790  1.0000
  C   C157      1.0  0.25676  0.33353  0.72108  1.0000
  C   C158      1.0  0.13233  0.21587  0.63826  1.0000
  C   C159      1.0  0.25004  0.35309  0.81950  1.0000
  C   C160      1.0  0.06643  0.23249  0.50624  1.0000
  C   C161      1.0  0.15814  0.20321  0.55219  1.0000
  H   H138      1.0  0.10473  0.19543  0.66053  1.0000
  H   H139      1.0  0.14194  0.46484  0.55842  1.0000
  C   C162      1.0  0.16906  0.16152  0.53520  1.0000
  C   C163      1.0  0.98409  0.29755  0.49628  1.0000
  H   H140      1.0  0.17374  0.44152  0.74741  1.0000
  H   H141      1.0  0.19020  0.22558  0.56541  1.0000
  C   C164      1.0  0.19544  0.46315  0.52252  1.0000
  C   C165      1.0  0.26318  0.37485  0.81124  1.0000
  C   C166      1.0  0.23071  0.37757  0.85343  1.0000
  C   C167      1.0  0.23743  0.36834  0.75631  1.0000
  H   H142      1.0  0.09169  0.19559  0.58004  1.0000
  C   C168      1.0  0.13960  0.22346  0.61388  1.0000
  C   C169      1.0  0.26289  0.36048  0.75822  1.0000
  C   C170      1.0  0.17174  0.29195  0.54214  1.0000
  C   C171      1.0  0.16214  0.30965  0.55948  1.0000
  C   C172      1.0  0.14482  0.30188  0.57798  1.0000
  C   C173      1.0  0.13687  0.27647  0.57900  1.0000
  C   C174      1.0  0.14683  0.25842  0.56197  1.0000
  C   C175      1.0  0.16409  0.26645  0.54333  1.0000
  P   P6        1.0  0.13441  0.22634  0.56132  1.0000
  C   C176      1.0  0.20550  0.45105  0.77218  1.0000
  H   H143      1.0  0.05076  0.23509  0.49309  1.0000
  H   H144      1.0  0.30910  0.31588  0.89809  1.0000
  C   C177      1.0  0.29231  0.22515  0.48963  1.0000
  H   H145      1.0  0.19696  0.46658  0.48201  1.0000
  C   C178      1.0  0.17904  0.50373  0.43930  1.0000
  H   H146      1.0  0.03115  0.56726  0.26477  1.0000
  H   H147      1.0  0.25270  0.77449  0.43590  1.0000
  H   H148      1.0  0.31337  0.91161  0.37519  1.0000
  C   C179      1.0  0.23196  0.52056  0.26137  1.0000
  C   C180      1.0  0.18178  0.75608  0.46564  1.0000
  C   C181      1.0  0.27077  0.79964  0.34270  1.0000
  H   H149      1.0  0.28197  0.84044  0.39945  1.0000
  S   S27       1.0  0.10810  0.65620  0.44844  1.0000
  S   S28       1.0  0.14348  0.58790  0.44390  1.0000
  S   S29       1.0  0.09531  0.49726  0.28353  1.0000
  C   C182      1.0  0.29656  0.87717  0.38959  1.0000
  C   C183      1.0  0.28703  0.50079  0.98694  1.0000
  C   C184      1.0  0.09444  0.52781  0.43886  1.0000
  C   C185      1.0  0.17759  0.73314  0.47899  1.0000
  H   H150      1.0  0.25447  0.55155  0.24699  1.0000
  H   H151      1.0  0.20521  0.52792  0.41919  1.0000
  C   C186      1.0  0.25882  0.77570  0.34330  1.0000
  H   H152      1.0  0.17263  0.51904  0.45158  1.0000
  H   H153      1.0  0.08258  0.56246  0.45721  1.0000
  H   H154      1.0  0.98411  0.62526  0.44507  1.0000
  C   C187      1.0  0.10936  0.50587  0.44074  1.0000
  S   S30       1.0  0.29225  0.83510  0.45313  1.0000
  H   H155      1.0  0.29723  0.54422  0.07111  1.0000
  H   H156      1.0  0.24587  0.50611  0.25657  1.0000
  C   C188      1.0  0.09426  0.54989  0.24871  1.0000
  Fe  Fe17      1.0  0.29459  0.87235  0.47505  1.0000
  C   C189      1.0  0.23639  0.77151  0.32963  1.0000
  C   C190      1.0  0.20004  0.65051  0.25992  1.0000
  Fe  Fe18      1.0  0.10928  0.50622  0.32305  1.0000
  S   S31       1.0  0.09864  0.54483  0.33966  1.0000
  C   C191      1.0  0.28919  0.94130  0.47054  1.0000
  C   C192      1.0  0.12282  0.50043  0.46320  1.0000
  H   H157      1.0  0.06111  0.48943  0.41188  1.0000
  S   S32       1.0  0.29536  0.50412  0.11378  1.0000
  S   S33       1.0  0.28522  0.91064  0.45632  1.0000
  C   C193      1.0  0.28856  0.48458  0.00821  1.0000
  C   C194      1.0  0.19056  0.53189  0.27772  1.0000
  C   C195      1.0  0.13004  0.57567  0.41544  1.0000
  C   C196      1.0  0.14028  0.55347  0.40458  1.0000
  C   C197      1.0  0.13047  0.54341  0.38174  1.0000
  C   C198      1.0  0.11066  0.55590  0.36917  1.0000
  C   C199      1.0  0.10030  0.57805  0.38006  1.0000
  C   C200      1.0  0.10979  0.58779  0.40319  1.0000
  H   H158      1.0  0.15596  0.54412  0.41383  1.0000
  H   H159      1.0  0.13866  0.52637  0.37355  1.0000
  H   H160      1.0  0.08497  0.58785  0.37049  1.0000
  H   H161      1.0  0.10174  0.60494  0.41129  1.0000
  S   S34       1.0  0.28321  0.49739  0.03919  1.0000
  H   H162      1.0  0.17251  0.52599  0.28553  1.0000
  H   H163      1.0  0.16546  0.64040  0.20616  1.0000
  H   H164      1.0  0.26679  0.76032  0.35448  1.0000
  Fe  Fe19      1.0  0.12485  0.62074  0.46528  1.0000
  C   C201      1.0  0.19755  0.50884  0.42097  1.0000
  H   H165      1.0  0.19421  0.67236  0.22577  1.0000
  H   H166      1.0  0.03172  0.51060  0.33915  1.0000
  H   H167      1.0  0.20850  0.78783  0.30445  1.0000
  C   C202      1.0  0.02977  0.49991  0.35662  1.0000
  H   H168      1.0  0.22992  0.82990  0.30241  1.0000
  H   H169      1.0  0.00272  0.55003  0.33891  1.0000
  H   H170      1.0  0.15504  0.60084  0.22883  1.0000
  H   H171      1.0  0.07641  0.54231  0.24176  1.0000
  C   C203      1.0  0.22593  0.79105  0.31497  1.0000
  C   C204      1.0  0.28557  0.96329  0.45565  1.0000
  S   S35       1.0  0.15505  0.48395  0.23969  1.0000
  H   H172      1.0  0.28321  0.52084  0.98977  1.0000
  C   C205      1.0  0.18964  0.65499  0.23590  1.0000
  C   C206      1.0  0.17341  0.63700  0.22486  1.0000
  H   H173      1.0  0.06348  0.51591  0.37345  1.0000
  C   C207      1.0  0.20900  0.51352  0.27260  1.0000
  Fe  Fe20      1.0  0.07450  0.64899  0.47443  1.0000
  C   C208      1.0  0.23672  0.54617  0.25589  1.0000
  C   C209      1.0  0.01620  0.56865  0.27880  1.0000
  C   C210      1.0  0.19509  0.55761  0.27224  1.0000
  C   C211      1.0  0.21845  0.56472  0.26148  1.0000
  P   P7        1.0  0.17071  0.58084  0.27890  1.0000
  C   C212      1.0  0.16911  0.58775  0.31256  1.0000
  C   C213      1.0  0.17774  0.60997  0.26208  1.0000
  C   C214      1.0  0.19420  0.62806  0.27295  1.0000
  C   C215      1.0  0.26037  0.81905  0.32758  1.0000
  H   H174      1.0  0.23241  0.89083  0.45440  1.0000
  H   H175      1.0  0.08508  0.53242  0.42110  1.0000
  C   C216      1.0  0.18454  0.48870  0.19601  1.0000
  C   C217      1.0  0.18005  0.57128  0.33051  1.0000
  C   C218      1.0  0.17898  0.57715  0.35642  1.0000
  C   C219      1.0  0.16684  0.59933  0.36464  1.0000
  C   C220      1.0  0.15566  0.61566  0.34696  1.0000
  C   C221      1.0  0.15684  0.60998  0.32102  1.0000
  C   C222      1.0  0.14077  0.56829  0.26754  1.0000
  C   C223      1.0  0.11803  0.57355  0.28042  1.0000
  C   C224      1.0  0.09491  0.56440  0.27101  1.0000
  H   H176      1.0  0.22707  0.75311  0.33048  1.0000
  C   C225      1.0  0.11686  0.54411  0.23608  1.0000
  C   C226      1.0  0.14001  0.55327  0.24540  1.0000
  S   S36       1.0  0.14758  0.48854  0.31619  1.0000
  C   C227      1.0  0.29281  0.76795  0.43968  1.0000
  C   C228      1.0  0.09311  0.54483  0.45918  1.0000
  H   H177      1.0  0.07763  0.56798  0.28153  1.0000
  H   H178      1.0  0.22250  0.58438  0.25694  1.0000
  H   H179      1.0  0.20264  0.62473  0.29144  1.0000
  H   H180      1.0  0.21271  0.66439  0.26844  1.0000
  H   H181      1.0  0.29113  0.75986  0.45855  1.0000
  C   C229      1.0  0.16750  0.61455  0.23785  1.0000
  C   C230      1.0  0.23797  0.81477  0.31387  1.0000
  H   H182      1.0  0.18926  0.55383  0.32473  1.0000
  H   H183      1.0  0.18708  0.56423  0.37026  1.0000
  H   H184      1.0  0.16568  0.60362  0.38478  1.0000
  H   H185      1.0  0.14579  0.63255  0.35349  1.0000
  H   H186      1.0  0.14793  0.62277  0.30758  1.0000
  H   H187      1.0  0.11798  0.58422  0.29801  1.0000
  H   H188      1.0  0.25623  0.79444  0.39368  1.0000
  C   C231      1.0  0.04767  0.50287  0.37601  1.0000
  H   H189      1.0  0.22543  0.84402  0.45335  1.0000
  H   H190      1.0  0.15731  0.54834  0.23540  1.0000
  H   H191      1.0  0.26941  0.83754  0.32639  1.0000
  H   H192      1.0  0.28092  0.96128  0.43572  1.0000
  H   H193      1.0  0.11660  0.53197  0.21939  1.0000
  H   H194      1.0  0.02877  0.50083  0.44929  1.0000
  S   S37       1.0  0.03370  0.64220  0.45995  1.0000
  C   C232      1.0  0.27112  0.77626  0.42687  1.0000
  C   C233      1.0  0.30419  0.83870  0.36495  1.0000
  H   H195      1.0  0.21968  0.49356  0.39007  1.0000
  C   C234      1.0  0.98160  0.63740  0.46149  1.0000
  H   H196      1.0  0.20650  0.78847  0.45903  1.0000
  H   H197      1.0  0.20509  0.49371  0.27673  1.0000
  H   H198      1.0  0.16767  0.76238  0.45208  1.0000
  P   P8        1.0  0.29983  0.80482  0.36029  1.0000
  C   C235      1.0  0.01933  0.55745  0.30266  1.0000
  H   H199      1.0  0.99714  0.65127  0.36737  1.0000
  C   C236      1.0  0.27325  0.78745  0.40287  1.0000
  H   H200      1.0  0.01169  0.57947  0.48039  1.0000
  H   H201      1.0  0.03687  0.54759  0.30721  1.0000
  H   H202      1.0  0.30400  0.76892  0.31691  1.0000
  H   H203      1.0  0.98181  0.55713  0.38201  1.0000
  C   C237      1.0  0.20572  0.48951  0.40462  1.0000
  C   C238      1.0  0.00314  0.64807  0.47336  1.0000
  H   H204      1.0  0.29402  0.59111  0.07604  1.0000
  C   C239      1.0  0.29716  0.79002  0.39124  1.0000
  C   C240      1.0  0.29317  0.85099  0.38590  1.0000
  C   C241      1.0  0.22203  0.85463  0.47068  1.0000
  H   H205      1.0  0.11126  0.49407  0.42410  1.0000
  C   C242      1.0  0.04603  0.48802  0.39797  1.0000
  H   H206      1.0  0.16847  0.49919  0.18866  1.0000
  C   C243      1.0  0.31027  0.55662  0.06109  1.0000
  H   H207      1.0  0.29859  0.97399  0.37247  1.0000
  H   H208      1.0  0.28841  0.88642  0.40613  1.0000
  H   H209      1.0  0.02327  0.49740  0.29094  1.0000
  H   H210      1.0  0.99141  0.59048  0.25462  1.0000
  C   C244      1.0  0.31054  0.89139  0.37211  1.0000
  C   C245      1.0  0.22599  0.88095  0.47129  1.0000
  C   C246      1.0  0.04096  0.48856  0.46046  1.0000
  C   C247      1.0  0.30837  0.58303  0.06372  1.0000
  S   S38       1.0  0.14835  0.71570  0.47368  1.0000
  C   C248      1.0  0.20389  0.77107  0.46966  1.0000
  C   C249      1.0  0.99983  0.55885  0.32063  1.0000
  H   H211      1.0  0.98395  0.51660  0.40542  1.0000
  C   C250      1.0  0.99378  0.58168  0.27307  1.0000
  H   H212      1.0  0.20652  0.49296  0.16136  1.0000
  C   C251      1.0  0.00668  0.48524  0.29128  1.0000
  C   C252      1.0  0.20625  0.48524  0.18039  1.0000
  H   H213      1.0  0.98893  0.61601  0.33747  1.0000
  C   C253      1.0  0.98206  0.63776  0.37122  1.0000
  C   C254      1.0  0.98210  0.49593  0.28921  1.0000
  Fe  Fe21      1.0  0.12709  0.67725  0.48134  1.0000
  C   C255      1.0  0.27025  0.80301  0.56242  1.0000
  H   H214      1.0  0.24209  0.56942  0.56393  1.0000
  C   C256      1.0  0.18850  0.58777  0.54604  1.0000
  H   H215      1.0  0.04084  0.50549  0.61950  1.0000
  H   H216      1.0  0.23584  0.79268  0.54334  1.0000
  H   H217      1.0  0.04951  0.59903  0.60860  1.0000
  C   C257      1.0  0.98622  0.49502  0.67857  1.0000
  C   C258      1.0  0.15466  0.76650  0.52922  1.0000
  C   C259      1.0  0.05584  0.56696  0.63324  1.0000
  H   H218      1.0  0.13245  0.64801  0.64793  1.0000
  H   H219      1.0  0.16667  0.51031  0.65276  1.0000
  H   H220      1.0  0.21338  0.89227  0.53354  1.0000
  C   C260      1.0  0.03652  0.56496  0.50951  1.0000
  C   C261      1.0  0.02189  0.64682  0.55609  1.0000
  S   S39       1.0  0.12737  0.50953  0.59087  1.0000
  S   S40       1.0  0.11140  0.50449  0.66773  1.0000
  Fe  Fe22      1.0  0.10926  0.63612  0.51898  1.0000
  S   S41       1.0  0.09161  0.67295  0.50579  1.0000
  S   S42       1.0  0.10499  0.62434  0.56026  1.0000
  H   H221      1.0  0.06023  0.53162  0.65331  1.0000
  S   S43       1.0  0.27807  0.85492  0.51050  1.0000
  H   H222      1.0  0.28326  0.86103  0.58804  1.0000
  H   H223      1.0  0.17158  0.51755  0.53082  1.0000
  C   C262      1.0  0.15271  0.78751  0.51310  1.0000
  H   H224      1.0  0.18749  0.58801  0.65105  1.0000
  H   H225      1.0  0.22227  0.62311  0.62293  1.0000
  P   P9        1.0  0.20321  0.83828  0.54430  1.0000
  C   C263      1.0  0.11849  0.54098  0.58288  1.0000
  C   C264      1.0  0.11226  0.55909  0.60133  1.0000
  C   C265      1.0  0.10766  0.58453  0.59418  1.0000
  C   C266      1.0  0.10942  0.59203  0.56862  1.0000
  C   C267      1.0  0.11515  0.57379  0.55020  1.0000
  C   C268      1.0  0.11928  0.54831  0.55727  1.0000
  H   H226      1.0  0.11160  0.55365  0.62113  1.0000
  H   H227      1.0  0.10325  0.59855  0.60858  1.0000
  H   H228      1.0  0.11705  0.57955  0.53063  1.0000
  H   H229      1.0  0.12385  0.53433  0.54293  1.0000
  C   C269      1.0  0.28368  0.82220  0.57505  1.0000
  C   C270      1.0  0.15443  0.88729  0.59802  1.0000
  H   H230      1.0  0.17223  0.75116  0.56276  1.0000
  H   H231      1.0  0.05672  0.54861  0.54099  1.0000
  Fe  Fe23      1.0  0.11822  0.48975  0.62825  1.0000
  H   H232      1.0  0.18130  0.59489  0.50629  1.0000
  C   C271      1.0  0.21064  0.85524  0.51542  1.0000
  H   H233      1.0  0.16542  0.82541  0.50502  1.0000
  Fe  Fe24      1.0  0.27859  0.81685  0.48961  1.0000
  C   C272      1.0  0.29526  0.94430  0.49628  1.0000
  H   H234      1.0  0.01592  0.67199  0.50404  1.0000
  C   C273      1.0  0.01340  0.56678  0.49660  1.0000
  H   H235      1.0  0.19383  0.60736  0.54977  1.0000
  C   C274      1.0  0.18762  0.85595  0.59176  1.0000
  H   H236      1.0  0.28324  0.59129  0.55849  1.0000
  H   H237      1.0  0.16203  0.61749  0.57869  1.0000
  H   H238      1.0  0.13457  0.64776  0.60089  1.0000
  H   H239      1.0  0.20145  0.84299  0.59982  1.0000
  H   H240      1.0  0.19355  0.70807  0.50705  1.0000
  H   H241      1.0  0.30023  0.56232  0.94620  1.0000
  C   C275      1.0  0.06476  0.48937  0.56860  1.0000
  H   H242      1.0  0.06450  0.57822  0.64821  1.0000
  S   S44       1.0  0.14546  0.64162  0.49681  1.0000
  H   H243      1.0  0.03026  0.57354  0.57465  1.0000
  H   H244      1.0  0.18227  0.52974  0.57453  1.0000
  C   C276      1.0  0.01742  0.53616  0.54016  1.0000
  H   H245      1.0  0.28841  0.50389  0.94586  1.0000
  H   H246      1.0  0.14289  0.89878  0.61064  1.0000
  C   C277      1.0  0.99002  0.50849  0.58271  1.0000
  P   P10       1.0  0.02014  0.51819  0.56933  1.0000
  C   C278      1.0  0.23390  0.83123  0.55798  1.0000
  H   H247      1.0  0.99019  0.59056  0.55225  1.0000
  C   C279      1.0  0.03677  0.56393  0.59149  1.0000
  C   C280      1.0  0.22264  0.89443  0.49395  1.0000
  C   C281      1.0  0.24549  0.80751  0.55388  1.0000
  C   C282      1.0  0.03464  0.53736  0.59402  1.0000
  H   H248      1.0  0.20914  0.49515  0.66551  1.0000
  C   C283      1.0  0.04275  0.52586  0.61669  1.0000
  C   C284      1.0  0.15087  0.88878  0.57174  1.0000
  C   C285      1.0  0.18538  0.78930  0.55499  1.0000
  H   H249      1.0  0.22669  0.91469  0.49452  1.0000
  C   C286      1.0  0.29001  0.49123  0.96198  1.0000
  C   C287      1.0  0.17082  0.76748  0.55028  1.0000
  C   C288      1.0  0.98808  0.48518  0.59568  1.0000
  H   H250      1.0  0.13653  0.90138  0.56399  1.0000
  H   H251      1.0  0.15884  0.61780  0.67284  1.0000
  C   C289      1.0  0.18179  0.58073  0.52127  1.0000
  S   S45       1.0  0.27900  0.49971  0.86576  1.0000
  C   C290      1.0  0.16573  0.87395  0.55543  1.0000
  H   H252      1.0  0.24380  0.55116  0.61737  1.0000
  C   C291      1.0  0.99465  0.53682  0.52618  1.0000
  C   C292      1.0  0.18450  0.85776  0.56533  1.0000
  C   C293      1.0  0.21832  0.74061  0.50063  1.0000
  C   C294      1.0  0.24762  0.85050  0.57052  1.0000
  C   C295      1.0  0.21506  0.88164  0.51598  1.0000
  C   C296      1.0  0.22241  0.76361  0.48735  1.0000
  H   H253      1.0  0.13269  0.51534  0.50045  1.0000
  C   C297      1.0  0.00354  0.66137  0.56860  1.0000
  C   C298      1.0  0.05354  0.54063  0.63606  1.0000
  C   C299      1.0  0.17273  0.87080  0.60803  1.0000
  H   H254      1.0  0.26340  0.64462  0.61720  1.0000
  C   C300      1.0  0.27236  0.84592  0.57912  1.0000
  H   H255      1.0  0.00727  0.68125  0.57274  1.0000
  H   H256      1.0  0.24775  0.51538  0.64742  1.0000
  H   H257      1.0  0.98987  0.58783  0.60406  1.0000
  C   C301      1.0  0.16733  0.80931  0.51768  1.0000
  H   H258      1.0  0.19757  0.78983  0.57156  1.0000
  H   H259      1.0  0.14023  0.78658  0.49672  1.0000
  C   C302      1.0  0.20745  0.51053  0.65184  1.0000
  H   H260      1.0  0.16207  0.54544  0.62203  1.0000
  C   C303      1.0  0.18092  0.53905  0.62731  1.0000
  H   H261      1.0  0.03986  0.65533  0.55062  1.0000
  C   C304      1.0  0.01694  0.62136  0.55021  1.0000
  C   C305      1.0  0.99961  0.66358  0.49472  1.0000
  C   C306      1.0  0.21459  0.84181  0.49270  1.0000
  C   C307      1.0  0.99258  0.55241  0.50472  1.0000
  H   H262      1.0  0.16255  0.87505  0.53511  1.0000
  H   H263      1.0  0.21483  0.50943  0.72855  1.0000
  H   H264      1.0  0.07409  0.50562  0.57723  1.0000
  H   H265      1.0  0.21261  0.82132  0.49217  1.0000
  H   H266      1.0  0.03117  0.61037  0.54018  1.0000
  C   C308      1.0  0.03866  0.54950  0.53101  1.0000
  S   S46       1.0  0.25073  0.78223  0.49359  1.0000
  H   H267      1.0  0.05270  0.57593  0.50312  1.0000
  H   H268      1.0  0.17530  0.86945  0.62841  1.0000
  C   C309      1.0  0.03893  0.49031  0.56216  1.0000
  H   H269      1.0  0.27928  0.78490  0.55847  1.0000
  H   H270      1.0  0.99406  0.55820  0.64003  1.0000
  C   C310      1.0  0.19625  0.72549  0.49648  1.0000
  H   H271      1.0  0.23956  0.86932  0.57290  1.0000
  C   C311      1.0  0.04737  0.57863  0.61098  1.0000
  C   C312      1.0  0.18451  0.81001  0.53814  1.0000
  H   H272      1.0  0.29402  0.62891  0.58502  1.0000
  H   H273      1.0  0.98935  0.51471  0.68377  1.0000
  C   C313      1.0  0.99374  0.61031  0.55704  1.0000
  H   H274      1.0  0.30317  0.81901  0.58099  1.0000
  C   C314      1.0  0.22675  0.54228  0.62458  1.0000
  C   C315      1.0  0.20256  0.55113  0.61748  1.0000
  H   H275      1.0  0.14386  0.74935  0.52512  1.0000
  P   P11       1.0  0.19881  0.57872  0.59730  1.0000
  C   C316      1.0  0.17706  0.60029  0.61305  1.0000
  C   C317      1.0  0.22899  0.59472  0.59370  1.0000
  C   C318      1.0  0.23531  0.61592  0.60878  1.0000
  C   C319      1.0  0.25870  0.62818  0.60561  1.0000
  C   C320      1.0  0.27595  0.61933  0.58749  1.0000
  C   C321      1.0  0.26987  0.59815  0.57254  1.0000
  C   C322      1.0  0.24650  0.58586  0.57563  1.0000
  C   C323      1.0  0.16209  0.61749  0.59919  1.0000
  C   C324      1.0  0.14631  0.63479  0.61181  1.0000
  C   C325      1.0  0.14504  0.63487  0.63829  1.0000
  C   C326      1.0  0.15984  0.61784  0.65228  1.0000
  C   C327      1.0  0.17593  0.60077  0.63977  1.0000
  C   C328      1.0  0.18848  0.56967  0.56570  1.0000
  C   C329      1.0  0.18248  0.54422  0.55992  1.0000
  C   C330      1.0  0.17639  0.53715  0.53498  1.0000
  C   C331      1.0  0.17572  0.55543  0.51573  1.0000
  C   C332      1.0  0.29684  0.96893  0.50709  1.0000
  C   C333      1.0  0.21210  0.49299  0.74058  1.0000
  H   H276      1.0  0.29816  0.92766  0.50802  1.0000
  H   H277      1.0  0.23231  0.73441  0.51436  1.0000
  H   H278      1.0  0.24367  0.50267  0.76552  1.0000
  S   S47       1.0  0.03864  0.49135  0.68048  1.0000
  S   S48       1.0  0.09071  0.61235  0.48908  1.0000
  H   H279      1.0  0.05089  0.51850  0.48665  1.0000
  C   C334      1.0  0.22913  0.52201  0.64169  1.0000
  H   H280      1.0  0.10629  0.55356  0.49679  1.0000
  C   C335      1.0  0.12156  0.51793  0.48343  1.0000
  H   H281      1.0  0.30708  0.61288  0.83410  1.0000
  H   H282      1.0  0.07816  0.49098  0.51330  1.0000
  C   C336      1.0  0.22861  0.48918  0.76167  1.0000
  H   H283      1.0  0.30099  0.97094  0.52714  1.0000
  C   C337      1.0  0.06866  0.48310  0.49676  1.0000
  C   C338      1.0  0.18340  0.51905  0.64461  1.0000
  H   H284      1.0  0.17041  0.55015  0.49651  1.0000
  C   C339      1.0  0.10662  0.53985  0.48145  1.0000
  C   C340      1.0  0.05321  0.49861  0.48180  1.0000
  Fe  Fe25      1.0  0.47375  0.27588  0.07925  1.0000
  S   S49       1.0  0.48297  0.31742  0.08248  1.0000
  S   S50       1.0  0.46062  0.25917  0.04098  1.0000
  Fe  Fe26      1.0  0.48447  0.26523  0.13677  1.0000
  S   S51       1.0  0.49517  0.30671  0.14281  1.0000
  S   S52       1.0  0.48312  0.24001  0.17349  1.0000
  Fe  Fe27      1.0  0.46098  0.31655  0.11889  1.0000
  S   S53       1.0  0.43845  0.35116  0.13212  1.0000
  Fe  Fe28      1.0  0.51625  0.30470  0.10585  1.0000
  S   S54       1.0  0.55415  0.32238  0.09445  1.0000
  S   S55       1.0  0.44894  0.27562  0.11454  1.0000
  S   S56       1.0  0.50840  0.26260  0.10093  1.0000
  S   S57       1.0  0.33336  0.39536  0.09160  1.0000
  S   S58       1.0  0.59524  0.42753  0.13880  1.0000
  H   H285      1.0  0.34119  0.31753  0.05904  1.0000
  S   S59       1.0  0.60144  0.12538  0.44693  1.0000
  Fe  Fe29      1.0  0.48909  0.11626  0.28211  1.0000
  S   S60       1.0  0.50139  0.13003  0.32104  1.0000
  S   S61       1.0  0.49286  0.13870  0.24387  1.0000
  Fe  Fe30      1.0  0.47605  0.06192  0.30349  1.0000
  S   S62       1.0  0.48700  0.07280  0.34321  1.0000
  S   S63       1.0  0.45816  0.02232  0.29824  1.0000
  Fe  Fe31      1.0  0.46663  0.10952  0.33598  1.0000
  S   S64       1.0  0.44460  0.12699  0.36895  1.0000
  Fe  Fe32      1.0  0.52058  0.09201  0.32559  1.0000
  S   S65       1.0  0.55950  0.08282  0.34191  1.0000
  S   S66       1.0  0.45300  0.09784  0.29710  1.0000
  S   S67       1.0  0.51096  0.07905  0.28582  1.0000
  S   S68       1.0  0.33685  0.08753  0.40784  1.0000
  H   H286      1.0  0.57637  0.13943  0.32954  1.0000
  C   C341      1.0  0.41443  0.11613  0.37919  1.0000
  C   C342      1.0  0.40084  0.09759  0.36571  1.0000
  C   C343      1.0  0.37712  0.08908  0.37473  1.0000
  C   C344      1.0  0.36679  0.09888  0.39735  1.0000
  C   C345      1.0  0.38028  0.11757  0.41073  1.0000
  C   C346      1.0  0.40390  0.12627  0.40156  1.0000
  H   H287      1.0  0.40865  0.08976  0.34837  1.0000
  H   H288      1.0  0.36678  0.07468  0.36420  1.0000
  H   H289      1.0  0.37255  0.12533  0.42813  1.0000
  H   H290      1.0  0.41427  0.14063  0.41211  1.0000
  Fe  Fe33      1.0  0.32104  0.09352  0.44768  1.0000
  C   C347      1.0  0.63590  0.17310  0.42501  1.0000
  C   C348      1.0  0.48582  0.36841  0.18045  1.0000
  H   H291      1.0  0.43925  0.37237  0.04664  1.0000
  H   H292      1.0  0.51108  0.00436  0.29479  1.0000
  C   C349      1.0  0.58881  0.11200  0.41877  1.0000
  C   C350      1.0  0.56796  0.12387  0.40701  1.0000
  C   C351      1.0  0.55813  0.11451  0.38390  1.0000
  C   C352      1.0  0.56907  0.09319  0.37242  1.0000
  C   C353      1.0  0.58950  0.08098  0.38447  1.0000
  C   C354      1.0  0.59939  0.09030  0.40756  1.0000
  H   H293      1.0  0.55972  0.14071  0.41554  1.0000
  H   H294      1.0  0.54283  0.12435  0.37440  1.0000
  H   H295      1.0  0.59797  0.06453  0.37560  1.0000
  H   H296      1.0  0.61546  0.08103  0.41643  1.0000
  C   C355      1.0  0.48647  0.21170  0.19287  1.0000
  C   C356      1.0  0.49360  0.18799  0.18278  1.0000
  C   C357      1.0  0.49539  0.16614  0.19857  1.0000
  C   C358      1.0  0.49029  0.16735  0.22487  1.0000
  C   C359      1.0  0.48329  0.19109  0.23501  1.0000
  C   C360      1.0  0.48138  0.21293  0.21919  1.0000
  H   H297      1.0  0.49760  0.18643  0.16270  1.0000
  H   H298      1.0  0.50083  0.14809  0.19027  1.0000
  H   H299      1.0  0.47945  0.19271  0.25511  1.0000
  H   H300      1.0  0.47589  0.23099  0.22745  1.0000
  C   C361      1.0  0.40837  0.36195  0.12156  1.0000
  C   C362      1.0  0.39522  0.35010  0.10169  1.0000
  C   C363      1.0  0.37189  0.36020  0.09326  1.0000
  C   C364      1.0  0.36179  0.38243  0.10413  1.0000
  C   C365      1.0  0.37466  0.39397  0.12431  1.0000
  C   C366      1.0  0.39772  0.38363  0.13309  1.0000
  H   H301      1.0  0.40311  0.33331  0.09276  1.0000
  H   H302      1.0  0.36174  0.35103  0.07802  1.0000
  H   H303      1.0  0.36691  0.41090  0.13313  1.0000
  H   H304      1.0  0.40749  0.39271  0.14872  1.0000
  C   C367      1.0  0.56434  0.35240  0.10595  1.0000
  C   C368      1.0  0.55449  0.36265  0.12836  1.0000
  C   C369      1.0  0.56436  0.38557  0.13819  1.0000
  C   C370      1.0  0.58384  0.39869  0.12554  1.0000
  C   C371      1.0  0.59356  0.38860  0.10294  1.0000
  C   C372      1.0  0.58384  0.36550  0.09323  1.0000
  H   H305      1.0  0.53975  0.35252  0.13845  1.0000
  H   H306      1.0  0.55709  0.39300  0.15591  1.0000
  H   H307      1.0  0.60864  0.39848  0.09308  1.0000
  H   H308      1.0  0.59149  0.35772  0.07585  1.0000
  C   C373      1.0  0.46998  0.26962  0.01009  1.0000
  C   C374      1.0  0.52760  0.03685  0.39531  1.0000
  C   C375      1.0  0.48608  0.29051  0.00655  1.0000
  C   C376      1.0  0.59104  0.31243  0.15845  1.0000
  H   H309      1.0  0.49358  0.30053  0.02290  1.0000
  C   C377      1.0  0.48348  0.18155  0.43318  1.0000
  S   S69       1.0  0.32213  0.45475  0.14100  1.0000
  C   C378      1.0  0.33575  0.10064  0.21003  1.0000
  C   C379      1.0  0.45149  0.10141  0.47248  1.0000
  C   C380      1.0  0.50488  0.45458  0.15591  1.0000
  C   C381      1.0  0.38769  0.25286  0.08111  1.0000
  P   P12       1.0  0.48671  0.43266  0.13659  1.0000
  C   C382      1.0  0.50505  0.41993  0.11055  1.0000
  C   C383      1.0  0.47701  0.40804  0.15836  1.0000
  C   C384      1.0  0.49308  0.38732  0.16326  1.0000
  H   H310      1.0  0.32465  0.28982  0.98360  1.0000
  H   H311      1.0  0.44360  0.02369  0.35118  1.0000
  C   C385      1.0  0.31817  0.11861  0.21867  1.0000
  C   C386      1.0  0.60287  0.16158  0.30746  1.0000
  C   C387      1.0  0.52418  0.43464  0.09914  1.0000
  C   C388      1.0  0.53910  0.42432  0.07976  1.0000
  C   C389      1.0  0.53444  0.39960  0.07101  1.0000
  C   C390      1.0  0.51469  0.38529  0.08147  1.0000
  C   C391      1.0  0.49992  0.39541  0.10110  1.0000
  H   H312      1.0  0.52111  0.36065  0.98685  1.0000
  H   H313      1.0  0.49310  0.18343  0.39341  1.0000
  C   C392      1.0  0.49616  0.13000  0.42970  1.0000
  C   C393      1.0  0.64732  0.35443  0.05714  1.0000
  H   H314      1.0  0.61993  0.37478  0.99795  1.0000
  C   C394      1.0  0.56755  0.42349  0.01566  1.0000
  H   H315      1.0  0.56915  0.08739  0.47043  1.0000
  Fe  Fe34      1.0  0.63459  0.10795  0.46856  1.0000
  C   C395      1.0  0.49871  0.98795  0.29594  1.0000
  C   C396      1.0  0.37676  0.22919  0.07577  1.0000
  H   H316      1.0  0.58073  0.28182  0.18354  1.0000
  H   H317      1.0  0.51105  0.38562  0.15361  1.0000
  H   H318      1.0  0.50095  0.47993  0.03983  1.0000
  C   C397      1.0  0.43463  0.33346  0.03444  1.0000
  H   H319      1.0  0.57171  0.31562  0.15202  1.0000
  H   H320      1.0  0.52814  0.45378  0.10572  1.0000
  H   H321      1.0  0.55490  0.43516  0.07226  1.0000
  H   H322      1.0  0.54662  0.39114  0.05675  1.0000
  H   H323      1.0  0.48493  0.38383  0.10926  1.0000
  C   C398      1.0  0.62819  0.16921  0.30477  1.0000
  H   H324      1.0  0.49794  0.35203  0.18354  1.0000
  H   H325      1.0  0.58612  0.34509  0.02437  1.0000
  C   C399      1.0  0.46771  0.48141  0.01608  1.0000
  H   H326      1.0  0.50950  0.07306  0.40100  1.0000
  Fe  Fe35      1.0  0.62809  0.45056  0.12269  1.0000
  C   C400      1.0  0.62109  0.28909  0.18422  1.0000
  S   S70       1.0  0.31762  0.13033  0.46913  1.0000
  H   H327      1.0  0.43972  0.41145  0.11622  1.0000
  H   H328      1.0  0.61967  0.99140  0.32321  1.0000
  C   C401      1.0  0.39142  0.31997  0.02533  1.0000
  P   P13       1.0  0.36960  0.29454  0.01772  1.0000
  H   H329      1.0  0.34221  0.03218  0.43284  1.0000
  H   H330      1.0  0.45458  0.32882  0.03627  1.0000
  C   C402      1.0  0.32825  0.31502  0.04323  1.0000
  C   C403      1.0  0.64252  0.32836  0.09479  1.0000
  C   C404      1.0  0.42007  0.03334  0.38323  1.0000
  C   C405      1.0  0.56295  0.02175  0.31725  1.0000
  H   H331      1.0  0.57432  0.47702  0.99211  1.0000
  C   C406      1.0  0.58737  0.01344  0.31111  1.0000
  H   H332      1.0  0.62932  0.40945  0.02819  1.0000
  H   H333      1.0  0.35145  0.40986  0.03337  1.0000
  C   C407      1.0  0.64665  0.16069  0.32197  1.0000
  C   C408      1.0  0.43075  0.01657  0.36562  1.0000
  C   C409      1.0  0.40322  0.02428  0.40166  1.0000
  C   C410      1.0  0.57317  0.30681  0.02869  1.0000
  C   C411      1.0  0.49296  0.29814  0.98180  1.0000
  C   C412      1.0  0.63982  0.14444  0.34201  1.0000
  C   C413      1.0  0.48098  0.01537  0.40888  1.0000
  H   H334      1.0  0.55734  0.26895  0.02837  1.0000
  H   H335      1.0  0.42032  0.00821  0.45106  1.0000
  H   H336      1.0  0.47389  0.17399  0.47186  1.0000
  H   H337      1.0  0.46465  0.46100  0.01663  1.0000
  C   C414      1.0  0.35397  0.39845  0.99385  1.0000
  C   C415      1.0  0.55435  0.28692  0.99170  1.0000
  H   H338      1.0  0.42457  0.05345  0.38218  1.0000
  C   C416      1.0  0.53069  0.10090  0.47402  1.0000
  H   H339      1.0  0.36312  0.34983  0.02817  1.0000
  C   C417      1.0  0.55203  0.01499  0.34047  1.0000
  C   C418      1.0  0.34226  0.40011  0.01767  1.0000
  H   H340      1.0  0.39423  0.29095  0.06836  1.0000
  C   C419      1.0  0.59594  0.14561  0.32748  1.0000
  C   C420      1.0  0.61084  0.32726  0.14878  1.0000
  C   C421      1.0  0.50720  0.05256  0.40176  1.0000
  C   C422      1.0  0.38298  0.34493  0.02983  1.0000
  H   H341      1.0  0.54554  0.04548  0.39005  1.0000
  H   H342      1.0  0.61834  0.00789  0.47131  1.0000
  C   C423      1.0  0.48685  0.13971  0.45276  1.0000
  C   C424      1.0  0.41701  0.44315  0.10392  1.0000
  H   H343      1.0  0.35495  0.20713  0.04896  1.0000
  C   C425      1.0  0.48383  0.04186  0.40836  1.0000
  H   H344      1.0  0.45741  0.09887  0.43167  1.0000
  H   H345      1.0  0.62149  0.16122  0.38900  1.0000
  H   H346      1.0  0.39344  0.38270  0.04217  1.0000
  C   C426      1.0  0.63602  0.32278  0.15627  1.0000
  H   H347      1.0  0.64410  0.35750  0.03707  1.0000
  C   C427      1.0  0.32990  0.21726  0.35352  1.0000
  H   H348      1.0  0.50107  0.11008  0.42788  1.0000
  H   H349      1.0  0.44849  0.24039  0.99096  1.0000
  C   C428      1.0  0.58067  0.38577  0.99222  1.0000
  H   H350      1.0  0.54111  0.43646  0.14852  1.0000
  H   H351      1.0  0.54312  0.40270  0.99055  1.0000
  C   C429      1.0  0.44519  0.09439  0.44746  1.0000
  C   C430      1.0  0.50141  0.99956  0.40250  1.0000
  H   H352      1.0  0.39297  0.36837  0.98265  1.0000
  H   H353      1.0  0.37228  0.40740  0.99115  1.0000
  P   P14       1.0  0.48072  0.11844  0.47915  1.0000
  C   C431      1.0  0.63845  0.33223  0.06880  1.0000
  C   C432      1.0  0.61430  0.13725  0.34474  1.0000
  H   H354      1.0  0.55304  0.43717  0.02077  1.0000
  C   C433      1.0  0.32928  0.23007  0.37681  1.0000
  H   H355      1.0  0.42428  0.29547  0.02341  1.0000
  H   H356      1.0  0.61824  0.18216  0.43045  1.0000
  C   C434      1.0  0.33675  0.30419  0.02037  1.0000
  C   C435      1.0  0.59614  0.29333  0.17614  1.0000
  H   H357      1.0  0.53296  0.02148  0.34456  1.0000
  S   S71       1.0  0.33821  0.07200  0.48009  1.0000
  C   C436      1.0  0.38262  0.46395  0.02927  1.0000
  H   H358      1.0  0.62814  0.31813  0.05782  1.0000
  C   C437      1.0  0.36153  0.47102  0.01479  1.0000
  H   H359      1.0  0.32935  0.08424  0.19924  1.0000
  C   C438      1.0  0.56197  0.40376  0.99859  1.0000
  C   C439      1.0  0.42232  0.08200  0.44224  1.0000
  C   C440      1.0  0.59179  0.42545  0.02642  1.0000
  C   C441      1.0  0.61052  0.40785  0.01989  1.0000
  C   C442      1.0  0.60509  0.38822  0.00277  1.0000
  C   C443      1.0  0.58539  0.98742  0.45786  1.0000
  H   H360      1.0  0.51155  0.36589  0.07512  1.0000
  H   H361      1.0  0.57828  0.30602  0.04864  1.0000
  C   C444      1.0  0.45836  0.47362  0.11775  1.0000
  C   C445      1.0  0.36349  0.22548  0.05304  1.0000
  C   C446      1.0  0.57759  0.32902  0.01473  1.0000
  H   H362      1.0  0.34787  0.45682  0.00864  1.0000
  S   S72       1.0  0.33539  0.46785  0.08152  1.0000
  S   S73       1.0  0.62366  0.47231  0.08648  1.0000
  C   C447      1.0  0.57349  0.99517  0.41388  1.0000
  C   C448      1.0  0.44687  0.39128  0.18899  1.0000
  H   H363      1.0  0.62314  0.37557  0.16589  1.0000
  C   C449      1.0  0.39387  0.26182  0.98356  1.0000
  C   C450      1.0  0.59007  0.99142  0.35143  1.0000
  H   H364      1.0  0.59620  0.44054  0.03984  1.0000
  H   H365      1.0  0.60867  0.12492  0.36017  1.0000
  C   C451      1.0  0.49182  0.17144  0.41010  1.0000
  C   C452      1.0  0.42299  0.19470  0.19731  1.0000
  C   C453      1.0  0.43040  0.18543  0.17358  1.0000
  C   C454      1.0  0.42918  0.15933  0.16848  1.0000
  C   C455      1.0  0.42091  0.14243  0.18726  1.0000
  C   C456      1.0  0.41451  0.15147  0.21155  1.0000
  C   C457      1.0  0.41479  0.17785  0.21615  1.0000
  P   P15       1.0  0.40337  0.12961  0.23559  1.0000
  C   C458      1.0  0.40841  0.14197  0.26724  1.0000
  C   C459      1.0  0.37004  0.12495  0.22934  1.0000
  C   C460      1.0  0.36164  0.10387  0.21518  1.0000
  C   C461      1.0  0.43890  0.43197  0.11404  1.0000
  H   H366      1.0  0.50382  0.13774  0.39028  1.0000
  C   C462      1.0  0.35236  0.14321  0.23749  1.0000
  C   C463      1.0  0.43033  0.15615  0.27277  1.0000
  C   C464      1.0  0.43502  0.16473  0.29749  1.0000
  C   C465      1.0  0.41803  0.15884  0.31698  1.0000
  C   C466      1.0  0.39651  0.14410  0.31181  1.0000
  C   C467      1.0  0.39174  0.13556  0.28705  1.0000
  C   C468      1.0  0.42040  0.09977  0.23542  1.0000
  C   C469      1.0  0.44497  0.09820  0.22525  1.0000
  C   C470      1.0  0.45896  0.07567  0.22731  1.0000
  C   C471      1.0  0.44855  0.05453  0.23957  1.0000
  C   C472      1.0  0.42415  0.05594  0.24984  1.0000
  C   C473      1.0  0.41016  0.07851  0.24796  1.0000
  H   H367      1.0  0.42430  0.21494  0.20124  1.0000
  H   H368      1.0  0.43756  0.19853  0.15935  1.0000
  H   H369      1.0  0.43506  0.15220  0.15009  1.0000
  H   H370      1.0  0.41992  0.12228  0.18294  1.0000
  H   H371      1.0  0.40906  0.18549  0.23435  1.0000
  H   H372      1.0  0.37504  0.08999  0.20798  1.0000
  H   H373      1.0  0.54466  0.27087  0.98299  1.0000
  H   H374      1.0  0.35862  0.15998  0.24778  1.0000
  H   H375      1.0  0.44414  0.16002  0.25810  1.0000
  H   H376      1.0  0.45223  0.17530  0.30166  1.0000
  H   H377      1.0  0.42197  0.16502  0.33625  1.0000
  H   H378      1.0  0.38398  0.13871  0.32721  1.0000
  H   H379      1.0  0.37544  0.12347  0.28357  1.0000
  H   H380      1.0  0.45382  0.11459  0.21655  1.0000
  H   H381      1.0  0.47824  0.07496  0.22017  1.0000
  H   H382      1.0  0.45968  0.03731  0.24190  1.0000
  H   H383      1.0  0.41659  0.03978  0.26018  1.0000
  H   H384      1.0  0.39175  0.07960  0.25700  1.0000
  Fe  Fe36      1.0  0.31951  0.43483  0.10331  1.0000
  H   H385      1.0  0.55247  0.03374  0.30416  1.0000
  H   H386      1.0  0.40093  0.25157  0.99997  1.0000
  C   C474      1.0  0.46262  0.37027  0.19315  1.0000
  C   C475      1.0  0.64168  0.38421  0.16797  1.0000
  H   H387      1.0  0.39427  0.03766  0.41453  1.0000
  H   H388      1.0  0.34551  0.22043  0.34050  1.0000
  C   C476      1.0  0.42602  0.35802  0.03993  1.0000
  C   C477      1.0  0.60089  0.99815  0.32814  1.0000
  H   H389      1.0  0.41734  0.07741  0.42281  1.0000
  C   C478      1.0  0.49814  0.14569  0.40838  1.0000
  C   C479      1.0  0.40024  0.36382  0.03735  1.0000
  P   P16       1.0  0.55176  0.99055  0.38770  1.0000
  H   H390      1.0  0.39789  0.25576  0.09879  1.0000
  C   C480      1.0  0.54523  0.46762  0.17443  1.0000
  H   H391      1.0  0.62499  0.27432  0.19803  1.0000
  H   H392      1.0  0.47855  0.20153  0.43448  1.0000
  C   C481      1.0  0.64342  0.40813  0.17962  1.0000
  H   H393      1.0  0.63546  0.31107  0.10349  1.0000
  C   C482      1.0  0.59354  0.01270  0.41186  1.0000
  C   C483      1.0  0.38022  0.00112  0.45697  1.0000
  C   C484      1.0  0.52473  0.01026  0.39517  1.0000
  C   C485      1.0  0.31913  0.29954  0.00082  1.0000
  H   H394      1.0  0.37863  0.21374  0.08928  1.0000
  C   C486      1.0  0.37278  0.26906  0.04051  1.0000
  C   C487      1.0  0.41742  0.31455  0.02712  1.0000
  C   C488      1.0  0.53123  0.45146  0.15857  1.0000
  H   H395      1.0  0.58859  0.16793  0.29401  1.0000
  H   H396      1.0  0.38712  0.06814  0.45735  1.0000
  C   C489      1.0  0.63778  0.16085  0.40146  1.0000
  C   C490      1.0  0.45935  0.44724  0.12191  1.0000
  H   H397      1.0  0.35092  0.24229  0.01804  1.0000
  H   H398      1.0  0.59569  0.01880  0.29309  1.0000
  C   C491      1.0  0.60566  0.00445  0.45545  1.0000
  H   H399      1.0  0.44163  0.42633  0.16877  1.0000
  C   C492      1.0  0.38567  0.27279  0.06364  1.0000
  H   H400      1.0  0.56567  0.46528  0.17587  1.0000
  H   H401      1.0  0.63349  0.18161  0.28923  1.0000
  H   H402      1.0  0.42877  0.39257  0.19864  1.0000
  C   C493      1.0  0.31829  0.38944  0.02141  1.0000
  C   C494      1.0  0.36133  0.24539  0.03554  1.0000
  H   H403      1.0  0.45669  0.35523  0.20590  1.0000
  C   C495      1.0  0.60960  0.01721  0.43255  1.0000
  H   H404      1.0  0.60659  0.34209  0.13524  1.0000
  H   H405      1.0  0.59664  0.02320  0.39449  1.0000
  C   C496      1.0  0.57022  0.33040  0.98907  1.0000
  H   H406      1.0  0.41601  0.47708  0.04899  1.0000
  P   P17       1.0  0.37470  0.98707  0.42613  1.0000
  C   C497      1.0  0.56572  0.00015  0.35794  1.0000
  H   H407      1.0  0.39816  0.47829  0.09448  1.0000
  C   C498      1.0  0.33274  0.01897  0.42013  1.0000
  C   C499      1.0  0.40455  0.00949  0.46415  1.0000
  C   C500      1.0  0.48087  0.16576  0.45442  1.0000
  C   C501      1.0  0.39745  0.99820  0.40300  1.0000
  C   C502      1.0  0.45411  0.41023  0.17180  1.0000
  C   C503      1.0  0.56141  0.28585  0.01726  1.0000
  H   H408      1.0  0.38548  0.44418  0.03437  1.0000
  H   H409      1.0  0.46790  0.05411  0.41278  1.0000
  H   H410      1.0  0.62512  0.03072  0.43094  1.0000
  C   C504      1.0  0.36036  0.00231  0.47467  1.0000
  C   C505      1.0  0.37823  0.28331  0.98643  1.0000
  H   H411      1.0  0.34440  0.24319  0.38181  1.0000
  H   H412      1.0  0.62637  0.41758  0.18626  1.0000
  C   C506      1.0  0.64099  0.30376  0.17436  1.0000
  H   H413      1.0  0.63871  0.09295  0.33193  1.0000
  C   C507      1.0  0.46068  0.25677  0.98845  1.0000
  C   C508      1.0  0.55016  0.08308  0.47715  1.0000
  C   C509      1.0  0.34397  0.99564  0.41356  1.0000
  H   H414      1.0  0.40090  0.43141  0.09863  1.0000
  C   C510      1.0  0.32649  0.13994  0.23230  1.0000
  H   H415      1.0  0.53515  0.11898  0.46516  1.0000
  C   C511      1.0  0.40521  0.07691  0.46175  1.0000
  H   H416      1.0  0.46284  0.00709  0.41391  1.0000
  H   H417      1.0  0.47197  0.47455  0.17045  1.0000
  C   C512      1.0  0.49247  0.47286  0.17093  1.0000
  C   C513      1.0  0.41555  0.46957  0.10132  1.0000
  C   C514      1.0  0.64363  0.05758  0.35142  1.0000
  H   H418      1.0  0.34160  0.99536  0.46979  1.0000
  C   C515      1.0  0.47246  0.99148  0.29821  1.0000
  C   C516      1.0  0.42437  0.99075  0.36620  1.0000
  H   H419      1.0  0.63300  0.04688  0.33734  1.0000
  C   C517      1.0  0.64668  0.08391  0.34859  1.0000
  H   H420      1.0  0.43112  0.34136  0.98172  1.0000
  C   C518      1.0  0.39967  0.48253  0.03775  1.0000
  C   C519      1.0  0.56914  0.98301  0.43723  1.0000
  Fe  Fe37      1.0  0.48253  0.29150  0.88788  1.0000
  S   S74       1.0  0.46963  0.32998  0.87445  1.0000
  S   S75       1.0  0.49571  0.29435  0.92966  1.0000
  Fe  Fe38      1.0  0.47928  0.26869  0.83246  1.0000
  S   S76       1.0  0.46632  0.30664  0.81664  1.0000
  S   S77       1.0  0.49044  0.23547  0.80470  1.0000
  Fe  Fe39      1.0  0.49615  0.32483  0.84174  1.0000
  S   S78       1.0  0.51861  0.35970  0.82875  1.0000
  Fe  Fe40      1.0  0.44100  0.30909  0.85099  1.0000
  S   S79       1.0  0.39995  0.32295  0.85235  1.0000
  S   S80       1.0  0.51078  0.28738  0.85571  1.0000
  S   S81       1.0  0.45200  0.27022  0.86606  1.0000
  S   S82       1.0  0.37311  0.43928  0.83072  1.0000
  H   H421      1.0  0.51724  0.17697  0.60836  1.0000
  Fe  Fe41      1.0  0.48625  0.05896  0.67510  1.0000
  S   S83       1.0  0.47879  0.06696  0.63405  1.0000
  S   S84       1.0  0.50042  0.01854  0.68371  1.0000
  Fe  Fe42      1.0  0.47423  0.11491  0.69177  1.0000
  S   S85       1.0  0.46526  0.12564  0.65096  1.0000
  S   S86       1.0  0.46571  0.14341  0.72518  1.0000
  Fe  Fe43      1.0  0.44467  0.08826  0.64763  1.0000
  S   S87       1.0  0.40682  0.07789  0.62928  1.0000
  Fe  Fe44      1.0  0.50031  0.10328  0.64002  1.0000
  S   S88       1.0  0.52352  0.11811  0.60640  1.0000
  S   S89       1.0  0.45087  0.07849  0.68888  1.0000
  S   S90       1.0  0.51064  0.09440  0.68074  1.0000
  H   H422      1.0  0.44556  0.47092  0.82850  1.0000
  H   H423      1.0  0.43881  0.10008  0.51177  1.0000
  C   C520      1.0  0.39695  0.08903  0.59912  1.0000
  C   C521      1.0  0.41101  0.10714  0.58566  1.0000
  C   C522      1.0  0.40150  0.11700  0.56267  1.0000
  C   C523      1.0  0.37814  0.10863  0.55271  1.0000
  C   C524      1.0  0.36461  0.08974  0.56562  1.0000
  C   C525      1.0  0.37394  0.08011  0.58881  1.0000
  H   H424      1.0  0.42881  0.11406  0.59335  1.0000
  C   C526      1.0  0.60035  0.35709  0.94905  1.0000
  H   H425      1.0  0.34661  0.08310  0.55815  1.0000
  H   H426      1.0  0.36304  0.06602  0.59907  1.0000
  C   C527      1.0  0.55298  0.10710  0.59412  1.0000
  C   C528      1.0  0.56921  0.09142  0.60816  1.0000
  C   C529      1.0  0.59289  0.08406  0.59803  1.0000
  C   C530      1.0  0.60053  0.09211  0.57373  1.0000
  C   C531      1.0  0.58402  0.10726  0.55944  1.0000
  C   C532      1.0  0.56048  0.11484  0.56967  1.0000
  H   H427      1.0  0.56379  0.08547  0.62703  1.0000
  H   H428      1.0  0.60558  0.07240  0.60923  1.0000
  H   H429      1.0  0.58965  0.11361  0.54073  1.0000
  H   H430      1.0  0.54823  0.12704  0.55863  1.0000
  C   C533      1.0  0.54800  0.25816  0.90334  1.0000
  H   H431      1.0  0.48687  0.25337  0.73849  1.0000
  H   H432      1.0  0.40751  0.21972  0.70010  1.0000
  H   H433      1.0  0.44692  0.00124  0.68302  1.0000
  H   H434      1.0  0.60190  0.31782  0.79825  1.0000
  C   C534      1.0  0.48306  0.20943  0.78316  1.0000
  C   C535      1.0  0.45835  0.19997  0.77957  1.0000
  C   C536      1.0  0.45350  0.17988  0.76204  1.0000
  C   C537      1.0  0.47313  0.16869  0.74757  1.0000
  C   C538      1.0  0.49785  0.17815  0.75116  1.0000
  C   C539      1.0  0.50273  0.19809  0.76884  1.0000
  H   H435      1.0  0.44287  0.20818  0.79028  1.0000
  H   H436      1.0  0.43428  0.17298  0.75963  1.0000
  H   H437      1.0  0.51332  0.16990  0.74047  1.0000
  H   H438      1.0  0.52199  0.20471  0.77146  1.0000
  C   C540      1.0  0.39298  0.35561  0.84736  1.0000
  C   C541      1.0  0.36837  0.36479  0.85228  1.0000
  C   C542      1.0  0.36206  0.39045  0.84765  1.0000
  C   C543      1.0  0.38033  0.40716  0.83800  1.0000
  C   C544      1.0  0.40504  0.39810  0.83354  1.0000
  C   C545      1.0  0.41139  0.37249  0.83828  1.0000
  H   H439      1.0  0.35407  0.35200  0.85960  1.0000
  H   H440      1.0  0.34299  0.39722  0.85118  1.0000
  H   H441      1.0  0.41929  0.41089  0.82611  1.0000
  H   H442      1.0  0.43041  0.36571  0.83442  1.0000
  C   C546      1.0  0.55012  0.36830  0.83738  1.0000
  C   C547      1.0  0.56141  0.38938  0.82547  1.0000
  C   C548      1.0  0.58639  0.39692  0.83154  1.0000
  C   C549      1.0  0.60035  0.38355  0.84977  1.0000
  C   C550      1.0  0.58917  0.36225  0.86153  1.0000
  C   C551      1.0  0.56411  0.35475  0.85552  1.0000
  H   H443      1.0  0.55081  0.39997  0.81138  1.0000
  H   H444      1.0  0.59486  0.41311  0.82210  1.0000
  H   H445      1.0  0.59989  0.35158  0.87541  1.0000
  H   H446      1.0  0.55561  0.33849  0.86481  1.0000
  H   H447      1.0  0.34283  0.44589  0.78411  1.0000
  C   C552      1.0  0.48401  0.28512  0.96016  1.0000
  H   H448      1.0  0.52687  0.16213  0.68794  1.0000
  H   H449      1.0  0.46063  0.25407  0.94727  1.0000
  C   C553      1.0  0.43926  0.40507  0.92259  1.0000
  C   C554      1.0  0.48306  0.41490  0.79863  1.0000
  C   C555      1.0  0.46306  0.42628  0.78538  1.0000
  C   C556      1.0  0.44985  0.44664  0.79624  1.0000
  C   C557      1.0  0.45661  0.45564  0.82035  1.0000
  C   C558      1.0  0.47689  0.44451  0.83370  1.0000
  C   C559      1.0  0.48989  0.42389  0.82270  1.0000
  P   P18       1.0  0.48423  0.45404  0.86593  1.0000
  C   C560      1.0  0.51733  0.44708  0.87196  1.0000
  C   C561      1.0  0.52467  0.43253  0.89316  1.0000
  C   C562      1.0  0.56822  0.43274  0.87865  1.0000
  C   C563      1.0  0.53588  0.45472  0.85443  1.0000
  C   C564      1.0  0.46505  0.43559  0.88745  1.0000
  C   C565      1.0  0.45562  0.41163  0.88018  1.0000
  C   C566      1.0  0.44256  0.39657  0.89764  1.0000
  H   H450      1.0  0.56131  0.04745  0.55488  1.0000
  C   C567      1.0  0.57250  0.03101  0.54964  1.0000
  C   C568      1.0  0.56206  0.28047  0.89984  1.0000
  H   H451      1.0  0.49298  0.39867  0.79061  1.0000
  H   H452      1.0  0.45748  0.41900  0.76692  1.0000
  H   H453      1.0  0.50491  0.41418  0.83292  1.0000
  H   H454      1.0  0.44529  0.43574  0.94912  1.0000
  C   C569      1.0  0.44661  0.24855  0.74282  1.0000
  H   H455      1.0  0.32712  0.02494  0.63829  1.0000
  H   H456      1.0  0.45851  0.40429  0.86116  1.0000
  H   H457      1.0  0.43520  0.37819  0.89174  1.0000
  H   H458      1.0  0.35854  0.99011  0.63567  1.0000
  C   C570      1.0  0.40154  0.15361  0.63656  1.0000
  C   C571      1.0  0.42020  0.34439  0.96456  1.0000
  C   C572      1.0  0.42798  0.33282  0.94200  1.0000
  C   C573      1.0  0.41404  0.33663  0.91979  1.0000
  C   C574      1.0  0.39233  0.35198  0.92005  1.0000
  C   C575      1.0  0.38408  0.36347  0.94271  1.0000
  C   C576      1.0  0.39840  0.35966  0.96496  1.0000
  C   C577      1.0  0.36688  0.41545  0.93197  1.0000
  C   C578      1.0  0.50596  0.09534  0.48239  1.0000
  C   C579      1.0  0.53771  0.26407  0.77143  1.0000
  C   C580      1.0  0.38954  0.44158  0.90135  1.0000
  H   H459      1.0  0.41325  0.23708  0.95725  1.0000
  H   H460      1.0  0.32223  0.40921  0.90582  1.0000
  C   C581      1.0  0.35976  0.43767  0.94506  1.0000
  C   C582      1.0  0.55715  0.25875  0.78875  1.0000
  H   H461      1.0  0.44472  0.32075  0.94172  1.0000
  H   H462      1.0  0.41996  0.32746  0.90234  1.0000
  H   H463      1.0  0.38200  0.35470  0.90249  1.0000
  H   H464      1.0  0.36198  0.47858  0.94665  1.0000
  H   H465      1.0  0.41208  0.13148  0.55272  1.0000
  C   C583      1.0  0.49360  0.18365  0.67773  1.0000
  C   C584      1.0  0.54485  0.36361  0.95344  1.0000
  H   H466      1.0  0.60947  0.22576  0.85590  1.0000
  C   C585      1.0  0.38852  0.02170  0.50560  1.0000
  H   H467      1.0  0.37330  0.31623  0.80058  1.0000
  H   H468      1.0  0.52247  0.02840  0.63004  1.0000
  H   H469      1.0  0.46796  0.17168  0.57272  1.0000
  C   C586      1.0  0.48795  0.19198  0.63285  1.0000
  C   C587      1.0  0.47939  0.19453  0.65798  1.0000
  C   C588      1.0  0.32974  0.34573  0.91735  1.0000
  H   H470      1.0  0.40090  0.13574  0.69863  1.0000
  P   P19       1.0  0.59088  0.27102  0.82811  1.0000
  H   H471      1.0  0.49433  0.08343  0.57416  1.0000
  H   H472      1.0  0.56180  0.29515  0.91430  1.0000
  H   H473      1.0  0.51390  0.12534  0.52399  1.0000
  C   C589      1.0  0.55413  0.30171  0.80526  1.0000
  H   H474      1.0  0.45627  0.01491  0.55070  1.0000
  H   H475      1.0  0.54235  0.15859  0.64351  1.0000
  H   H476      1.0  0.61611  0.02504  0.64063  1.0000
  C   C590      1.0  0.52646  0.28814  0.77102  1.0000
  H   H477      1.0  0.42800  0.17373  0.70238  1.0000
  H   H478      1.0  0.39775  0.08007  0.50185  1.0000
  H   H479      1.0  0.34872  0.01436  0.51195  1.0000
  C   C591      1.0  0.51585  0.02210  0.57553  1.0000
  C   C592      1.0  0.61147  0.37947  0.93956  1.0000
  C   C593      1.0  0.49642  0.13577  0.52702  1.0000
  C   C594      1.0  0.59330  0.03475  0.53382  1.0000
  S   S91       1.0  0.64147  0.45923  0.82020  1.0000
  C   C595      1.0  0.41728  0.17502  0.63851  1.0000
  H   H480      1.0  0.56467  0.23960  0.78948  1.0000
  H   H481      1.0  0.53066  0.24919  0.75901  1.0000
  H   H482      1.0  0.54268  0.04722  0.66797  1.0000
  H   H483      1.0  0.53113  0.01509  0.74647  1.0000
  C   C596      1.0  0.60463  0.99033  0.53771  1.0000
  C   C597      1.0  0.34604  0.99755  0.57249  1.0000
  H   H484      1.0  0.39142  0.03026  0.52416  1.0000
  H   H485      1.0  0.55569  0.41425  0.91268  1.0000
  H   H486      1.0  0.40655  0.24046  0.74226  1.0000
  H   H487      1.0  0.48117  0.36571  0.91605  1.0000
  C   C598      1.0  0.46750  0.26453  0.96363  1.0000
  H   H488      1.0  0.42938  0.39327  0.93615  1.0000
  C   C599      1.0  0.35311  0.34108  0.77496  1.0000
  C   C600      1.0  0.61519  0.22427  0.83622  1.0000
  C   C601      1.0  0.54533  0.05990  0.48921  1.0000
  H   H489      1.0  0.43977  0.15055  0.49908  1.0000
  H   H490      1.0  0.42576  0.28825  0.59473  1.0000
  Fe  Fe45      1.0  0.33226  0.10770  0.50259  1.0000
  C   C602      1.0  0.57544  0.28432  0.87723  1.0000
  C   C603      1.0  0.49439  0.06295  0.57132  1.0000
  C   C604      1.0  0.52189  0.36613  0.91337  1.0000
  C   C605      1.0  0.60940  0.01452  0.52779  1.0000
  C   C606      1.0  0.42633  0.18306  0.66235  1.0000
  C   C607      1.0  0.47032  0.23455  0.70597  1.0000
  H   H491      1.0  0.44629  0.25712  0.76160  1.0000
  H   H492      1.0  0.59749  0.05383  0.52740  1.0000
  C   C608      1.0  0.49867  0.36410  0.95294  1.0000
  C   C609      1.0  0.38353  0.46343  0.91526  1.0000
  H   H493      1.0  0.31948  0.02472  0.55702  1.0000
  H   H494      1.0  0.61770  0.46308  0.96377  1.0000
  C   C610      1.0  0.31653  0.41447  0.78381  1.0000
  H   H495      1.0  0.35085  0.99028  0.55389  1.0000
  C   C611      1.0  0.35732  0.98768  0.59462  1.0000
  C   C612      1.0  0.49428  0.99752  0.74546  1.0000
  H   H496      1.0  0.31574  0.47339  0.75700  1.0000
  C   C613      1.0  0.60914  0.33333  0.94044  1.0000
  P   P20       1.0  0.54373  0.00384  0.58433  1.0000
  C   C614      1.0  0.46111  0.44430  0.91238  1.0000
  C   C615      1.0  0.37133  0.29732  0.96481  1.0000
  C   C616      1.0  0.47304  0.02438  0.55802  1.0000
  C   C617      1.0  0.42498  0.22702  0.70822  1.0000
  C   C618      1.0  0.41633  0.23836  0.63489  1.0000
  H   H497      1.0  0.37294  0.29953  0.92382  1.0000
  C   C619      1.0  0.57484  0.26578  0.85793  1.0000
  H   H498      1.0  0.47671  0.19904  0.61716  1.0000
  H   H499      1.0  0.38394  0.12250  0.65655  1.0000
  H   H500      1.0  0.51092  0.29204  0.75811  1.0000
  C   C620      1.0  0.54704  0.23979  0.88410  1.0000
  C   C621      1.0  0.56018  0.24369  0.86135  1.0000
  H   H501      1.0  0.39942  0.26101  0.91911  1.0000
  H   H502      1.0  0.59064  0.44928  0.92774  1.0000
  C   C622      1.0  0.41131  0.08353  0.48674  1.0000
  H   H503      1.0  0.52561  0.32544  0.78790  1.0000
  H   H504      1.0  0.55970  0.31628  0.81872  1.0000
  S   S92       1.0  0.36621  0.12307  0.52473  1.0000
  C   C623      1.0  0.60861  0.24320  0.81857  1.0000
  H   H505      1.0  0.39853  0.01289  0.61364  1.0000
  C   C624      1.0  0.58443  0.01517  0.61658  1.0000
  H   H506      1.0  0.53536  0.22294  0.88644  1.0000
  H   H507      1.0  0.55839  0.22977  0.84621  1.0000
  H   H508      1.0  0.40098  0.22699  0.64255  1.0000
  C   C625      1.0  0.47064  0.16214  0.55466  1.0000
  Fe  Fe46      1.0  0.33638  0.45920  0.84223  1.0000
  H   H509      1.0  0.63338  0.35197  0.80422  1.0000
  S   S93       1.0  0.62774  0.07143  0.48915  1.0000
  C   C626      1.0  0.40482  0.14713  0.68193  1.0000
  H   H510      1.0  0.44004  0.02791  0.62766  1.0000
  H   H511      1.0  0.40008  0.44313  0.88373  1.0000
  H   H512      1.0  0.52191  0.36675  0.89275  1.0000
  C   C627      1.0  0.61508  0.31653  0.81396  1.0000
  C   C628      1.0  0.40116  0.25365  0.95934  1.0000
  Fe  Fe47      1.0  0.64606  0.09111  0.52239  1.0000
  C   C629      1.0  0.49304  0.14871  0.55003  1.0000
  C   C630      1.0  0.38116  0.41771  0.90959  1.0000
  H   H513      1.0  0.48421  0.01550  0.74454  1.0000
  C   C631      1.0  0.51085  0.17947  0.62777  1.0000
  C   C632      1.0  0.46958  0.24638  0.72978  1.0000
  H   H514      1.0  0.42281  0.18489  0.62136  1.0000
  P   P21       1.0  0.35656  0.38430  0.94242  1.0000
  C   C633      1.0  0.63235  0.29474  0.85069  1.0000
  C   C634      1.0  0.51638  0.17102  0.67260  1.0000
  C   C635      1.0  0.42023  0.16874  0.68398  1.0000
  S   S94       1.0  0.63045  0.46139  0.88161  1.0000
  C   C636      1.0  0.47297  0.05079  0.56138  1.0000
  H   H515      1.0  0.38554  0.40114  0.89817  1.0000
  H   H516      1.0  0.59663  0.00664  0.60241  1.0000
  C   C637      1.0  0.61413  0.29615  0.83120  1.0000
  C   C638      1.0  0.37845  0.28893  0.94058  1.0000
  C   C639      1.0  0.44811  0.22420  0.69528  1.0000
  C   C640      1.0  0.56600  0.27778  0.80539  1.0000
  C   C641      1.0  0.55869  0.30908  0.97765  1.0000
  C   C642      1.0  0.45167  0.16302  0.53609  1.0000
  H   H517      1.0  0.48077  0.36274  0.96294  1.0000
  H   H518      1.0  0.34017  0.33255  0.92913  1.0000
  C   C643      1.0  0.63326  0.33574  0.81693  1.0000
  H   H519      1.0  0.48677  0.18433  0.69705  1.0000
  H   H520      1.0  0.36867  0.34226  0.76157  1.0000
  H   H521      1.0  0.56237  0.36461  0.91604  1.0000
  H   H522      1.0  0.58777  0.42671  0.88089  1.0000
  C   C644      1.0  0.52103  0.05463  0.49848  1.0000
  C   C645      1.0  0.49448  0.01011  0.56476  1.0000
  H   H523      1.0  0.58926  0.04555  0.67354  1.0000
  C   C646      1.0  0.40865  0.01976  0.48840  1.0000
  H   H524      1.0  0.39468  0.14732  0.61816  1.0000
  C   C647      1.0  0.32130  0.02699  0.59783  1.0000
  H   H525      1.0  0.51091  0.42601  0.90689  1.0000
  C   C648      1.0  0.55429  0.03812  0.65365  1.0000
  C   C649      1.0  0.54293  0.02760  0.63198  1.0000
  C   C650      1.0  0.58403  0.98657  0.55406  1.0000
  C   C651      1.0  0.43016  0.27312  0.60801  1.0000
  C   C652      1.0  0.58059  0.03713  0.65684  1.0000
  H   H526      1.0  0.43418  0.17328  0.53969  1.0000
  H   H527      1.0  0.60478  0.39804  0.94554  1.0000
  H   H528      1.0  0.36061  0.31479  0.96676  1.0000
  C   C653      1.0  0.59293  0.46937  0.93176  1.0000
  C   C654      1.0  0.56760  0.00691  0.55995  1.0000
  C   C655      1.0  0.54484  0.36494  0.92675  1.0000
  C   C656      1.0  0.41471  0.00052  0.61087  1.0000
  C   C657      1.0  0.62882  0.33207  0.92265  1.0000
  C   C658      1.0  0.44159  0.23369  0.64211  1.0000
  C   C659      1.0  0.52506  0.16902  0.64763  1.0000
  C   C660      1.0  0.45528  0.26898  0.61562  1.0000
  S   S95       1.0  0.63099  0.08324  0.56229  1.0000
  C   C661      1.0  0.44828  0.42903  0.92990  1.0000
  H   H529      1.0  0.58550  0.30209  0.87463  1.0000
  H   H530      1.0  0.55218  0.30982  0.95812  1.0000
  C   C662      1.0  0.55005  0.42554  0.89648  1.0000
  C   C663      1.0  0.32484  0.43878  0.77695  1.0000
  C   C664      1.0  0.53468  0.30693  0.78792  1.0000
  C   C665      1.0  0.41069  0.25788  0.61773  1.0000
  H   H531      1.0  0.45620  0.06186  0.55674  1.0000
  H   H532      1.0  0.60079  0.31580  0.94722  1.0000
  H   H533      1.0  0.53705  0.25555  0.92058  1.0000
  C   C666      1.0  0.43454  0.09528  0.49221  1.0000
  P   P22       1.0  0.44894  0.20884  0.66453  1.0000
  H   H534      1.0  0.53169  0.05845  0.58696  1.0000
  C   C667      1.0  0.51561  0.04868  0.57859  1.0000
  H   H535      1.0  0.48830  0.23323  0.69613  1.0000
  H   H536      1.0  0.50773  0.14813  0.56445  1.0000
  H   H537      1.0  0.39119  0.26125  0.61204  1.0000
  H   H538      1.0  0.46843  0.46265  0.91837  1.0000
  C   C668      1.0  0.46097  0.24946  0.63276  1.0000
  H   H539      1.0  0.48047  0.24671  0.63877  1.0000
  H   H540      1.0  0.47034  0.28098  0.60832  1.0000
  C   C669      1.0  0.45490  0.15006  0.51309  1.0000
  H   H541      1.0  0.62610  0.01786  0.51625  1.0000
  C   C670      1.0  0.31762  0.37520  0.97759  1.0000
  C   C671      1.0  0.59565  0.02554  0.63836  1.0000
  C   C672      1.0  0.55796  0.01635  0.61307  1.0000
  C   C673      1.0  0.39539  0.13961  0.65824  1.0000
  H   H542      1.0  0.34684  0.43693  0.96095  1.0000
  C   C674      1.0  0.36444  0.01280  0.49876  1.0000
  C   C675      1.0  0.33591  0.32521  0.81443  1.0000
  H   H543      1.0  0.63230  0.27887  0.86381  1.0000
  C   C676      1.0  0.36825  0.46153  0.93686  1.0000
  C   C677      1.0  0.42430  0.23898  0.73200  1.0000
  S   S96       1.0  0.63184  0.39268  0.85798  1.0000
  H   H544      1.0  0.57073  0.48177  0.89951  1.0000
  C   C678      1.0  0.56120  0.44757  0.85781  1.0000
  C   C679      1.0  0.34181  0.38583  0.97356  1.0000
  C   C680      1.0  0.31964  0.38878  0.90439  1.0000
  C   C681      1.0  0.49887  0.36568  0.92647  1.0000
  H   H545      1.0  0.49399  0.98971  0.56210  1.0000
  C   C682      1.0  0.33387  0.37208  0.91958  1.0000
  C   C683      1.0  0.39341  0.26715  0.93785  1.0000
  C   C684      1.0  0.35004  0.99740  0.61838  1.0000
  C   C685      1.0  0.47725  0.13618  0.50843  1.0000
  C   C686      1.0  0.50140  0.07228  0.49511  1.0000
  C   C687      1.0  0.48554  0.98813  0.68053  1.0000
  H   H546      1.0  0.38948  0.48195  0.90845  1.0000
  C   C688      1.0  0.33224  0.01712  0.61994  1.0000
  C   C689      1.0  0.52156  0.36296  0.96639  1.0000
  C   C690      1.0  0.60828  0.47713  0.95201  1.0000
  H   H547      1.0  0.51748  0.03697  0.50847  1.0000
  H   H548      1.0  0.42730  0.02676  0.49368  1.0000
  H   H549      1.0  0.53077  0.46591  0.83795  1.0000
  C   C691      1.0  0.52078  0.99725  0.74641  1.0000
  H   H550      1.0  0.56054  0.04623  0.49157  1.0000
  H   H551      1.0  0.43386  0.45503  0.78629  1.0000
  P   P23       1.0  0.57411  0.35940  0.97095  1.0000
  C   C692      1.0  0.35571  0.32635  0.79687  1.0000
  C   C693      1.0  0.32811  0.01713  0.57415  1.0000
  C   C694      1.0  0.45918  0.98478  0.68158  1.0000
  H   H552      1.0  0.43668  0.48209  0.87213  1.0000
  H   H553      1.0  0.47821  0.00062  0.62302  1.0000
  C   C695      1.0  0.43849  0.00933  0.61878  1.0000
  H   H554      1.0  0.48277  0.06805  0.50267  1.0000
  H   H555      1.0  0.57543  0.45328  0.84408  1.0000
  H   H556      1.0  0.50567  0.31405  0.97947  1.0000
  C   C696      1.0  0.63124  0.37811  0.92198  1.0000
  H   H557      1.0  0.63409  0.18834  0.84214  1.0000
  H   H558      1.0  0.61339  0.25613  0.77985  1.0000
  C   C697      1.0  0.62937  0.20309  0.82854  1.0000
  C   C698      1.0  0.33074  0.35477  0.77065  1.0000
  H   H559      1.0  0.32921  0.36649  0.75379  1.0000
  H   H560      1.0  0.33834  0.31417  0.83165  1.0000
  H   H561      1.0  0.32830  0.40325  0.79647  1.0000
  C   C699      1.0  0.61754  0.24128  0.79353  1.0000
  H   H562      1.0  0.63961  0.39543  0.91447  1.0000
  H   H563      1.0  0.63541  0.31376  0.91584  1.0000
  Fe  Fe48      1.0  0.64646  0.43346  0.85387  1.0000
  C   C700      1.0  0.63986  0.35445  0.91345  1.0000
  C   C701      1.0  0.45996  0.99397  0.61603  1.0000
  C   C702      1.0  0.63171  0.22009  0.78590  1.0000
  C   C703      1.0  0.63750  0.20092  0.80337  1.0000
  H   H564      1.0  0.52635  0.47986  0.79230  1.0000
  H   H565      1.0  0.63821  0.21853  0.76644  1.0000
  H   H566      1.0  0.59901  0.59168  0.08800  1.0000
  H   H567      1.0  0.53330  0.50243  0.13333  1.0000
  C   C704      1.0  0.53188  0.58246  0.05615  1.0000
  H   H568      1.0  0.39097  0.79795  0.33909  1.0000
  Fe  Fe49      1.0  0.44707  0.63597  0.10763  1.0000
  S   S97       1.0  0.45615  0.67600  0.09501  1.0000
  S   S98       1.0  0.40753  0.62038  0.09929  1.0000
  Fe  Fe50      1.0  0.50134  0.62612  0.12472  1.0000
  S   S99       1.0  0.51451  0.66525  0.11307  1.0000
  S   S100      1.0  0.52365  0.59397  0.14350  1.0000
  Fe  Fe51      1.0  0.47857  0.68001  0.13175  1.0000
  S   S101      1.0  0.47619  0.71892  0.15326  1.0000
  Fe  Fe52      1.0  0.49092  0.65856  0.07755  1.0000
  S   S102      1.0  0.50708  0.66677  0.03794  1.0000
  S   S103      1.0  0.46669  0.64098  0.14539  1.0000
  S   S104      1.0  0.48059  0.61845  0.08816  1.0000
  C   C705      1.0  0.64733  0.81312  0.22141  1.0000
  C   C706      1.0  0.31789  0.85322  0.34722  1.0000
  Fe  Fe53      1.0  0.47636  0.81528  0.28682  1.0000
  S   S105      1.0  0.46343  0.80782  0.32719  1.0000
  S   S106      1.0  0.47630  0.77862  0.26135  1.0000
  Fe  Fe54      1.0  0.48863  0.87197  0.30068  1.0000
  S   S107      1.0  0.47682  0.86729  0.34118  1.0000
  S   S108      1.0  0.50666  0.91054  0.29073  1.0000
  Fe  Fe55      1.0  0.49765  0.83013  0.34007  1.0000
  S   S109      1.0  0.51803  0.81571  0.37543  1.0000
  Fe  Fe56      1.0  0.44376  0.84560  0.32555  1.0000
  S   S110      1.0  0.40539  0.85589  0.34235  1.0000
  S   S111      1.0  0.51208  0.83561  0.30036  1.0000
  S   S112      1.0  0.45396  0.85227  0.28435  1.0000
  C   C707      1.0  0.37719  0.95322  0.43154  1.0000
  S   S113      1.0  0.36570  0.81174  0.44714  1.0000
  C   C708      1.0  0.39654  0.84536  0.37295  1.0000
  C   C709      1.0  0.40902  0.82513  0.38490  1.0000
  C   C710      1.0  0.39950  0.81524  0.40783  1.0000
  C   C711      1.0  0.37756  0.82549  0.41899  1.0000
  C   C712      1.0  0.36546  0.84612  0.40739  1.0000
  C   C713      1.0  0.37518  0.85622  0.38466  1.0000
  H   H569      1.0  0.42550  0.81660  0.37607  1.0000
  H   H570      1.0  0.40882  0.79918  0.41666  1.0000
  H   H571      1.0  0.34850  0.85413  0.41577  1.0000
  H   H572      1.0  0.36581  0.87216  0.37576  1.0000
  C   C714      1.0  0.49308  0.94143  0.29497  1.0000
  C   C715      1.0  0.46694  0.94497  0.29820  1.0000
  C   C716      1.0  0.63848  0.55565  0.98769  1.0000
  H   H573      1.0  0.45449  0.92857  0.29883  1.0000
  H   H574      1.0  0.52915  0.96065  0.29170  1.0000
  C   C717      1.0  0.59841  0.83676  0.40286  1.0000
  C   C718      1.0  0.58847  0.84813  0.38077  1.0000
  C   C719      1.0  0.56386  0.84202  0.37202  1.0000
  C   C720      1.0  0.54910  0.82428  0.38522  1.0000
  C   C721      1.0  0.55921  0.81273  0.40701  1.0000
  C   C722      1.0  0.58364  0.81901  0.41593  1.0000
  H   H575      1.0  0.59987  0.86173  0.37039  1.0000
  H   H576      1.0  0.55647  0.85073  0.35493  1.0000
  H   H577      1.0  0.54818  0.79853  0.41679  1.0000
  H   H578      1.0  0.59122  0.80985  0.43270  1.0000
  C   C723      1.0  0.47557  0.73477  0.18375  1.0000
  C   C724      1.0  0.47881  0.72193  0.20690  1.0000
  C   C725      1.0  0.47885  0.73555  0.23025  1.0000
  C   C726      1.0  0.47557  0.76226  0.23109  1.0000
  C   C727      1.0  0.47200  0.77500  0.20795  1.0000
  C   C728      1.0  0.47206  0.76141  0.18462  1.0000
  H   H579      1.0  0.48156  0.70151  0.20679  1.0000
  H   H580      1.0  0.48165  0.72532  0.24784  1.0000
  H   H581      1.0  0.46917  0.79539  0.20797  1.0000
  H   H582      1.0  0.46945  0.77171  0.16703  1.0000
  C   C729      1.0  0.46562  0.66091  0.00524  1.0000
  C   C730      1.0  0.49207  0.66165  0.00793  1.0000
  C   C731      1.0  0.56752  0.87710  0.45487  1.0000
  H   H583      1.0  0.45370  0.66254  0.02188  1.0000
  H   H584      1.0  0.54581  0.89069  0.25164  1.0000
  C   C732      1.0  0.59687  0.55825  0.11164  1.0000
  C   C733      1.0  0.58827  0.58188  0.10250  1.0000
  C   C734      1.0  0.56602  0.59312  0.11223  1.0000
  C   C735      1.0  0.55206  0.58077  0.13110  1.0000
  C   C736      1.0  0.56094  0.55739  0.14061  1.0000
  C   C737      1.0  0.58305  0.54598  0.13070  1.0000
  H   H585      1.0  0.57612  0.57143  0.99406  1.0000
  H   H586      1.0  0.55984  0.61151  0.10542  1.0000
  H   H587      1.0  0.55062  0.54798  0.15564  1.0000
  H   H588      1.0  0.58961  0.52791  0.13807  1.0000
  C   C738      1.0  0.38138  0.53975  0.12114  1.0000
  C   C739      1.0  0.40585  0.54828  0.12779  1.0000
  C   C740      1.0  0.41429  0.57273  0.12072  1.0000
  C   C741      1.0  0.39808  0.58910  0.10752  1.0000
  C   C742      1.0  0.37366  0.58058  0.10083  1.0000
  C   C743      1.0  0.36541  0.55592  0.10737  1.0000
  H   H589      1.0  0.41821  0.53602  0.13873  1.0000
  H   H590      1.0  0.43312  0.57917  0.12582  1.0000
  H   H591      1.0  0.36101  0.59320  0.09071  1.0000
  H   H592      1.0  0.34647  0.54966  0.10239  1.0000
  H   H593      1.0  0.57349  0.94174  0.40593  1.0000
  C   C744      1.0  0.54867  0.51652  0.03671  1.0000
  C   C745      1.0  0.34352  0.58868  0.16737  1.0000
  C   C746      1.0  0.49125  0.72494  0.00253  1.0000
  C   C747      1.0  0.36864  0.55403  0.18420  1.0000
  C   C748      1.0  0.38582  0.57154  0.19457  1.0000
  C   C749      1.0  0.38240  0.59779  0.19072  1.0000
  C   C750      1.0  0.36061  0.60626  0.17782  1.0000
  P   P24       1.0  0.40440  0.62036  0.20456  1.0000
  C   C751      1.0  0.39375  0.62582  0.23661  1.0000
  C   C752      1.0  0.43659  0.60866  0.20418  1.0000
  C   C753      1.0  0.45459  0.61859  0.22127  1.0000
  C   C754      1.0  0.48006  0.61118  0.21969  1.0000
  C   C755      1.0  0.48775  0.59403  0.20089  1.0000
  C   C756      1.0  0.46999  0.58425  0.18370  1.0000
  C   C757      1.0  0.44454  0.59166  0.18519  1.0000
  C   C758      1.0  0.37628  0.64531  0.24186  1.0000
  C   C759      1.0  0.36779  0.64929  0.26672  1.0000
  C   C760      1.0  0.37638  0.63361  0.28638  1.0000
  C   C761      1.0  0.39333  0.61381  0.28116  1.0000
  C   C762      1.0  0.40189  0.60980  0.25633  1.0000
  C   C763      1.0  0.40631  0.64976  0.18694  1.0000
  C   C764      1.0  0.40221  0.64988  0.16061  1.0000
  C   C765      1.0  0.40557  0.67226  0.14664  1.0000
  C   C766      1.0  0.41355  0.69456  0.15880  1.0000
  C   C767      1.0  0.41802  0.69453  0.18497  1.0000
  C   C768      1.0  0.41461  0.67219  0.19899  1.0000
  H   H594      1.0  0.33359  0.76504  0.43875  1.0000
  S   S114      1.0  0.64167  0.48467  0.14490  1.0000
  C   C769      1.0  0.57100  0.52248  0.05011  1.0000
  H   H595      1.0  0.40192  0.56451  0.20528  1.0000
  H   H596      1.0  0.35692  0.62641  0.17550  1.0000
  H   H597      1.0  0.44912  0.63260  0.23536  1.0000
  H   H598      1.0  0.49400  0.61926  0.23256  1.0000
  H   H599      1.0  0.50764  0.58895  0.19903  1.0000
  H   H600      1.0  0.47624  0.57178  0.16856  1.0000
  H   H601      1.0  0.43130  0.58482  0.17101  1.0000
  H   H602      1.0  0.36920  0.65739  0.22676  1.0000
  H   H603      1.0  0.35449  0.66452  0.27072  1.0000
  H   H604      1.0  0.36979  0.63671  0.30564  1.0000
  H   H605      1.0  0.39979  0.60148  0.29635  1.0000
  H   H606      1.0  0.41478  0.59418  0.25252  1.0000
  H   H607      1.0  0.39723  0.63254  0.15065  1.0000
  H   H608      1.0  0.40279  0.67203  0.12622  1.0000
  H   H609      1.0  0.41711  0.71167  0.14784  1.0000
  H   H610      1.0  0.42493  0.71169  0.19417  1.0000
  H   H611      1.0  0.41914  0.67233  0.21906  1.0000
  H   H612      1.0  0.49410  0.78696  0.98320  1.0000
  C   C770      1.0  0.60256  0.82264  0.21652  1.0000
  H   H613      1.0  0.49942  0.53000  0.15118  1.0000
  H   H614      1.0  0.32725  0.59523  0.15659  1.0000
  H   H615      1.0  0.51853  0.76837  0.45254  1.0000
  H   H616      1.0  0.38424  0.76841  0.30296  1.0000
  C   C771      1.0  0.55423  0.85071  0.24681  1.0000
  Fe  Fe57      1.0  0.33507  0.48897  0.11861  1.0000
  H   H617      1.0  0.43255  0.72786  0.02930  1.0000
  C   C772      1.0  0.47416  0.86092  0.46294  1.0000
  C   C773      1.0  0.37197  0.79129  0.33457  1.0000
  C   C774      1.0  0.57332  0.79696  0.32088  1.0000
  H   H618      1.0  0.61139  0.51672  0.05316  1.0000
  S   S115      1.0  0.62509  0.54509  0.09886  1.0000
  C   C775      1.0  0.50003  0.86298  0.45640  1.0000
  H   H619      1.0  0.55319  0.97017  0.43949  1.0000
  C   C776      1.0  0.35129  0.79980  0.34885  1.0000
  H   H620      1.0  0.50107  0.88653  0.23799  1.0000
  H   H621      1.0  0.58551  0.80590  0.33494  1.0000
  C   C777      1.0  0.59568  0.56806  0.99900  1.0000
  C   C778      1.0  0.40314  0.91527  0.43655  1.0000
  H   H622      1.0  0.58231  0.97778  0.47576  1.0000
  H   H623      1.0  0.46657  0.80233  0.42572  1.0000
  C   C779      1.0  0.51330  0.86991  0.23803  1.0000
  H   H624      1.0  0.35593  0.60102  0.02408  1.0000
  H   H625      1.0  0.39805  0.56541  0.05363  1.0000
  H   H626      1.0  0.31879  0.56532  0.98898  1.0000
  H   H627      1.0  0.33208  0.89040  0.33733  1.0000
  C   C780      1.0  0.35537  0.93851  0.43610  1.0000
  Fe  Fe58      1.0  0.64464  0.83648  0.45298  1.0000
  S   S116      1.0  0.62946  0.84476  0.41314  1.0000
  C   C781      1.0  0.34763  0.56258  0.17043  1.0000
  C   C782      1.0  0.34337  0.58841  0.03441  1.0000
  C   C783      1.0  0.62875  0.56756  0.03107  1.0000
  C   C784      1.0  0.50715  0.65999  0.98592  1.0000
  C   C785      1.0  0.52523  0.57243  0.01173  1.0000
  H   H628      1.0  0.32986  0.52553  0.04366  1.0000
  H   H629      1.0  0.49302  0.86731  0.39226  1.0000
  H   H630      1.0  0.43551  0.85920  0.44918  1.0000
  H   H631      1.0  0.54409  0.62091  0.06409  1.0000
  C   C786      1.0  0.44125  0.74600  0.44512  1.0000
  C   C787      1.0  0.57336  0.48962  0.00837  1.0000
  H   H632      1.0  0.53213  0.57714  0.07599  1.0000
  H   H633      1.0  0.45866  0.81282  0.47093  1.0000
  C   C788      1.0  0.45366  0.79423  0.46382  1.0000
  H   H634      1.0  0.40869  0.52217  0.03943  1.0000
  C   C789      1.0  0.46207  0.86426  0.41865  1.0000
  H   H635      1.0  0.60059  0.97932  0.36435  1.0000
  H   H636      1.0  0.44758  0.86416  0.40392  1.0000
  H   H637      1.0  0.43528  0.50525  0.10538  1.0000
  H   H638      1.0  0.34065  0.75383  0.29212  1.0000
  H   H639      1.0  0.52756  0.66094  0.98760  1.0000
  C   C790      1.0  0.54323  0.95757  0.38270  1.0000
  C   C791      1.0  0.52495  0.56486  0.03726  1.0000
  C   C792      1.0  0.44026  0.59850  0.01785  1.0000
  C   C793      1.0  0.43641  0.48477  0.10770  1.0000
  H   H640      1.0  0.52047  0.55896  0.99695  1.0000
  H   H641      1.0  0.56263  0.89705  0.39658  1.0000
  C   C794      1.0  0.51201  0.52946  0.07855  1.0000
  H   H642      1.0  0.56528  0.86118  0.44200  1.0000
  H   H643      1.0  0.47295  0.55636  0.12257  1.0000
  C   C795      1.0  0.52623  0.51369  0.09470  1.0000
  C   C796      1.0  0.50233  0.52911  0.13086  1.0000
  C   C797      1.0  0.38127  0.90062  0.44004  1.0000
  H   H644      1.0  0.57064  0.53560  0.06607  1.0000
  H   H645      1.0  0.49685  0.50315  0.19835  1.0000
  C   C798      1.0  0.47479  0.53425  0.01590  1.0000
  C   C799      1.0  0.52144  0.51365  0.12080  1.0000
  H   H646      1.0  0.51000  0.71813  0.00726  1.0000
  C   C800      1.0  0.62787  0.82694  0.20972  1.0000
  C   C801      1.0  0.53864  0.87224  0.24566  1.0000
  P   P25       1.0  0.51925  0.53197  0.04524  1.0000
  H   H647      1.0  0.35456  0.81280  0.36444  1.0000
  C   C802      1.0  0.50651  0.86553  0.43067  1.0000
  H   H648      1.0  0.48363  0.84400  0.22659  1.0000
  C   C803      1.0  0.48744  0.54403  0.11473  1.0000
  C   C804      1.0  0.58803  0.89366  0.45136  1.0000
  H   H649      1.0  0.43639  0.97225  0.30116  1.0000
  C   C805      1.0  0.37436  0.51550  0.01752  1.0000
  C   C806      1.0  0.49215  0.54413  0.08864  1.0000
  C   C807      1.0  0.34543  0.56185  0.03176  1.0000
  H   H650      1.0  0.40207  0.96172  0.38402  1.0000
  C   C808      1.0  0.47209  0.72242  0.02072  1.0000
  C   C809      1.0  0.59247  0.91338  0.46867  1.0000
  C   C810      1.0  0.59420  0.51184  0.04283  1.0000
  C   C811      1.0  0.45830  0.78825  0.43833  1.0000
  H   H651      1.0  0.38277  0.88025  0.44294  1.0000
  H   H652      1.0  0.60120  0.89039  0.43586  1.0000
  C   C812      1.0  0.36814  0.77471  0.31416  1.0000
  H   H653      1.0  0.52918  0.76261  0.16379  1.0000
  H   H654      1.0  0.52609  0.86592  0.42463  1.0000
  H   H655      1.0  0.57350  0.85273  0.25373  1.0000
  C   C813      1.0  0.32495  0.59894  0.05040  1.0000
  C   C814      1.0  0.53721  0.75847  0.18231  1.0000
  C   C815      1.0  0.50350  0.84600  0.23163  1.0000
  H   H656      1.0  0.53329  0.71790  0.17772  1.0000
  H   H657      1.0  0.54266  0.79777  0.19204  1.0000
  H   H658      1.0  0.55044  0.77782  0.34886  1.0000
  S   S117      1.0  0.37117  0.50937  0.13162  1.0000
  C   C816      1.0  0.45532  0.86160  0.44413  1.0000
  C   C817      1.0  0.53957  0.73318  0.19016  1.0000
  C   C818      1.0  0.54450  0.77831  0.19855  1.0000
  H   H659      1.0  0.61188  0.77597  0.26056  1.0000
  C   C819      1.0  0.55354  0.78110  0.32877  1.0000
  H   H660      1.0  0.47636  0.71376  0.03894  1.0000
  C   C820      1.0  0.53659  0.82628  0.47606  1.0000
  C   C821      1.0  0.55013  0.50041  0.01541  1.0000
  C   C822      1.0  0.55153  0.91231  0.38827  1.0000
  C   C823      1.0  0.53722  0.77020  0.31082  1.0000
  C   C824      1.0  0.57683  0.80192  0.29501  1.0000
  H   H661      1.0  0.52130  0.75868  0.31697  1.0000
  H   H662      1.0  0.59162  0.81504  0.28934  1.0000
  C   C825      1.0  0.60353  0.57209  0.02410  1.0000
  H   H663      1.0  0.60905  0.92550  0.46655  1.0000
  C   C826      1.0  0.52372  0.95152  0.36547  1.0000
  C   C827      1.0  0.33180  0.97974  0.39581  1.0000
  C   C828      1.0  0.53908  0.60718  0.04952  1.0000
  C   C829      1.0  0.39674  0.56785  0.01254  1.0000
  H   H664      1.0  0.50308  0.92155  0.34645  1.0000
  H   H665      1.0  0.54380  0.49900  0.20078  1.0000
  C   C830      1.0  0.54952  0.72768  0.21416  1.0000
  C   C831      1.0  0.55365  0.77298  0.22306  1.0000
  C   C832      1.0  0.56084  0.79056  0.27681  1.0000
  H   H666      1.0  0.33671  0.94717  0.43682  1.0000
  C   C833      1.0  0.40805  0.57902  0.99108  1.0000
  C   C834      1.0  0.54083  0.77492  0.28495  1.0000
  C   C835      1.0  0.54461  0.82668  0.23998  1.0000
  H   H667      1.0  0.55130  0.70804  0.22018  1.0000
  C   C836      1.0  0.31890  0.78181  0.40441  1.0000
  C   C837      1.0  0.61618  0.79049  0.24660  1.0000
  H   H668      1.0  0.43217  0.97796  0.35200  1.0000
  C   C838      1.0  0.55683  0.74747  0.23045  1.0000
  P   P26       1.0  0.56398  0.79858  0.24363  1.0000
  H   H669      1.0  0.52756  0.76690  0.27139  1.0000
  C   C839      1.0  0.45208  0.76412  0.42898  1.0000
  H   H670      1.0  0.34037  0.90097  0.44260  1.0000
  C   C840      1.0  0.40706  0.57285  0.03668  1.0000
  C   C841      1.0  0.32883  0.54604  0.04533  1.0000
  C   C842      1.0  0.39546  0.50823  0.03215  1.0000
  C   C843      1.0  0.49243  0.51860  0.02843  1.0000
  H   H671      1.0  0.56476  0.74283  0.24885  1.0000
  C   C844      1.0  0.42878  0.58797  0.03928  1.0000
  H   H672      1.0  0.47656  0.55478  0.01640  1.0000
  P   P27       1.0  0.36830  0.54856  0.00996  1.0000
  H   H673      1.0  0.50309  0.81232  0.45673  1.0000
  H   H674      1.0  0.43633  0.72733  0.43781  1.0000
  C   C845      1.0  0.53026  0.78258  0.46185  1.0000
  C   C846      1.0  0.50890  0.96309  0.29411  1.0000
  C   C847      1.0  0.45672  0.96982  0.29953  1.0000
  C   C848      1.0  0.51905  0.82447  0.23276  1.0000
  H   H675      1.0  0.44103  0.53554  0.99277  1.0000
  C   C849      1.0  0.51792  0.92608  0.36005  1.0000
  Fe  Fe59      1.0  0.33181  0.82848  0.46778  1.0000
  H   H676      1.0  0.41829  0.95264  0.42995  1.0000
  C   C850      1.0  0.35740  0.91225  0.43983  1.0000
  H   H677      1.0  0.43626  0.59210  0.05806  1.0000
  C   C851      1.0  0.45439  0.52341  0.00267  1.0000
  H   H678      1.0  0.51089  0.80601  0.22880  1.0000
  H   H679      1.0  0.58766  0.83317  0.20697  1.0000
  C   C852      1.0  0.59660  0.80471  0.23535  1.0000
  C   C853      1.0  0.59540  0.49527  0.02211  1.0000
  H   H680      1.0  0.45692  0.61048  0.02001  1.0000
  C   C854      1.0  0.48764  0.86622  0.41202  1.0000
  H   H681      1.0  0.45554  0.75958  0.40918  1.0000
  C   C855      1.0  0.40116  0.94153  0.43254  1.0000
  C   C856      1.0  0.55453  0.77620  0.47042  1.0000
  H   H682      1.0  0.37184  0.53372  0.18625  1.0000
  H   H683      1.0  0.49890  0.97913  0.40323  1.0000
  C   C857      1.0  0.53180  0.90650  0.37142  1.0000
  C   C858      1.0  0.44739  0.73033  0.01527  1.0000
  C   C859      1.0  0.34358  0.76657  0.30807  1.0000
  C   C860      1.0  0.55743  0.93775  0.39372  1.0000
  H   H684      1.0  0.52763  0.88683  0.36667  1.0000
  H   H685      1.0  0.48095  0.55646  0.07650  1.0000
  H   H686      1.0  0.42162  0.90625  0.43666  1.0000
  H   H687      1.0  0.32359  0.61942  0.05252  1.0000
  C   C861      1.0  0.31667  0.77079  0.42848  1.0000
  C   C862      1.0  0.55081  0.88044  0.47539  1.0000
  H   H688      1.0  0.59003  0.57837  0.03832  1.0000
  C   C863      1.0  0.35745  0.49663  0.00885  1.0000
  H   H689      1.0  0.32641  0.84434  0.33072  1.0000
  H   H690      1.0  0.54147  0.50193  0.08749  1.0000
  H   H691      1.0  0.33477  0.54887  0.16181  1.0000
  H   H692      1.0  0.34061  0.96216  0.38964  1.0000
  C   C864      1.0  0.53218  0.59729  0.00519  1.0000
  H   H693      1.0  0.54556  0.63353  0.01909  1.0000
  C   C865      1.0  0.45100  0.49700  0.00252  1.0000
  H   H694      1.0  0.56169  0.75700  0.46799  1.0000
  H   H695      1.0  0.63473  0.57028  0.05063  1.0000
  C   C866      1.0  0.53965  0.61442  0.02406  1.0000
  H   H696      1.0  0.47430  0.48560  0.12258  1.0000
  C   C867      1.0  0.43659  0.75201  0.47062  1.0000
  H   H697      1.0  0.43503  0.48871  0.99241  1.0000
  H   H698      1.0  0.53219  0.60332  0.98553  1.0000
  H   H699      1.0  0.51332  0.96644  0.35572  1.0000
  H   H700      1.0  0.34070  0.50174  0.99801  1.0000
  C   C868      1.0  0.48825  0.49218  0.02916  1.0000
  C   C869      1.0  0.52148  0.80759  0.46433  1.0000
  H   H701      1.0  0.53356  0.49644  0.00391  1.0000
  H   H702      1.0  0.63237  0.84090  0.19527  1.0000
  H   H703      1.0  0.40809  0.81865  0.47963  1.0000
  P   P28       1.0  0.52473  0.85837  0.48007  1.0000
  H   H704      1.0  0.33768  0.78430  0.39654  1.0000
  C   C870      1.0  0.44188  0.74129  0.99175  1.0000
  Fe  Fe60      1.0  0.64033  0.50543  0.10773  1.0000
  C   C871      1.0  0.64147  0.79483  0.23976  1.0000
  C   C872      1.0  0.53289  0.48651  0.18848  1.0000
  H   H705      1.0  0.61351  0.48702  0.01668  1.0000
  C   C873      1.0  0.64619  0.55924  0.01289  1.0000
  C   C874      1.0  0.42982  0.59418  0.99377  1.0000
  C   C875      1.0  0.32281  0.77520  0.32225  1.0000
  C   C876      1.0  0.32097  0.87946  0.35078  1.0000
  C   C877      1.0  0.32651  0.79203  0.34274  1.0000
  C   C878      1.0  0.50648  0.48893  0.18697  1.0000
  C   C879      1.0  0.44266  0.77629  0.48012  1.0000
  H   H706      1.0  0.55037  0.72875  0.99301  1.0000
  H   H707      1.0  0.58360  0.69576  0.99452  1.0000
  H   H708      1.0  0.42273  0.74752  0.98755  1.0000
  H   H709      1.0  0.51515  0.82791  0.99218  1.0000
  C   C880      1.0  0.40750  0.98161  0.38459  1.0000
  C   C881      1.0  0.52505  0.81342  0.98136  1.0000
  S   S118      1.0  0.33232  0.55348  0.85760  1.0000
  H   H710      1.0  0.38759  0.53025  0.96117  1.0000
  S   S119      1.0  0.58914  0.50718  0.84517  1.0000
  H   H711      1.0  0.45162  0.68894  0.74882  1.0000
  Fe  Fe61      1.0  0.46633  0.61708  0.84321  1.0000
  S   S120      1.0  0.44869  0.65392  0.85501  1.0000
  S   S121      1.0  0.44619  0.58181  0.82810  1.0000
  Fe  Fe62      1.0  0.51904  0.63527  0.85784  1.0000
  S   S122      1.0  0.50510  0.67394  0.87075  1.0000
  S   S123      1.0  0.56036  0.62377  0.86278  1.0000
  Fe  Fe63      1.0  0.47381  0.65159  0.88967  1.0000
  S   S124      1.0  0.45481  0.65701  0.92844  1.0000
  Fe  Fe64      1.0  0.48112  0.67370  0.83481  1.0000
  S   S125      1.0  0.46790  0.70835  0.81053  1.0000
  S   S126      1.0  0.48929  0.61332  0.87887  1.0000
  S   S127      1.0  0.49743  0.63632  0.82086  1.0000
  Fe  Fe65      1.0  0.46755  0.86853  0.67292  1.0000
  S   S128      1.0  0.47162  0.86055  0.63135  1.0000
  S   S129      1.0  0.45046  0.90729  0.68383  1.0000
  Fe  Fe66      1.0  0.48578  0.81403  0.68836  1.0000
  S   S130      1.0  0.49189  0.80326  0.64705  1.0000
  S   S131      1.0  0.49915  0.78605  0.72014  1.0000
  Fe  Fe67      1.0  0.50877  0.84217  0.64141  1.0000
  S   S132      1.0  0.54226  0.85715  0.61843  1.0000
  Fe  Fe68      1.0  0.45431  0.82261  0.63982  1.0000
  S   S133      1.0  0.42739  0.80353  0.61193  1.0000
  S   S134      1.0  0.50572  0.85205  0.68291  1.0000
  S   S135      1.0  0.44705  0.83132  0.68111  1.0000
  S   S136      1.0  0.60933  0.80054  0.53502  1.0000
  S   S137      1.0  0.33576  0.86130  0.55823  1.0000
  C   C882      1.0  0.40249  0.82031  0.59681  1.0000
  C   C883      1.0  0.39646  0.84544  0.60337  1.0000
  C   C884      1.0  0.37612  0.85791  0.59119  1.0000
  C   C885      1.0  0.36196  0.84553  0.57216  1.0000
  C   C886      1.0  0.36832  0.82061  0.56528  1.0000
  C   C887      1.0  0.38834  0.80799  0.57775  1.0000
  H   H712      1.0  0.40718  0.85509  0.61807  1.0000
  H   H713      1.0  0.37130  0.87718  0.59661  1.0000
  H   H714      1.0  0.35746  0.81089  0.55076  1.0000
  H   H715      1.0  0.39284  0.78854  0.57270  1.0000
  C   C888      1.0  0.55965  0.84112  0.59445  1.0000
  C   C889      1.0  0.55839  0.81470  0.59133  1.0000
  C   C890      1.0  0.57351  0.80261  0.57281  1.0000
  C   C891      1.0  0.58989  0.81679  0.55721  1.0000
  C   C892      1.0  0.59067  0.84330  0.55990  1.0000
  C   C893      1.0  0.57569  0.85537  0.57853  1.0000
  H   H716      1.0  0.54631  0.80356  0.60365  1.0000
  H   H717      1.0  0.57298  0.78210  0.57094  1.0000
  H   H718      1.0  0.60323  0.85442  0.54803  1.0000
  H   H719      1.0  0.57682  0.87582  0.58085  1.0000
  C   C894      1.0  0.46435  0.93819  0.68085  1.0000
  C   C895      1.0  0.55188  0.56227  0.72742  1.0000
  C   C896      1.0  0.49061  0.94162  0.67892  1.0000
  C   C897      1.0  0.38557  0.77164  0.51854  1.0000
  H   H720      1.0  0.50293  0.92516  0.67839  1.0000
  C   C898      1.0  0.47697  0.72909  0.78477  1.0000
  C   C899      1.0  0.45851  0.74514  0.77369  1.0000
  C   C900      1.0  0.46469  0.76222  0.75373  1.0000
  C   C901      1.0  0.48966  0.76395  0.74464  1.0000
  C   C902      1.0  0.50811  0.74789  0.75575  1.0000
  C   C903      1.0  0.50184  0.73051  0.77542  1.0000
  H   H721      1.0  0.43919  0.74438  0.78059  1.0000
  H   H722      1.0  0.45017  0.77431  0.74561  1.0000
  H   H723      1.0  0.52749  0.74892  0.74906  1.0000
  H   H724      1.0  0.51640  0.71852  0.78359  1.0000
  C   C904      1.0  0.46965  0.65769  0.95887  1.0000
  C   C905      1.0  0.62617  0.52468  0.78636  1.0000
  C   C906      1.0  0.36438  0.61595  0.78801  1.0000
  H   H725      1.0  0.59568  0.62825  0.81688  1.0000
  H   H726      1.0  0.50787  0.65603  0.94494  1.0000
  C   C907      1.0  0.58175  0.53951  0.85143  1.0000
  C   C908      1.0  0.60021  0.55729  0.85865  1.0000
  C   C909      1.0  0.59344  0.58303  0.86243  1.0000
  C   C910      1.0  0.56826  0.59119  0.85874  1.0000
  C   C911      1.0  0.54987  0.57336  0.85148  1.0000
  C   C912      1.0  0.55661  0.54766  0.84795  1.0000
  H   H727      1.0  0.61970  0.55128  0.86096  1.0000
  H   H728      1.0  0.60784  0.59669  0.86796  1.0000
  H   H729      1.0  0.53051  0.57944  0.84825  1.0000
  H   H730      1.0  0.54234  0.53407  0.84204  1.0000
  C   C913      1.0  0.36440  0.56058  0.85032  1.0000
  C   C914      1.0  0.37945  0.54365  0.83636  1.0000
  C   C915      1.0  0.40447  0.55039  0.82973  1.0000
  C   C916      1.0  0.41485  0.57387  0.83738  1.0000
  C   C917      1.0  0.40004  0.59052  0.85188  1.0000
  C   C918      1.0  0.37484  0.58398  0.85811  1.0000
  H   H731      1.0  0.37161  0.52559  0.83021  1.0000
  H   H732      1.0  0.41581  0.53738  0.81855  1.0000
  H   H733      1.0  0.40793  0.60853  0.85803  1.0000
  H   H734      1.0  0.36333  0.59711  0.86897  1.0000
  C   C919      1.0  0.55755  0.68101  0.93716  1.0000
  C   C920      1.0  0.57379  0.67962  0.95813  1.0000
  H   H735      1.0  0.57242  0.94921  0.66059  1.0000
  H   H736      1.0  0.58884  0.78982  0.48793  1.0000
  H   H737      1.0  0.52134  0.96892  0.67785  1.0000
  H   H738      1.0  0.40713  0.97827  0.54625  1.0000
  H   H739      1.0  0.50556  0.59812  0.92964  1.0000
  H   H740      1.0  0.43405  0.65943  0.97897  1.0000
  C   C921      1.0  0.60935  0.54464  0.74007  1.0000
  H   H741      1.0  0.43828  0.60313  0.97725  1.0000
  C   C922      1.0  0.49143  0.53154  0.87501  1.0000
  C   C923      1.0  0.46618  0.53948  0.87674  1.0000
  C   C924      1.0  0.56370  0.59252  0.77308  1.0000
  H   H742      1.0  0.53136  0.60621  0.75147  1.0000
  C   C925      1.0  0.39151  0.92734  0.63146  1.0000
  C   C926      1.0  0.37296  0.93864  0.61584  1.0000
  C   C927      1.0  0.48916  0.86652  0.55973  1.0000
  H   H743      1.0  0.50656  0.54555  0.87567  1.0000
  H   H744      1.0  0.46173  0.55959  0.87840  1.0000
  C   C928      1.0  0.39518  0.96207  0.54179  1.0000
  C   C929      1.0  0.54593  0.61092  0.76525  1.0000
  H   H745      1.0  0.36850  0.52812  0.91804  1.0000
  C   C930      1.0  0.56453  0.64174  0.79408  1.0000
  C   C931      1.0  0.53828  0.69933  0.93645  1.0000
  C   C932      1.0  0.58219  0.62357  0.80200  1.0000
  C   C933      1.0  0.45219  0.49568  0.87297  1.0000
  H   H746      1.0  0.55670  0.95633  0.70397  1.0000
  C   C934      1.0  0.51972  0.55348  0.79092  1.0000
  C   C935      1.0  0.34439  0.70470  0.74667  1.0000
  H   H747      1.0  0.46834  0.73907  0.85603  1.0000
  H   H748      1.0  0.51747  0.57396  0.79096  1.0000
  H   H749      1.0  0.58153  0.80290  0.95185  1.0000
  C   C936      1.0  0.41983  0.67833  0.77225  1.0000
  C   C937      1.0  0.62831  0.56837  0.92854  1.0000
  C   C938      1.0  0.54232  0.51513  0.77883  1.0000
  H   H750      1.0  0.51792  0.77410  0.91060  1.0000
  C   C939      1.0  0.47603  0.73993  0.87514  1.0000
  H   H751      1.0  0.53567  0.96128  0.54908  1.0000
  H   H752      1.0  0.59085  0.90282  0.74149  1.0000
  C   C940      1.0  0.50426  0.51218  0.80445  1.0000
  H   H753      1.0  0.33349  0.65183  0.83227  1.0000
  C   C941      1.0  0.56246  0.88762  0.67770  1.0000
  H   H754      1.0  0.35417  0.91951  0.56864  1.0000
  C   C942      1.0  0.45775  0.96998  0.60468  1.0000
  H   H755      1.0  0.58024  0.93141  0.50325  1.0000
  C   C943      1.0  0.41078  0.76472  0.52392  1.0000
  Fe  Fe69      1.0  0.31888  0.84725  0.52100  1.0000
  H   H756      1.0  0.33297  0.93878  0.60605  1.0000
  C   C944      1.0  0.42280  0.63707  0.79252  1.0000
  H   H757      1.0  0.47115  0.90016  0.54501  1.0000
  H   H758      1.0  0.47454  0.64827  0.75555  1.0000
  H   H759      1.0  0.32174  0.90394  0.63535  1.0000
  H   H760      1.0  0.52533  0.91585  0.55584  1.0000
  C   C945      1.0  0.36271  0.92180  0.52918  1.0000
  C   C946      1.0  0.52183  0.91960  0.59631  1.0000
  C   C947      1.0  0.50104  0.96642  0.67881  1.0000
  H   H761      1.0  0.51700  0.89975  0.59918  1.0000
  C   C948      1.0  0.50194  0.53868  0.80401  1.0000
  C   C949      1.0  0.49715  0.50568  0.87191  1.0000
  H   H762      1.0  0.53037  0.82874  0.52768  1.0000
  C   C950      1.0  0.46321  0.77669  0.55833  1.0000
  H   H763      1.0  0.34275  0.70330  0.72619  1.0000
  C   C951      1.0  0.32852  0.59309  0.80555  1.0000
  C   C952      1.0  0.58172  0.48756  0.91594  1.0000
  C   C953      1.0  0.35836  0.68652  0.76013  1.0000
  H   H764      1.0  0.41110  0.93344  0.63116  1.0000
  C   C954      1.0  0.58793  0.91242  0.75948  1.0000
  H   H765      1.0  0.51014  0.83280  0.56955  1.0000
  C   C955      1.0  0.41553  0.74191  0.53703  1.0000
  H   H766      1.0  0.42698  0.52789  0.87673  1.0000
  H   H767      1.0  0.43246  0.94221  0.58844  1.0000
  C   C956      1.0  0.48400  0.88457  0.54097  1.0000
  C   C957      1.0  0.52381  0.93595  0.61716  1.0000
  H   H768      1.0  0.58854  0.66525  0.95876  1.0000
  H   H769      1.0  0.52586  0.77153  0.57326  1.0000
  C   C958      1.0  0.54968  0.81802  0.97260  1.0000
  C   C959      1.0  0.56436  0.92341  0.76544  1.0000
  H   H770      1.0  0.46029  0.97486  0.74313  1.0000
  P   P29       1.0  0.53795  0.92111  0.74365  1.0000
  C   C960      1.0  0.51828  0.89402  0.75180  1.0000
  S   S138      1.0  0.31826  0.48943  0.81764  1.0000
  C   C961      1.0  0.43400  0.96116  0.59651  1.0000
  C   C962      1.0  0.34117  0.91063  0.63440  1.0000
  C   C963      1.0  0.40971  0.86760  0.52181  1.0000
  C   C964      1.0  0.37641  0.93417  0.51016  1.0000
  S   S139      1.0  0.33501  0.86646  0.48672  1.0000
  C   C965      1.0  0.49783  0.88718  0.73605  1.0000
  C   C966      1.0  0.48325  0.86559  0.74140  1.0000
  C   C967      1.0  0.48951  0.85007  0.76197  1.0000
  C   C968      1.0  0.50991  0.85659  0.77772  1.0000
  C   C969      1.0  0.52419  0.87855  0.77277  1.0000
  C   C970      1.0  0.55041  0.91631  0.71196  1.0000
  C   C971      1.0  0.55331  0.89151  0.70232  1.0000
  H   H771      1.0  0.41060  0.69656  0.76966  1.0000
  C   C972      1.0  0.56910  0.90838  0.66257  1.0000
  C   C973      1.0  0.60471  0.92568  0.80033  1.0000
  C   C974      1.0  0.56245  0.79932  0.95867  1.0000
  H   H772      1.0  0.55999  0.59826  0.67410  1.0000
  H   H773      1.0  0.56449  0.66051  0.80271  1.0000
  H   H774      1.0  0.36733  0.67102  0.74990  1.0000
  H   H775      1.0  0.58188  0.96817  0.56302  1.0000
  C   C975      1.0  0.36872  0.53780  0.95803  1.0000
  C   C976      1.0  0.63338  0.53329  0.74186  1.0000
  H   H776      1.0  0.40324  0.96382  0.50165  1.0000
  P   P30       1.0  0.56243  0.56064  0.76008  1.0000
  H   H777      1.0  0.48270  0.93417  0.74326  1.0000
  H   H778      1.0  0.49340  0.89827  0.71927  1.0000
  H   H779      1.0  0.46752  0.86049  0.72906  1.0000
  H   H780      1.0  0.47882  0.83272  0.76538  1.0000
  H   H781      1.0  0.51489  0.84433  0.79348  1.0000
  H   H782      1.0  0.54011  0.88294  0.78503  1.0000
  H   H783      1.0  0.54833  0.87507  0.71367  1.0000
  C   C977      1.0  0.52051  0.95088  0.74487  1.0000
  H   H784      1.0  0.54358  0.90292  0.50924  1.0000
  C   C978      1.0  0.57101  0.69681  0.97824  1.0000
  C   C979      1.0  0.56085  0.81962  0.48492  1.0000
  H   H785      1.0  0.56400  0.86844  0.67010  1.0000
  H   H786      1.0  0.52047  0.92860  0.63607  1.0000
  C   C980      1.0  0.51156  0.86187  0.51162  1.0000
  H   H787      1.0  0.55886  0.83608  0.97663  1.0000
  H   H788      1.0  0.57449  0.59561  0.71865  1.0000
  C   C981      1.0  0.46502  0.77905  0.53183  1.0000
  C   C982      1.0  0.34861  0.70833  0.79955  1.0000
  C   C983      1.0  0.43297  0.83138  0.53812  1.0000
  H   H789      1.0  0.40737  0.70055  0.90210  1.0000
  C   C984      1.0  0.57257  0.56912  0.94185  1.0000
  C   C985      1.0  0.55192  0.71532  0.97745  1.0000
  H   H790      1.0  0.39913  0.70953  0.55602  1.0000
  H   H791      1.0  0.56074  0.76173  0.94260  1.0000
  H   H792      1.0  0.47362  0.70808  0.93118  1.0000
  H   H793      1.0  0.42835  0.95758  0.68348  1.0000
  H   H794      1.0  0.54400  0.62094  0.91515  1.0000
  C   C986      1.0  0.57000  0.59246  0.92909  1.0000
  C   C987      1.0  0.33461  0.72646  0.78603  1.0000
  C   C988      1.0  0.54005  0.54180  0.77815  1.0000
  H   H795      1.0  0.41593  0.72698  0.86384  1.0000
  C   C989      1.0  0.31949  0.55582  0.94949  1.0000
  H   H796      1.0  0.49040  0.50086  0.81456  1.0000
  C   C990      1.0  0.38122  0.94990  0.56101  1.0000
  C   C991      1.0  0.39286  0.95410  0.51648  1.0000
  H   H797      1.0  0.51316  0.53208  0.68487  1.0000
  C   C992      1.0  0.60805  0.91369  0.77684  1.0000
  C   C993      1.0  0.41315  0.82912  0.49664  1.0000
  C   C994      1.0  0.39534  0.72684  0.54550  1.0000
  C   C995      1.0  0.44596  0.63274  0.78034  1.0000
  C   C996      1.0  0.41215  0.97607  0.60021  1.0000
  C   C997      1.0  0.35983  0.89928  0.64952  1.0000
  C   C998      1.0  0.46874  0.72185  0.89315  1.0000
  H   H798      1.0  0.54279  0.94307  0.79444  1.0000
  H   H799      1.0  0.37405  0.92840  0.49053  1.0000
  H   H800      1.0  0.38129  0.78879  0.50798  1.0000
  C   C999      1.0  0.55064  0.77599  0.95353  1.0000
  H   H801      1.0  0.57735  0.52725  0.90763  1.0000
  C   C1000     1.0  0.56104  0.58167  0.71151  1.0000
  S   S140      1.0  0.62637  0.85586  0.48630  1.0000
  C   C1001     1.0  0.60219  0.53591  0.78456  1.0000
  H   H802      1.0  0.48037  0.86807  0.57822  1.0000
  C   C1002     1.0  0.50588  0.84651  0.55476  1.0000
  C   C1003     1.0  0.34765  0.93033  0.61776  1.0000
  H   H803      1.0  0.55783  0.50565  0.76917  1.0000
  C   C1004     1.0  0.33334  0.54523  0.92950  1.0000
  C   C1005     1.0  0.53494  0.97091  0.58912  1.0000
  C   C1006     1.0  0.44658  0.52156  0.87580  1.0000
  H   H804      1.0  0.50955  0.55597  0.95027  1.0000
  H   H805      1.0  0.63261  0.51705  0.80438  1.0000
  C   C1007     1.0  0.51317  0.79011  0.97624  1.0000
  C   C1008     1.0  0.53504  0.71646  0.95677  1.0000
  C   C1009     1.0  0.47910  0.72253  0.91759  1.0000
  H   H806      1.0  0.52963  0.77615  0.52654  1.0000
  H   H807      1.0  0.42745  0.86639  0.55869  1.0000
  H   H808      1.0  0.55202  0.53794  0.95922  1.0000
  C   C1010     1.0  0.52630  0.92878  0.57186  1.0000
  C   C1011     1.0  0.55292  0.58319  0.68624  1.0000
  C   C1012     1.0  0.52647  0.56625  0.94468  1.0000
  C   C1013     1.0  0.56101  0.93501  0.78926  1.0000
  P   P31       1.0  0.38116  0.96294  0.59284  1.0000
  C   C1014     1.0  0.44870  0.95994  0.68192  1.0000
  H   H809      1.0  0.34986  0.90635  0.52441  1.0000
  H   H810      1.0  0.37989  0.61642  0.77461  1.0000
  H   H811      1.0  0.52597  0.69982  0.92000  1.0000
  H   H812      1.0  0.49946  0.77258  0.86749  1.0000
  C   C1015     1.0  0.53029  0.96156  0.61366  1.0000
  C   C1016     1.0  0.55055  0.55608  0.94956  1.0000
  H   H813      1.0  0.57853  0.94543  0.82483  1.0000
  H   H814      1.0  0.45567  0.70675  0.88798  1.0000
  C   C1017     1.0  0.50410  0.75952  0.90611  1.0000
  C   C1018     1.0  0.37031  0.73417  0.54057  1.0000
  C   C1019     1.0  0.54590  0.60293  0.92500  1.0000
  H   H815      1.0  0.62033  0.92665  0.81374  1.0000
  H   H816      1.0  0.57288  0.83355  0.49429  1.0000
  C   C1020     1.0  0.47751  0.48753  0.87059  1.0000
  H   H817      1.0  0.49128  0.89661  0.50272  1.0000
  C   C1021     1.0  0.49366  0.75878  0.88163  1.0000
  C   C1022     1.0  0.52594  0.77118  0.96236  1.0000
  C   C1023     1.0  0.57622  0.91667  0.48938  1.0000
  H   H818      1.0  0.35347  0.57786  0.77705  1.0000
  C   C1024     1.0  0.51723  0.84425  0.53087  1.0000
  H   H819      1.0  0.45622  0.61520  0.78386  1.0000
  C   C1025     1.0  0.52655  0.54592  0.69231  1.0000
  H   H820      1.0  0.35466  0.72259  0.54726  1.0000
  H   H821      1.0  0.34969  0.70984  0.82003  1.0000
  H   H822      1.0  0.45646  0.75322  0.95575  1.0000
  H   H823      1.0  0.52729  0.52914  0.72936  1.0000
  Fe  Fe70      1.0  0.31813  0.51282  0.85347  1.0000
  C   C1026     1.0  0.49605  0.65751  0.96162  1.0000
  H   H824      1.0  0.39996  0.57662  0.97235  1.0000
  C   C1027     1.0  0.36545  0.75645  0.52695  1.0000
  H   H825      1.0  0.53162  0.97391  0.63012  1.0000
  H   H826      1.0  0.40219  0.88656  0.52452  1.0000
  C   C1028     1.0  0.49541  0.88247  0.51710  1.0000
  C   C1029     1.0  0.53248  0.95441  0.56820  1.0000
  C   C1030     1.0  0.53566  0.56534  0.67665  1.0000
  C   C1031     1.0  0.52447  0.50041  0.79191  1.0000
  C   C1032     1.0  0.49688  0.74133  0.92426  1.0000
  C   C1033     1.0  0.60023  0.52142  0.94142  1.0000
  C   C1034     1.0  0.48913  0.77894  0.52046  1.0000
  H   H827      1.0  0.41557  0.62289  0.80557  1.0000
  H   H828      1.0  0.34604  0.76207  0.52300  1.0000
  H   H829      1.0  0.44328  0.82293  0.55374  1.0000
  Fe  Fe71      1.0  0.62792  0.48825  0.84881  1.0000
  H   H830      1.0  0.57564  0.90518  0.64328  1.0000
  H   H831      1.0  0.51688  0.50018  0.87032  1.0000
  P   P32       1.0  0.51086  0.74100  0.95564  1.0000
  C   C1035     1.0  0.58561  0.51345  0.92054  1.0000
  H   H832      1.0  0.60333  0.55226  0.72198  1.0000
  H   H833      1.0  0.61763  0.97482  0.53366  1.0000
  H   H834      1.0  0.32487  0.54374  0.91075  1.0000
  C   C1036     1.0  0.50895  0.77362  0.56170  1.0000
  H   H835      1.0  0.48637  0.54781  0.81392  1.0000
  C   C1037     1.0  0.55544  0.90034  0.49273  1.0000
  P   P33       1.0  0.60342  0.55503  0.94796  1.0000
  P   P34       1.0  0.43672  0.78442  0.51301  1.0000
  C   C1038     1.0  0.36095  0.68847  0.78661  1.0000
  C   C1039     1.0  0.44319  0.67410  0.76037  1.0000
  H   H836      1.0  0.37483  0.64239  0.85513  1.0000
  C   C1040     1.0  0.39953  0.69986  0.83784  1.0000
  H   H837      1.0  0.62405  0.50855  0.97254  1.0000
  H   H838      1.0  0.62623  0.90530  0.77206  1.0000
  C   C1041     1.0  0.45621  0.65127  0.76433  1.0000
  C   C1042     1.0  0.40917  0.65956  0.78797  1.0000
  H   H839      1.0  0.58631  0.60253  0.92178  1.0000
  C   C1043     1.0  0.40146  0.69400  0.88345  1.0000
  C   C1044     1.0  0.51101  0.77611  0.53535  1.0000
  C   C1045     1.0  0.42405  0.85628  0.54103  1.0000
  H   H840      1.0  0.39942  0.89908  0.66003  1.0000
  H   H841      1.0  0.35491  0.88384  0.66224  1.0000
  C   C1046     1.0  0.53462  0.54434  0.71761  1.0000
  C   C1047     1.0  0.38292  0.66124  0.85673  1.0000
  H   H842      1.0  0.43477  0.73572  0.54078  1.0000
  C   C1048     1.0  0.56715  0.93309  0.67228  1.0000
  P   P35       1.0  0.37915  0.66494  0.80365  1.0000
  C   C1049     1.0  0.59346  0.54585  0.76147  1.0000
  H   H843      1.0  0.48341  0.77263  0.59368  1.0000
  C   C1050     1.0  0.38988  0.67018  0.88081  1.0000
  C   C1051     1.0  0.54647  0.63546  0.77563  1.0000
  C   C1052     1.0  0.49381  0.95139  0.74435  1.0000
  C   C1053     1.0  0.34913  0.59415  0.78893  1.0000
  H   H844      1.0  0.55977  0.66783  0.92141  1.0000
  C   C1054     1.0  0.58173  0.59901  0.79169  1.0000
  H   H845      1.0  0.53252  0.64950  0.76983  1.0000
  C   C1055     1.0  0.56985  0.79474  0.48175  1.0000
  H   H846      1.0  0.38701  0.65830  0.89739  1.0000
  C   C1056     1.0  0.42745  0.81749  0.51593  1.0000
  H   H847      1.0  0.44488  0.77732  0.56762  1.0000
  C   C1057     1.0  0.36524  0.92943  0.55450  1.0000
  H   H848      1.0  0.49112  0.78109  0.50019  1.0000
  C   C1058     1.0  0.52418  0.58990  0.93284  1.0000
  H   H849      1.0  0.47432  0.95791  0.60293  1.0000
  C   C1059     1.0  0.40630  0.70882  0.86196  1.0000
  H   H850      1.0  0.32186  0.73887  0.74914  1.0000
  H   H851      1.0  0.52935  0.56657  0.65707  1.0000
  C   C1060     1.0  0.48507  0.77405  0.57319  1.0000
  C   C1061     1.0  0.38734  0.67620  0.83507  1.0000
  H   H852      1.0  0.59513  0.58515  0.79879  1.0000
  H   H853      1.0  0.40424  0.71118  0.82129  1.0000
  C   C1062     1.0  0.58118  0.93628  0.80656  1.0000
  H   H854      1.0  0.59033  0.53695  0.80120  1.0000
  C   C1063     1.0  0.33816  0.63578  0.82021  1.0000
  C   C1064     1.0  0.55806  0.93704  0.69696  1.0000
  C   C1065     1.0  0.61191  0.50307  0.95689  1.0000
  C   C1066     1.0  0.35959  0.63660  0.80436  1.0000
  C   C1067     1.0  0.35797  0.53632  0.93372  1.0000
  C   C1068     1.0  0.46107  0.74421  0.97364  1.0000
  C   C1069     1.0  0.40436  0.85406  0.49957  1.0000
  C   C1070     1.0  0.38493  0.90776  0.64817  1.0000
  Fe  Fe72      1.0  0.63656  0.82063  0.50803  1.0000
  H   H855      1.0  0.32531  0.74189  0.79607  1.0000
  H   H856      1.0  0.64556  0.53224  0.72533  1.0000
  H   H857      1.0  0.42817  0.73771  0.48276  1.0000
  C   C1071     1.0  0.64178  0.52328  0.76501  1.0000
  C   C1072     1.0  0.48082  0.97461  0.74457  1.0000
  C   C1073     1.0  0.48588  0.73559  0.97866  1.0000
  H   H858      1.0  0.31711  0.57592  0.80678  1.0000
  C   C1074     1.0  0.33261  0.72473  0.75960  1.0000
  S   S141      1.0  0.31864  0.80843  0.50310  1.0000
  H   H859      1.0  0.63769  0.53301  0.90909  1.0000
  C   C1075     1.0  0.32294  0.61396  0.82105  1.0000
  C   C1076     1.0  0.45452  0.65923  0.98084  1.0000
  C   C1077     1.0  0.35503  0.54873  0.97820  1.0000
  C   C1078     1.0  0.33023  0.55758  0.97375  1.0000
  C   C1079     1.0  0.53385  0.97407  0.74628  1.0000
  H   H860      1.0  0.62579  0.60580  0.94568  1.0000
  C   C1080     1.0  0.63549  0.59394  0.93192  1.0000
  S   S142      1.0  0.33872  0.48397  0.87681  1.0000
  H   H861      1.0  0.55441  0.97431  0.74674  1.0000
  C   C1081     1.0  0.64207  0.55305  0.91153  1.0000
  H   H862      1.0  0.46836  0.85753  0.48233  1.0000
  H   H863      1.0  0.39264  0.86250  0.48495  1.0000
  C   C1082     1.0  0.61308  0.55983  0.98059  1.0000
  Fe  Fe73      1.0  0.66402  0.46136  0.07847  1.0000
  S   S143      1.0  0.66760  0.43708  0.11406  1.0000
  C   C1083     1.0  0.68874  0.40859  0.17236  1.0000
  S   S144      1.0  0.81520  0.45635  0.23054  1.0000
  H   H864      1.0  0.76349  0.47204  0.24698  1.0000
  C   C1084     1.0  0.90115  0.28745  0.37473  1.0000
  C   C1085     1.0  0.65554  0.34672  0.10931  1.0000
  H   H865      1.0  0.67524  0.38290  0.10792  1.0000
  S   S145      1.0  0.67297  0.09584  0.45432  1.0000
  Fe  Fe74      1.0  0.86124  0.43201  0.31487  1.0000
  S   S146      1.0  0.87197  0.39395  0.33264  1.0000
  S   S147      1.0  0.87486  0.44009  0.27503  1.0000
  Fe  Fe75      1.0  0.84476  0.31871  0.46126  1.0000
  S   S148      1.0  0.84956  0.27747  0.45074  1.0000
  S   S149      1.0  0.83090  0.35268  0.43834  1.0000
  H   H866      1.0  0.94027  0.40996  0.42468  1.0000
  S   S150      1.0  0.67288  0.02082  0.45952  1.0000
  H   H867      1.0  0.73761  0.31418  0.19053  1.0000
  Fe  Fe76      1.0  0.68168  0.47255  0.13453  1.0000
  C   C1086     1.0  0.79257  0.30358  0.41294  1.0000
  H   H868      1.0  0.76444  0.15284  0.33167  1.0000
  H   H869      1.0  0.70412  0.37659  0.15250  1.0000
  H   H870      1.0  0.97209  0.24510  0.44602  1.0000
  C   C1087     1.0  0.80330  0.25200  0.40371  1.0000
  C   C1088     1.0  0.86038  0.38287  0.36212  1.0000
  C   C1089     1.0  0.87039  0.36025  0.37231  1.0000
  C   C1090     1.0  0.86197  0.35088  0.39588  1.0000
  C   C1091     1.0  0.84307  0.36392  0.40922  1.0000
  C   C1092     1.0  0.83310  0.38655  0.39907  1.0000
  C   C1093     1.0  0.84178  0.39611  0.37568  1.0000
  H   H871      1.0  0.88464  0.34990  0.36178  1.0000
  H   H872      1.0  0.86972  0.33338  0.40348  1.0000
  H   H873      1.0  0.81837  0.39657  0.40928  1.0000
  H   H874      1.0  0.83391  0.41351  0.36800  1.0000
  H   H875      1.0  0.86593  0.37447  0.47788  1.0000
  H   H876      1.0  0.94670  0.44185  0.29145  1.0000
  C   C1094     1.0  0.96326  0.45407  0.29163  1.0000
  H   H877      1.0  0.69208  0.31000  0.10794  1.0000
  H   H878      1.0  0.93522  0.30357  0.42724  1.0000
  H   H879      1.0  0.73918  0.18664  0.35274  1.0000
  C   C1095     1.0  0.81013  0.29684  0.39423  1.0000
  C   C1096     1.0  0.66043  0.37267  0.07140  1.0000
  C   C1097     1.0  0.82760  0.19790  0.31644  1.0000
  C   C1098     1.0  0.78619  0.25902  0.42286  1.0000
  H   H880      1.0  0.80123  0.22789  0.30723  1.0000
  H   H881      1.0  0.77798  0.47952  0.31620  1.0000
  S   S151      1.0  0.87847  0.46736  0.33170  1.0000
  H   H882      1.0  0.92068  0.41190  0.35447  1.0000
  H   H883      1.0  0.83011  0.26631  0.37598  1.0000
  H   H884      1.0  0.65066  0.02497  0.37532  1.0000
  H   H885      1.0  0.94092  0.33229  0.35063  1.0000
  C   C1099     1.0  0.95269  0.42263  0.43521  1.0000
  C   C1100     1.0  0.89805  0.45072  0.40109  1.0000
  C   C1101     1.0  0.88017  0.42663  0.43580  1.0000
  C   C1102     1.0  0.87965  0.44866  0.45086  1.0000
  Fe  Fe77      1.0  0.89046  0.47633  0.29179  1.0000
  H   H886      1.0  0.83112  0.19287  0.29678  1.0000
  C   C1103     1.0  0.76076  0.46038  0.17406  1.0000
  C   C1104     1.0  0.78518  0.46096  0.21429  1.0000
  C   C1105     1.0  0.93311  0.35693  0.44065  1.0000
  H   H887      1.0  0.88951  0.41063  0.39931  1.0000
  H   H888      1.0  0.87287  0.40874  0.44299  1.0000
  C   C1106     1.0  0.93896  0.40398  0.35980  1.0000
  C   C1107     1.0  0.72753  0.31319  0.17257  1.0000
  H   H889      1.0  0.96033  0.43212  0.33929  1.0000
  C   C1108     1.0  0.88946  0.42765  0.41102  1.0000
  P   P36       1.0  0.96448  0.34266  0.40032  1.0000
  H   H890      1.0  0.76029  0.45706  0.15378  1.0000
  C   C1109     1.0  0.76262  0.43035  0.42725  1.0000
  C   C1110     1.0  0.78179  0.44020  0.41179  1.0000
  C   C1111     1.0  0.80479  0.44800  0.42254  1.0000
  C   C1112     1.0  0.80862  0.44603  0.44877  1.0000
  H   H891      1.0  0.90898  0.36736  0.47185  1.0000
  H   H892      1.0  0.89987  0.21160  0.46379  1.0000
  H   H893      1.0  0.92651  0.42740  0.46619  1.0000
  S   S152      1.0  0.92296  0.26255  0.46239  1.0000
  H   H894      1.0  0.74527  0.11032  0.32372  1.0000
  H   H895      1.0  0.73311  0.46704  0.30906  1.0000
  H   H896      1.0  0.90642  0.30339  0.33740  1.0000
  H   H897      1.0  0.69794  0.13764  0.40751  1.0000
  H   H898      1.0  0.77895  0.44157  0.39141  1.0000
  H   H899      1.0  0.66736  0.38994  0.06241  1.0000
  H   H900      1.0  0.66821  0.43908  0.19039  1.0000
  C   C1113     1.0  0.95820  0.35327  0.43242  1.0000
  H   H901      1.0  0.73650  0.14942  0.43241  1.0000
  C   C1114     1.0  0.81571  0.27115  0.38980  1.0000
  C   C1115     1.0  0.73424  0.12510  0.33293  1.0000
  P   P37       1.0  0.81274  0.21915  0.40008  1.0000
  C   C1116     1.0  0.81896  0.21131  0.36734  1.0000
  C   C1117     1.0  0.84060  0.21574  0.41975  1.0000
  C   C1118     1.0  0.86500  0.21987  0.40983  1.0000
  C   C1119     1.0  0.88633  0.21804  0.42565  1.0000
  C   C1120     1.0  0.88338  0.21244  0.45144  1.0000
  C   C1121     1.0  0.85911  0.20904  0.46153  1.0000
  C   C1122     1.0  0.83782  0.21086  0.44577  1.0000
  C   C1123     1.0  0.83532  0.19109  0.36132  1.0000
  C   C1124     1.0  0.83976  0.18454  0.33594  1.0000
  H   H902      1.0  0.69507  0.17808  0.36613  1.0000
  C   C1125     1.0  0.81080  0.21765  0.32233  1.0000
  C   C1126     1.0  0.80632  0.22422  0.34770  1.0000
  C   C1127     1.0  0.78835  0.19700  0.40981  1.0000
  C   C1128     1.0  0.79514  0.17323  0.41998  1.0000
  C   C1129     1.0  0.77641  0.15613  0.42786  1.0000
  C   C1130     1.0  0.75080  0.16242  0.42532  1.0000
  C   C1131     1.0  0.74381  0.18570  0.41453  1.0000
  C   C1132     1.0  0.76252  0.20284  0.40649  1.0000
  C   C1133     1.0  0.94007  0.38204  0.37476  1.0000
  C   C1134     1.0  0.67056  0.45751  0.00785  1.0000
  C   C1135     1.0  0.96359  0.37096  0.38082  1.0000
  C   C1136     1.0  0.78076  0.28469  0.42737  1.0000
  C   C1137     1.0  0.66014  0.14789  0.39476  1.0000
  H   H903      1.0  0.86757  0.22497  0.39010  1.0000
  H   H904      1.0  0.90518  0.22168  0.41825  1.0000
  H   H905      1.0  0.70135  0.10134  0.33711  1.0000
  H   H906      1.0  0.66011  0.30000  0.18081  1.0000
  H   H907      1.0  0.81912  0.20903  0.45400  1.0000
  H   H908      1.0  0.84459  0.18033  0.37625  1.0000
  H   H909      1.0  0.85261  0.16907  0.33140  1.0000
  C   C1138     1.0  0.93224  0.31995  0.36463  1.0000
  C   C1139     1.0  0.92895  0.30392  0.40762  1.0000
  H   H910      1.0  0.79294  0.23931  0.35194  1.0000
  H   H911      1.0  0.81489  0.16802  0.42233  1.0000
  H   H912      1.0  0.78168  0.13827  0.43676  1.0000
  Fe  Fe78      1.0  0.88477  0.27900  0.47581  1.0000
  H   H913      1.0  0.72391  0.19067  0.41299  1.0000
  H   H914      1.0  0.75680  0.22081  0.39822  1.0000
  C   C1140     1.0  0.90935  0.28759  0.39998  1.0000
  C   C1141     1.0  0.73792  0.29967  0.15221  1.0000
  S   S153      1.0  0.70898  0.47410  0.16984  1.0000
  C   C1142     1.0  0.68053  0.14756  0.41206  1.0000
  H   H915      1.0  0.70687  0.41836  0.17363  1.0000
  H   H916      1.0  0.76804  0.28991  0.44268  1.0000
  C   C1143     1.0  0.76298  0.46889  0.22671  1.0000
  H   H917      1.0  0.66613  0.16665  0.31939  1.0000
  C   C1144     1.0  0.69123  0.32487  0.14641  1.0000
  H   H918      1.0  0.77757  0.24478  0.43494  1.0000
  H   H919      1.0  0.78874  0.32351  0.41681  1.0000
  Fe  Fe79      1.0  0.83727  0.46069  0.26896  1.0000
  S   S154      1.0  0.82287  0.44963  0.30784  1.0000
  C   C1145     1.0  0.70424  0.32567  0.16974  1.0000
  C   C1146     1.0  0.65954  0.09821  0.36725  1.0000
  H   H920      1.0  0.95444  0.48118  0.39475  1.0000
  C   C1147     1.0  0.97337  0.36745  0.47380  1.0000
  H   H921      1.0  0.69388  0.15862  0.44933  1.0000
  C   C1148     1.0  0.65611  0.17230  0.44220  1.0000
  H   H922      1.0  0.73306  0.28809  0.11321  1.0000
  C   C1149     1.0  0.76647  0.42811  0.45347  1.0000
  C   C1150     1.0  0.78960  0.43582  0.46442  1.0000
  C   C1151     1.0  0.94009  0.32068  0.39014  1.0000
  H   H923      1.0  0.92253  0.37353  0.38131  1.0000
  H   H924      1.0  0.90445  0.45149  0.38157  1.0000
  C   C1152     1.0  0.97825  0.35963  0.44889  1.0000
  C   C1153     1.0  0.96108  0.44849  0.47231  1.0000
  H   H925      1.0  0.75605  0.29014  0.15437  1.0000
  C   C1154     1.0  0.67020  0.08546  0.38808  1.0000
  C   C1155     1.0  0.66355  0.37221  0.15854  1.0000
  C   C1156     1.0  0.67845  0.15963  0.43569  1.0000
  H   H926      1.0  0.82647  0.45224  0.45684  1.0000
  C   C1157     1.0  0.70930  0.12006  0.34058  1.0000
  C   C1158     1.0  0.97534  0.25991  0.45996  1.0000
  H   H927      1.0  0.75147  0.42012  0.46499  1.0000
  H   H928      1.0  0.67464  0.04966  0.40765  1.0000
  H   H929      1.0  0.91720  0.35298  0.42813  1.0000
  H   H930      1.0  0.88585  0.27492  0.36893  1.0000
  C   C1159     1.0  0.96022  0.48044  0.28940  1.0000
  H   H931      1.0  0.74486  0.42412  0.41884  1.0000
  H   H932      1.0  0.81993  0.31165  0.38377  1.0000
  C   C1160     1.0  0.92830  0.36523  0.46543  1.0000
  Fe  Fe80      1.0  0.66717  0.06025  0.47779  1.0000
  S   S155      1.0  0.66951  0.44353  0.03882  1.0000
  C   C1161     1.0  0.74003  0.47265  0.21293  1.0000
  H   H933      1.0  0.69644  0.33612  0.18571  1.0000
  C   C1162     1.0  0.68707  0.38480  0.16051  1.0000
  C   C1163     1.0  0.66471  0.36874  0.09732  1.0000
  P   P38       1.0  0.66145  0.34162  0.14279  1.0000
  H   H934      1.0  0.81974  0.45516  0.41037  1.0000
  C   C1164     1.0  0.70584  0.16316  0.35684  1.0000
  C   C1165     1.0  0.73080  0.16810  0.34923  1.0000
  C   C1166     1.0  0.74503  0.14905  0.33737  1.0000
  C   C1167     1.0  0.96131  0.41523  0.35101  1.0000
  C   C1168     1.0  0.88832  0.47196  0.44101  1.0000
  C   C1169     1.0  0.66690  0.05919  0.39105  1.0000
  C   C1170     1.0  0.69500  0.13900  0.35282  1.0000
  C   C1171     1.0  0.91275  0.30346  0.35700  1.0000
  H   H935      1.0  0.72320  0.47881  0.22294  1.0000
  C   C1172     1.0  0.66794  0.44168  0.98632  1.0000
  C   C1173     1.0  0.72497  0.29854  0.12902  1.0000
  C   C1174     1.0  0.66692  0.42029  0.18187  1.0000
  C   C1175     1.0  0.94488  0.43256  0.45852  1.0000
  H   H936      1.0  0.90053  0.27508  0.41375  1.0000
  C   C1176     1.0  0.73864  0.46860  0.18641  1.0000
  H   H937      1.0  0.68109  0.09575  0.40207  1.0000
  C   C1177     1.0  0.70170  0.31106  0.12610  1.0000
  C   C1178     1.0  0.95435  0.27213  0.47123  1.0000
  C   C1179     1.0  0.65346  0.04526  0.37281  1.0000
  C   C1180     1.0  0.89729  0.47286  0.41590  1.0000
  H   H938      1.0  0.82571  0.39601  0.46911  1.0000
  C   C1181     1.0  0.67087  0.99031  0.47441  1.0000
  C   C1182     1.0  0.78370  0.45667  0.18783  1.0000
  H   H939      1.0  0.80052  0.45049  0.17781  1.0000
  C   C1183     1.0  0.97688  0.42820  0.42588  1.0000
  H   H940      1.0  0.65423  0.18095  0.46082  1.0000
  P   P39       1.0  0.66328  0.13241  0.36411  1.0000
  H   H941      1.0  0.66468  0.42151  0.98891  1.0000
  H   H942      1.0  0.87198  0.44754  0.46990  1.0000
  C   C1184     1.0  0.83680  0.40184  0.48546  1.0000
  S   S156      1.0  0.68726  0.44550  0.86125  1.0000
  Fe  Fe81      1.0  0.83794  0.45424  0.63022  1.0000
  S   S157      1.0  0.81982  0.43245  0.59729  1.0000
  S   S158      1.0  0.85070  0.43808  0.66758  1.0000
  H   H943      1.0  0.66451  0.31289  0.86863  1.0000
  S   S159      1.0  0.68566  0.07797  0.51213  1.0000
  Fe  Fe82      1.0  0.85755  0.30935  0.51688  1.0000
  S   S160      1.0  0.86311  0.26698  0.51089  1.0000
  S   S161      1.0  0.86814  0.33008  0.55343  1.0000
  C   C1185     1.0  0.77330  0.40862  0.51047  1.0000
  C   C1186     1.0  0.67015  0.45156  0.96143  1.0000
  P   P40       1.0  0.79539  0.43192  0.49808  1.0000
  H   H944      1.0  0.95516  0.45577  0.49064  1.0000
  H   H945      1.0  0.74459  0.43636  0.52070  1.0000
  C   C1187     1.0  0.67147  0.98746  0.50083  1.0000
  H   H946      1.0  0.71480  0.40459  0.53803  1.0000
  H   H947      1.0  0.67313  0.00414  0.51284  1.0000
  C   C1188     1.0  0.83313  0.40374  0.58556  1.0000
  C   C1189     1.0  0.81974  0.38934  0.56737  1.0000
  C   C1190     1.0  0.83039  0.36702  0.55689  1.0000
  C   C1191     1.0  0.85429  0.35863  0.56498  1.0000
  C   C1192     1.0  0.86744  0.37285  0.58346  1.0000
  C   C1193     1.0  0.85705  0.39543  0.59352  1.0000
  H   H948      1.0  0.80118  0.39558  0.56117  1.0000
  H   H949      1.0  0.82000  0.35610  0.54286  1.0000
  H   H950      1.0  0.88586  0.36641  0.58994  1.0000
  H   H951      1.0  0.86757  0.40642  0.60742  1.0000
  C   C1194     1.0  0.91359  0.47603  0.73381  1.0000
  C   C1195     1.0  0.97790  0.44407  0.66632  1.0000
  S   S162      1.0  0.88109  0.32077  0.48335  1.0000
  C   C1196     1.0  0.77742  0.46838  0.74118  1.0000
  C   C1197     1.0  0.90246  0.45215  0.73002  1.0000
  C   C1198     1.0  0.87759  0.44771  0.73808  1.0000
  H   H952      1.0  0.94454  0.37547  0.50165  1.0000
  H   H953      1.0  0.96378  0.45986  0.61672  1.0000
  H   H954      1.0  0.80584  0.18908  0.49376  1.0000
  C   C1199     1.0  0.77915  0.38249  0.50985  1.0000
  C   C1200     1.0  0.86392  0.46704  0.75016  1.0000
  C   C1201     1.0  0.90165  0.38721  0.68814  1.0000
  Fe  Fe83      1.0  0.67002  0.47553  0.88703  1.0000
  C   C1202     1.0  0.65065  0.31387  0.85344  1.0000
  H   H955      1.0  0.72583  0.35862  0.53743  1.0000
  S   S163      1.0  0.79054  0.24316  0.48688  1.0000
  H   H956      1.0  0.90643  0.38846  0.64758  1.0000
  C   C1203     1.0  0.86533  0.41508  0.52825  1.0000
  C   C1204     1.0  0.73897  0.37255  0.52983  1.0000
  Fe  Fe84      1.0  0.88518  0.46363  0.66342  1.0000
  C   C1205     1.0  0.77170  0.45196  0.76162  1.0000
  H   H957      1.0  0.78376  0.43565  0.76503  1.0000
  C   C1206     1.0  0.79127  0.46181  0.51469  1.0000
  H   H958      1.0  0.76694  0.34450  0.51923  1.0000
  H   H959      1.0  0.81372  0.46007  0.82837  1.0000
  C   C1207     1.0  0.95674  0.46013  0.66980  1.0000
  Fe  Fe85      1.0  0.68904  0.11477  0.48958  1.0000
  S   S164      1.0  0.87330  0.47738  0.62478  1.0000
  H   H960      1.0  0.79684  0.37567  0.50200  1.0000
  C   C1208     1.0  0.82725  0.41997  0.50249  1.0000
  C   C1209     1.0  0.89404  0.38293  0.66306  1.0000
  H   H961      1.0  0.91293  0.43734  0.72022  1.0000
  C   C1210     1.0  0.84177  0.42661  0.52389  1.0000
  H   H962      1.0  0.74670  0.44345  0.79335  1.0000
  H   H963      1.0  0.78912  0.44421  0.55184  1.0000
  H   H964      1.0  0.81679  0.30395  0.57494  1.0000
  C   C1211     1.0  0.96515  0.47789  0.60680  1.0000
  Fe  Fe86      1.0  0.68153  0.47320  0.82853  1.0000
  H   H965      1.0  0.89116  0.38475  0.72753  1.0000
  C   C1212     1.0  0.73279  0.39844  0.53017  1.0000
  H   H966      1.0  0.78269  0.35126  0.63196  1.0000
  H   H967      1.0  0.83451  0.43951  0.53810  1.0000
  H   H968      1.0  0.87588  0.41953  0.54540  1.0000
  C   C1213     1.0  0.78200  0.30342  0.71509  1.0000
  C   C1214     1.0  0.80094  0.28872  0.72655  1.0000
  C   C1215     1.0  0.82650  0.29363  0.72132  1.0000
  C   C1216     1.0  0.83316  0.31340  0.70483  1.0000
  C   C1217     1.0  0.81426  0.32874  0.69387  1.0000
  C   C1218     1.0  0.78861  0.32318  0.69857  1.0000
  P   P41       1.0  0.82262  0.35313  0.67132  1.0000
  C   C1219     1.0  0.85390  0.36563  0.67788  1.0000
  C   C1220     1.0  0.82073  0.33796  0.64058  1.0000
  C   C1221     1.0  0.79874  0.34012  0.62557  1.0000
  C   C1222     1.0  0.75056  0.45635  0.77783  1.0000
  C   C1223     1.0  0.81755  0.31296  0.59349  1.0000
  C   C1224     1.0  0.83917  0.31013  0.60864  1.0000
  C   C1225     1.0  0.84073  0.32242  0.63217  1.0000
  C   C1226     1.0  0.86142  0.37056  0.70303  1.0000
  C   C1227     1.0  0.78880  0.46191  0.54125  1.0000
  H   H969      1.0  0.78062  0.33012  0.59013  1.0000
  C   C1228     1.0  0.85985  0.38968  0.49033  1.0000
  C   C1229     1.0  0.87025  0.37221  0.65793  1.0000
  C   C1230     1.0  0.80191  0.38037  0.67387  1.0000
  C   C1231     1.0  0.79039  0.38654  0.69713  1.0000
  C   C1232     1.0  0.77521  0.40828  0.69920  1.0000
  C   C1233     1.0  0.77189  0.42430  0.67830  1.0000
  C   C1234     1.0  0.78373  0.41858  0.65526  1.0000
  C   C1235     1.0  0.79885  0.39681  0.65311  1.0000
  H   H970      1.0  0.76217  0.29934  0.71878  1.0000
  H   H971      1.0  0.79580  0.27331  0.73923  1.0000
  H   H972      1.0  0.84117  0.28192  0.72982  1.0000
  H   H973      1.0  0.85302  0.31650  0.70047  1.0000
  H   H974      1.0  0.77372  0.33402  0.68936  1.0000
  C   C1236     1.0  0.79730  0.32787  0.60198  1.0000
  H   H975      1.0  0.86855  0.42955  0.73431  1.0000
  H   H976      1.0  0.89143  0.38593  0.51618  1.0000
  H   H977      1.0  0.85501  0.29891  0.60172  1.0000
  H   H978      1.0  0.85765  0.31998  0.64362  1.0000
  C   C1237     1.0  0.88535  0.38104  0.70813  1.0000
  C   C1238     1.0  0.87415  0.39623  0.51174  1.0000
  H   H979      1.0  0.84870  0.36655  0.71866  1.0000
  C   C1239     1.0  0.73474  0.47757  0.77422  1.0000
  H   H980      1.0  0.86450  0.36950  0.63841  1.0000
  H   H981      1.0  0.79356  0.37500  0.71384  1.0000
  H   H982      1.0  0.76682  0.41338  0.71730  1.0000
  H   H983      1.0  0.76091  0.44165  0.68029  1.0000
  H   H984      1.0  0.78179  0.43137  0.63924  1.0000
  H   H985      1.0  0.80861  0.39313  0.63538  1.0000
  C   C1240     1.0  0.76211  0.36459  0.51961  1.0000
  S   S165      1.0  0.80472  0.46174  0.72132  1.0000
  C   C1241     1.0  0.74981  0.41641  0.52043  1.0000
  S   S166      1.0  0.82076  0.30990  0.49546  1.0000
  S   S167      1.0  0.92552  0.44693  0.66680  1.0000
  H   H986      1.0  0.92002  0.39580  0.69195  1.0000
  H   H987      1.0  0.97490  0.42418  0.66180  1.0000
  C   C1242     1.0  0.78548  0.18968  0.49118  1.0000
  Fe  Fe87      1.0  0.83016  0.47134  0.68605  1.0000
  H   H988      1.0  0.85005  0.47461  0.80254  1.0000
  S   S168      1.0  0.65059  0.12891  0.50261  1.0000
  H   H989      1.0  0.94308  0.30086  0.49812  1.0000
  C   C1243     1.0  0.73241  0.19019  0.48559  1.0000
  Fe  Fe88      1.0  0.82742  0.26813  0.48653  1.0000
  C   C1244     1.0  0.77338  0.21326  0.48791  1.0000
  H   H990      1.0  0.66850  0.43904  0.94516  1.0000
  C   C1245     1.0  0.95893  0.29126  0.48923  1.0000
  H   H991      1.0  0.71199  0.19076  0.48352  1.0000
  H   H992      1.0  0.84450  0.46336  0.75565  1.0000
  S   S169      1.0  0.72786  0.13647  0.48835  1.0000
  C   C1246     1.0  0.67544  0.47744  0.95767  1.0000
  C   C1247     1.0  0.77126  0.16670  0.49143  1.0000
  C   C1248     1.0  0.81187  0.47684  0.81655  1.0000
  H   H993      1.0  0.64840  0.18445  0.79742  1.0000
  H   H994      1.0  0.93266  0.47955  0.72687  1.0000
  C   C1249     1.0  0.74668  0.21319  0.48511  1.0000
  H   H995      1.0  0.73690  0.23112  0.48265  1.0000
  H   H996      1.0  0.65480  0.35365  0.89931  1.0000
  C   C1250     1.0  0.74457  0.16660  0.48870  1.0000
  H   H997      1.0  0.66475  0.34966  0.83911  1.0000
  H   H998      1.0  0.78105  0.14877  0.49393  1.0000
  C   C1251     1.0  0.65099  0.33445  0.83666  1.0000
  H   H999      1.0  0.85673  0.20566  0.48170  1.0000
  C   C1252     1.0  0.94836  0.37002  0.48216  1.0000
  S   S170      1.0  0.85433  0.49794  0.28267  1.0000
  H   H1000     1.0  0.95726  0.59378  0.28639  1.0000
  H   H1001     1.0  0.87248  0.53885  0.21630  1.0000
  C   C1253     1.0  0.95684  0.64276  0.47030  1.0000
  C   C1254     1.0  0.77424  0.91332  0.39857  1.0000
  H   H1002     1.0  0.81821  0.58753  0.25304  1.0000
  H   H1003     1.0  0.66657  0.92696  0.45830  1.0000
  Fe  Fe89      1.0  0.85995  0.62418  0.44138  1.0000
  S   S171      1.0  0.86553  0.66615  0.44964  1.0000
  S   S172      1.0  0.87457  0.60424  0.40570  1.0000
  H   H1004     1.0  0.65652  0.78390  0.24862  1.0000
  H   H1005     1.0  0.79648  0.51575  0.29312  1.0000
  P   P42       1.0  0.75399  0.87994  0.43452  1.0000
  C   C1255     1.0  0.79131  0.80058  0.42808  1.0000
  H   H1006     1.0  0.82215  0.95694  0.40055  1.0000
  H   H1007     1.0  0.79527  0.90765  0.45966  1.0000
  C   C1256     1.0  0.76877  0.84897  0.43152  1.0000
  C   C1257     1.0  0.74815  0.54348  0.21421  1.0000
  C   C1258     1.0  0.77679  0.51072  0.28980  1.0000
  C   C1259     1.0  0.84730  0.56539  0.23492  1.0000
  S   S173      1.0  0.82208  0.62273  0.46089  1.0000
  C   C1260     1.0  0.95381  0.53366  0.44722  1.0000
  S   S174      1.0  0.68387  0.85171  0.46154  1.0000
  H   H1008     1.0  0.74804  0.84658  0.47937  1.0000
  C   C1261     1.0  0.82330  0.56892  0.24575  1.0000
  H   H1009     1.0  0.86073  0.58102  0.23429  1.0000
  C   C1262     1.0  0.74949  0.72111  0.46802  1.0000
  C   C1263     1.0  0.97004  0.51893  0.39046  1.0000
  C   C1264     1.0  0.76171  0.52503  0.27309  1.0000
  H   H1010     1.0  0.72788  0.53488  0.17964  1.0000
  S   S175      1.0  0.81992  0.51283  0.34760  1.0000
  H   H1011     1.0  0.75248  0.52365  0.21775  1.0000
  H   H1012     1.0  0.94048  0.63478  0.46072  1.0000
  H   H1013     1.0  0.66644  0.90809  0.41409  1.0000
  C   C1265     1.0  0.79383  0.91448  0.44028  1.0000
  H   H1014     1.0  0.77468  0.62216  0.34297  1.0000
  H   H1015     1.0  0.82689  0.82069  0.42612  1.0000
  P   P43       1.0  0.77439  0.55361  0.25898  1.0000
  C   C1266     1.0  0.85918  0.57790  0.39124  1.0000
  C   C1267     1.0  0.87372  0.55999  0.37769  1.0000
  C   C1268     1.0  0.86198  0.54003  0.36415  1.0000
  C   C1269     1.0  0.83551  0.53780  0.36405  1.0000
  C   C1270     1.0  0.82098  0.55558  0.37772  1.0000
  C   C1271     1.0  0.83275  0.57542  0.39145  1.0000
  H   H1016     1.0  0.89416  0.56161  0.37744  1.0000
  H   H1017     1.0  0.87337  0.52651  0.35365  1.0000
  H   H1018     1.0  0.80049  0.55399  0.37771  1.0000
  H   H1019     1.0  0.82134  0.58914  0.40169  1.0000
  H   H1020     1.0  0.73334  0.82808  0.43454  1.0000
  C   C1272     1.0  0.79108  0.93218  0.39028  1.0000
  H   H1021     1.0  0.78710  0.54282  0.43333  1.0000
  C   C1273     1.0  0.83979  0.50561  0.42892  1.0000
  H   H1022     1.0  0.73486  0.61434  0.19855  1.0000
  C   C1274     1.0  0.70502  0.89696  0.42218  1.0000
  C   C1275     1.0  0.75375  0.82685  0.43204  1.0000
  H   H1023     1.0  0.76039  0.90572  0.38536  1.0000
  C   C1276     1.0  0.81577  0.51540  0.42324  1.0000
  S   S176      1.0  0.68106  0.49586  0.09803  1.0000
  H   H1024     1.0  0.73771  0.59227  0.27649  1.0000
  C   C1277     1.0  0.76498  0.80281  0.43014  1.0000
  H   H1025     1.0  0.66845  0.97016  0.43874  1.0000
  C   C1278     1.0  0.81255  0.52510  0.23611  1.0000
  C   C1279     1.0  0.72937  0.57537  0.18692  1.0000
  C   C1280     1.0  0.75428  0.60946  0.30966  1.0000
  C   C1281     1.0  0.79485  0.57596  0.30234  1.0000
  C   C1282     1.0  0.73590  0.51873  0.27021  1.0000
  C   C1283     1.0  0.80645  0.82247  0.42756  1.0000
  C   C1284     1.0  0.77576  0.72007  0.47344  1.0000
  H   H1026     1.0  0.70599  0.49250  0.28002  1.0000
  C   C1285     1.0  0.96725  0.64059  0.39305  1.0000
  C   C1286     1.0  0.94788  0.62316  0.39817  1.0000
  C   C1287     1.0  0.94355  0.60268  0.38170  1.0000
  C   C1288     1.0  0.95804  0.59989  0.35950  1.0000
  C   C1289     1.0  0.97737  0.61763  0.35436  1.0000
  P   P44       1.0  0.95181  0.57359  0.33813  1.0000
  C   C1290     1.0  0.92141  0.57687  0.32225  1.0000
  C   C1291     1.0  0.97702  0.57151  0.31487  1.0000
  H   H1027     1.0  0.93928  0.49630  0.45510  1.0000
  C   C1292     1.0  0.66902  0.96825  0.45918  1.0000
  S   S177      1.0  0.92966  0.49483  0.28634  1.0000
  Fe  Fe90      1.0  0.82858  0.66420  0.47185  1.0000
  C   C1293     1.0  0.74611  0.88610  0.46741  1.0000
  C   C1294     1.0  0.91596  0.56174  0.30087  1.0000
  C   C1295     1.0  0.89173  0.56189  0.29001  1.0000
  C   C1296     1.0  0.87281  0.57752  0.30011  1.0000
  C   C1297     1.0  0.87821  0.59323  0.32087  1.0000
  C   C1298     1.0  0.90242  0.59303  0.33186  1.0000
  C   C1299     1.0  0.95198  0.54452  0.35652  1.0000
  C   C1300     1.0  0.93599  0.52406  0.35008  1.0000
  C   C1301     1.0  0.96897  0.54179  0.37694  1.0000
  C   C1302     1.0  0.93694  0.50137  0.36383  1.0000
  C   C1303     1.0  0.72528  0.88088  0.41552  1.0000
  C   C1304     1.0  0.81061  0.93334  0.43193  1.0000
  C   C1305     1.0  0.74119  0.91110  0.47564  1.0000
  H   H1028     1.0  0.97077  0.65632  0.40601  1.0000
  H   H1029     1.0  0.93598  0.62571  0.41475  1.0000
  H   H1030     1.0  0.92850  0.58933  0.38602  1.0000
  C   C1306     1.0  0.66802  0.94370  0.47018  1.0000
  H   H1031     1.0  0.66693  0.81642  0.21608  1.0000
  C   C1307     1.0  0.72292  0.86529  0.39389  1.0000
  H   H1032     1.0  0.74215  0.92693  0.46251  1.0000
  C   C1308     1.0  0.75202  0.58816  0.22507  1.0000
  H   H1033     1.0  0.71496  0.74381  0.46778  1.0000
  H   H1034     1.0  0.93020  0.54900  0.29317  1.0000
  H   H1035     1.0  0.88752  0.54928  0.27421  1.0000
  H   H1036     1.0  0.85389  0.57718  0.29209  1.0000
  H   H1037     1.0  0.86345  0.60507  0.32903  1.0000
  H   H1038     1.0  0.90574  0.60497  0.34827  1.0000
  H   H1039     1.0  0.92291  0.52519  0.33429  1.0000
  H   H1040     1.0  0.82468  0.94110  0.44488  1.0000
  C   C1309     1.0  0.79490  0.59259  0.32312  1.0000
  H   H1041     1.0  0.71875  0.58025  0.16994  1.0000
  H   H1042     1.0  0.98000  0.51632  0.28723  1.0000
  P   P45       1.0  0.88389  0.50123  0.45853  1.0000
  C   C1310     1.0  0.85323  0.51442  0.45029  1.0000
  C   C1311     1.0  0.70024  0.86485  0.38001  1.0000
  C   C1312     1.0  0.74099  0.48329  0.29915  1.0000
  C   C1313     1.0  0.80534  0.53466  0.43829  1.0000
  C   C1314     1.0  0.90882  0.52346  0.45008  1.0000
  C   C1315     1.0  0.90304  0.54864  0.44308  1.0000
  C   C1316     1.0  0.92252  0.56616  0.43859  1.0000
  C   C1317     1.0  0.94788  0.55881  0.44090  1.0000
  H   H1043     1.0  0.79993  0.78184  0.42725  1.0000
  H   H1044     1.0  0.80735  0.86326  0.42905  1.0000
  H   H1045     1.0  0.92489  0.48564  0.35819  1.0000
  H   H1046     1.0  0.75324  0.78585  0.43104  1.0000
  C   C1318     1.0  0.93438  0.51588  0.45105  1.0000
  H   H1047     1.0  0.66569  0.55549  0.01838  1.0000
  H   H1048     1.0  0.88361  0.55514  0.44126  1.0000
  H   H1049     1.0  0.91779  0.58562  0.43363  1.0000
  C   C1319     1.0  0.73443  0.54984  0.19238  1.0000
  H   H1050     1.0  0.80566  0.50873  0.40652  1.0000
  C   C1320     1.0  0.77481  0.57643  0.28466  1.0000
  H   H1051     1.0  0.84142  0.50333  0.21696  1.0000
  Fe  Fe91      1.0  0.84156  0.48599  0.32153  1.0000
  H   H1052     1.0  0.81036  0.59198  0.33676  1.0000
  C   C1321     1.0  0.83644  0.52168  0.22507  1.0000
  C   C1322     1.0  0.80594  0.54862  0.24681  1.0000
  C   C1323     1.0  0.81885  0.54399  0.45918  1.0000
  S   S178      1.0  0.88137  0.61139  0.47586  1.0000
  C   C1324     1.0  0.85391  0.54171  0.22468  1.0000
  C   C1325     1.0  0.97435  0.58333  0.29110  1.0000
  H   H1053     1.0  0.72350  0.53006  0.25834  1.0000
  C   C1326     1.0  0.75630  0.56250  0.23118  1.0000
  C   C1327     1.0  0.67496  0.48354  0.00407  1.0000
  H   H1054     1.0  0.79921  0.50942  0.23610  1.0000
  H   H1055     1.0  0.81013  0.56226  0.30050  1.0000
  H   H1056     1.0  0.96286  0.57263  0.43760  1.0000
  H   H1057     1.0  0.75948  0.60325  0.23697  1.0000
  H   H1058     1.0  0.73833  0.62209  0.31284  1.0000
  H   H1059     1.0  0.97349  0.52793  0.44891  1.0000
  H   H1060     1.0  0.66199  0.87918  0.37718  1.0000
  C   C1328     1.0  0.79525  0.84661  0.42925  1.0000
  C   C1329     1.0  0.75415  0.59277  0.28888  1.0000
  C   C1330     1.0  0.67992  0.88026  0.38732  1.0000
  H   H1061     1.0  0.69815  0.85208  0.36395  1.0000
  H   H1062     1.0  0.90269  0.49087  0.40743  1.0000
  C   C1331     1.0  0.84264  0.53384  0.46527  1.0000
  H   H1063     1.0  0.73836  0.85306  0.38798  1.0000
  H   H1064     1.0  0.79002  0.93904  0.37090  1.0000
  C   C1332     1.0  0.77471  0.60947  0.32669  1.0000
  C   C1333     1.0  0.73835  0.59454  0.20313  1.0000
  C   C1334     1.0  0.68240  0.89649  0.40821  1.0000
  C   C1335     1.0  0.95372  0.49886  0.38422  1.0000
  H   H1065     1.0  0.70615  0.90925  0.43862  1.0000
  C   C1336     1.0  0.77530  0.90459  0.42375  1.0000
  C   C1337     1.0  0.80920  0.94224  0.40696  1.0000
  S   S179      1.0  0.79298  0.69068  0.46808  1.0000
  S   S180      1.0  0.65182  0.79949  0.47371  1.0000
  H   H1066     1.0  0.84779  0.49150  0.41630  1.0000
  H   H1067     1.0  0.74012  0.70428  0.46070  1.0000
  C   C1338     1.0  0.76637  0.49007  0.30290  1.0000
  H   H1068     1.0  0.67724  0.49598  0.02033  1.0000
  H   H1069     1.0  0.81106  0.55938  0.47049  1.0000
  C   C1339     1.0  0.73506  0.74364  0.47203  1.0000
  C   C1340     1.0  0.72574  0.49763  0.28281  1.0000
  H   H1070     1.0  0.79323  0.48576  0.48112  1.0000
  C   C1341     1.0  0.78730  0.74224  0.48296  1.0000
  C   C1342     1.0  0.77294  0.76483  0.48672  1.0000
  H   H1071     1.0  0.72538  0.89924  0.53712  1.0000
  H   H1072     1.0  0.92998  0.53042  0.59385  1.0000
  H   H1073     1.0  0.73441  0.69181  0.55785  1.0000
  C   C1343     1.0  0.90783  0.49464  0.50610  1.0000
  C   C1344     1.0  0.97295  0.58180  0.61389  1.0000
  C   C1345     1.0  0.74813  0.76328  0.54532  1.0000
  H   H1074     1.0  0.93200  0.63874  0.62463  1.0000
  H   H1075     1.0  0.78882  0.52607  0.50482  1.0000
  C   C1346     1.0  0.97544  0.56509  0.63443  1.0000
  C   C1347     1.0  0.76339  0.72113  0.55672  1.0000
  C   C1348     1.0  0.94882  0.59026  0.60616  1.0000
  Fe  Fe92      1.0  0.85264  0.50808  0.64586  1.0000
  S   S181      1.0  0.85828  0.54913  0.63288  1.0000
  C   C1349     1.0  0.86868  0.56240  0.79144  1.0000
  Fe  Fe93      1.0  0.84416  0.61267  0.49617  1.0000
  S   S182      1.0  0.84851  0.65337  0.50859  1.0000
  S   S183      1.0  0.83291  0.57718  0.51817  1.0000
  C   C1350     1.0  0.96897  0.52495  0.58232  1.0000
  S   S184      1.0  0.67485  0.83526  0.52009  1.0000
  C   C1351     1.0  0.67078  0.96291  0.51179  1.0000
  H   H1076     1.0  0.67177  0.96100  0.53223  1.0000
  H   H1077     1.0  0.66038  0.51444  0.76649  1.0000
  H   H1078     1.0  0.89134  0.54369  0.53911  1.0000
  C   C1352     1.0  0.79385  0.64699  0.56168  1.0000
  H   H1079     1.0  0.88068  0.55731  0.73695  1.0000
  C   C1353     1.0  0.85265  0.55675  0.60063  1.0000
  C   C1354     1.0  0.85617  0.58191  0.59207  1.0000
  C   C1355     1.0  0.85112  0.58848  0.56658  1.0000
  C   C1356     1.0  0.84215  0.56994  0.54964  1.0000
  C   C1357     1.0  0.83921  0.54481  0.55811  1.0000
  C   C1358     1.0  0.84448  0.53816  0.58342  1.0000
  H   H1080     1.0  0.86243  0.59644  0.60526  1.0000
  H   H1081     1.0  0.85353  0.60792  0.56022  1.0000
  H   H1082     1.0  0.83273  0.53043  0.54496  1.0000
  H   H1083     1.0  0.84178  0.51873  0.58973  1.0000
  Fe  Fe94      1.0  0.66561  0.86965  0.49578  1.0000
  H   H1084     1.0  0.68218  0.51324  0.97662  1.0000
  C   C1359     1.0  0.76835  0.69987  0.64138  1.0000
  H   H1085     1.0  0.88362  0.74138  0.53378  1.0000
  C   C1360     1.0  0.73196  0.89566  0.51795  1.0000
  H   H1086     1.0  0.79944  0.53503  0.69442  1.0000
  C   C1361     1.0  0.81078  0.68235  0.63880  1.0000
  H   H1087     1.0  0.78093  0.60516  0.51387  1.0000
  H   H1088     1.0  0.82763  0.56799  0.67590  1.0000
  C   C1362     1.0  0.78507  0.66962  0.55043  1.0000
  C   C1363     1.0  0.82709  0.71006  0.53095  1.0000
  C   C1364     1.0  0.79200  0.62382  0.54863  1.0000
  Fe  Fe95      1.0  0.69007  0.81578  0.48475  1.0000
  H   H1089     1.0  0.75183  0.78317  0.54117  1.0000
  H   H1090     1.0  0.94510  0.49839  0.67848  1.0000
  C   C1365     1.0  0.90985  0.54162  0.81791  1.0000
  H   H1091     1.0  0.81563  0.69963  0.51741  1.0000
  H   H1092     1.0  0.82728  0.67415  0.64800  1.0000
  C   C1366     1.0  0.92736  0.58244  0.61996  1.0000
  C   C1367     1.0  0.82371  0.52818  0.72665  1.0000
  C   C1368     1.0  0.74663  0.76584  0.48143  1.0000
  H   H1093     1.0  0.73512  0.85508  0.52321  1.0000
  C   C1369     1.0  0.94610  0.51765  0.59375  1.0000
  C   C1370     1.0  0.71871  0.72792  0.54701  1.0000
  C   C1371     1.0  0.92989  0.56568  0.64043  1.0000
  C   C1372     1.0  0.66875  0.58902  0.90061  1.0000
  H   H1094     1.0  0.82695  0.68000  0.60146  1.0000
  S   S185      1.0  0.92236  0.66732  0.50219  1.0000
  C   C1373     1.0  0.86547  0.73388  0.53998  1.0000
  H   H1095     1.0  0.78696  0.75496  0.55408  1.0000
  H   H1096     1.0  0.78411  0.52574  0.55161  1.0000
  C   C1374     1.0  0.73726  0.87081  0.51007  1.0000
  H   H1097     1.0  0.75200  0.70538  0.65259  1.0000
  C   C1375     1.0  0.85692  0.73835  0.56472  1.0000
  H   H1098     1.0  0.80240  0.64697  0.58031  1.0000
  C   C1376     1.0  0.78162  0.62302  0.52422  1.0000
  H   H1099     1.0  0.86836  0.74964  0.57765  1.0000
  C   C1377     1.0  0.78970  0.68945  0.65327  1.0000
  H   H1100     1.0  0.68438  0.59690  0.88980  1.0000
  H   H1101     1.0  0.72916  0.93496  0.50677  1.0000
  C   C1378     1.0  0.73849  0.71173  0.55436  1.0000
  H   H1102     1.0  0.76857  0.52201  0.80042  1.0000
  C   C1379     1.0  0.83356  0.72845  0.57267  1.0000
  H   H1103     1.0  0.91313  0.55921  0.65052  1.0000
  H   H1104     1.0  0.76508  0.64495  0.49381  1.0000
  C   C1380     1.0  0.89562  0.52632  0.80138  1.0000
  C   C1381     1.0  0.85044  0.71994  0.52306  1.0000
  H   H1105     1.0  0.92568  0.53351  0.82832  1.0000
  C   C1382     1.0  0.86251  0.55291  0.72833  1.0000
  H   H1106     1.0  0.93526  0.58913  0.48758  1.0000
  C   C1383     1.0  0.78650  0.51187  0.80091  1.0000
  C   C1384     1.0  0.73407  0.91581  0.50078  1.0000
  S   S186      1.0  0.66934  0.91039  0.51162  1.0000
  H   H1107     1.0  0.85684  0.71670  0.50373  1.0000
  C   C1385     1.0  0.77266  0.64534  0.51298  1.0000
  H   H1108     1.0  0.67297  0.55138  0.88488  1.0000
  C   C1386     1.0  0.88993  0.66461  0.56985  1.0000
  C   C1387     1.0  0.88803  0.67505  0.59420  1.0000
  C   C1388     1.0  0.90304  0.66548  0.61393  1.0000
  C   C1389     1.0  0.92007  0.64555  0.60929  1.0000
  C   C1390     1.0  0.92190  0.63478  0.58491  1.0000
  C   C1391     1.0  0.90677  0.64455  0.56520  1.0000
  P   P46       1.0  0.94518  0.61036  0.57844  1.0000
  H   H1109     1.0  0.79909  0.60646  0.55721  1.0000
  C   C1392     1.0  0.76799  0.70314  0.61500  1.0000
  H   H1110     1.0  0.90854  0.58891  0.61471  1.0000
  H   H1111     1.0  0.87785  0.59745  0.81080  1.0000
  P   P47       1.0  0.85637  0.51702  0.76691  1.0000
  H   H1112     1.0  0.97035  0.54362  0.57378  1.0000
  H   H1113     1.0  0.85250  0.57055  0.78165  1.0000
  C   C1393     1.0  0.87493  0.49107  0.75414  1.0000
  H   H1114     1.0  0.90844  0.51415  0.74760  1.0000
  H   H1115     1.0  0.75123  0.71123  0.60626  1.0000
  C   C1394     1.0  0.78907  0.69601  0.60031  1.0000
  C   C1395     1.0  0.81874  0.71366  0.55598  1.0000
  C   C1396     1.0  0.93347  0.59135  0.55223  1.0000
  C   C1397     1.0  0.91580  0.57171  0.55633  1.0000
  C   C1398     1.0  0.90569  0.55811  0.53584  1.0000
  C   C1399     1.0  0.91295  0.56407  0.51111  1.0000
  C   C1400     1.0  0.93038  0.58367  0.50679  1.0000
  C   C1401     1.0  0.94043  0.59741  0.52720  1.0000
  H   H1116     1.0  0.87874  0.67231  0.55435  1.0000
  H   H1117     1.0  0.87519  0.69078  0.59762  1.0000
  C   C1402     1.0  0.90803  0.49027  0.53234  1.0000
  H   H1118     1.0  0.66074  0.62407  0.92030  1.0000
  H   H1119     1.0  0.90816  0.63705  0.54609  1.0000
  H   H1120     1.0  0.90177  0.67374  0.63276  1.0000
  C   C1403     1.0  0.81051  0.68567  0.61244  1.0000
  H   H1121     1.0  0.82704  0.73252  0.59173  1.0000
  P   P48       1.0  0.78887  0.70010  0.56620  1.0000
  C   C1404     1.0  0.78857  0.50807  0.51488  1.0000
  H   H1122     1.0  0.92686  0.48873  0.61556  1.0000
  C   C1405     1.0  0.76802  0.74713  0.55244  1.0000
  H   H1123     1.0  0.81162  0.51327  0.73394  1.0000
  C   C1406     1.0  0.80693  0.52013  0.78610  1.0000
  H   H1124     1.0  0.90887  0.56741  0.57511  1.0000
  H   H1125     1.0  0.91456  0.57909  0.83406  1.0000
  H   H1126     1.0  0.76766  0.68564  0.51672  1.0000
  C   C1407     1.0  0.87521  0.53674  0.78771  1.0000
  C   C1408     1.0  0.88526  0.48636  0.54531  1.0000
  C   C1409     1.0  0.88478  0.49490  0.49249  1.0000
  H   H1127     1.0  0.78988  0.68684  0.67369  1.0000
  H   H1128     1.0  0.97234  0.68138  0.51975  1.0000
  C   C1410     1.0  0.74048  0.49398  0.75376  1.0000
  S   S187      1.0  0.86609  0.49559  0.68474  1.0000
  C   C1411     1.0  0.84641  0.53455  0.73914  1.0000
  H   H1129     1.0  0.86826  0.57885  0.69708  1.0000
  C   C1412     1.0  0.66920  0.94085  0.49659  1.0000
  C   C1413     1.0  0.78592  0.50792  0.54130  1.0000
  C   C1414     1.0  0.86232  0.48648  0.53202  1.0000
  H   H1130     1.0  0.69964  0.72053  0.54456  1.0000
  C   C1415     1.0  0.77424  0.66849  0.52606  1.0000
  C   C1416     1.0  0.95327  0.65896  0.49113  1.0000
  C   C1417     1.0  0.83269  0.55898  0.69373  1.0000
  H   H1131     1.0  0.76517  0.50226  0.72179  1.0000
  C   C1418     1.0  0.86207  0.49033  0.50573  1.0000
  C   C1419     1.0  0.81679  0.54046  0.70415  1.0000
  H   H1132     1.0  0.95281  0.61342  0.52326  1.0000
  H   H1133     1.0  0.80471  0.53720  0.77485  1.0000
  C   C1420     1.0  0.88293  0.57764  0.80801  1.0000
  C   C1421     1.0  0.66221  0.56339  0.89768  1.0000
  C   C1422     1.0  0.85559  0.56513  0.70574  1.0000
  H   H1134     1.0  0.84465  0.48375  0.54222  1.0000
  C   C1423     1.0  0.97483  0.66897  0.50352  1.0000
  H   H1135     1.0  0.96628  0.66218  0.58483  1.0000
  H   H1136     1.0  0.70840  0.76615  0.53605  1.0000
  C   C1424     1.0  0.95391  0.55691  0.64758  1.0000
  S   S188      1.0  0.66696  0.50423  0.85505  1.0000
  H   H1137     1.0  0.95583  0.54369  0.66326  1.0000
  H   H1138     1.0  0.72858  0.51045  0.75053  1.0000
  C   C1425     1.0  0.90357  0.56729  0.82117  1.0000
  C   C1426     1.0  0.72356  0.75366  0.54238  1.0000
  C   C1427     1.0  0.79118  0.48511  0.50155  1.0000
  S   S189      1.0  0.72953  0.79529  0.48677  1.0000
  H   H1139     1.0  0.88531  0.48334  0.56571  1.0000
  C   C1428     1.0  0.65542  0.60429  0.91777  1.0000
  H   H1140     1.0  0.90415  0.55428  0.49532  1.0000
  C   C1429     1.0  0.97522  0.62476  0.56977  1.0000
  C   C1430     1.0  0.82971  0.50620  0.78564  1.0000
  H   H1141     1.0  0.90047  0.50636  0.79943  1.0000
  H   H1142     1.0  0.92569  0.49802  0.49683  1.0000
  H   H1143     1.0  0.84405  0.49000  0.49587  1.0000
  S   S190      1.0  0.68024  0.49079  0.92679  1.0000
  C   C1431     1.0  0.94424  0.49415  0.60600  1.0000
  Fe  Fe96      1.0  0.88487  0.65266  0.48550  1.0000
  C   C1432     1.0  0.89984  0.49551  0.74564  1.0000
  H   H1144     1.0  0.77283  0.48355  0.82704  1.0000
  C   C1433     1.0  0.76141  0.48940  0.73736  1.0000
  H   H1145     1.0  0.78233  0.78173  0.49386  1.0000
  C   C1434     1.0  0.98027  0.65043  0.57541  1.0000
  C   C1435     1.0  0.83232  0.48500  0.80169  1.0000
  C   C1436     1.0  0.78625  0.48486  0.55449  1.0000
  H   H1146     1.0  0.80740  0.74212  0.48718  1.0000
  H   H1147     1.0  0.92580  0.49027  0.54280  1.0000
  C   C1437     1.0  0.74443  0.86604  0.48496  1.0000
  H   H1148     1.0  0.97837  0.52569  0.53193  1.0000
  H   H1149     1.0  0.97470  0.55373  0.49464  1.0000
  C   C1438     1.0  0.67774  0.49330  0.97920  1.0000
  C   C1439     1.0  0.78891  0.49015  0.81599  1.0000
  S   S191      1.0  0.70805  0.48489  0.79469  1.0000
  C   C1440     1.0  0.96109  0.48580  0.67567  1.0000
  S   S192      1.0  0.81578  0.48627  0.64841  1.0000
  H   H1150     1.0  0.65227  0.54931  0.97377  1.0000
  H   H1151     1.0  0.78481  0.48469  0.57506  1.0000
  H   H1152     1.0  0.85290  0.54139  0.48149  1.0000
