data_image0
_chemical_formula_structural       FeS2FeSHFeSFeHS2FeS2FeS2FeCFeS3HCHC2SC2HC12H4CPC2H4C4H2C2H2C2H2C2HCH2C2SC2SC2H3CH2C6HC4HC4H2C3HC2HC3H3CHCHCHC2H3CH2C2HCH2C5H3C2H3C4HC2H6CH2CHCHCHPHPC5H2C3H2PC4H2C2H3CH2CH2CHCHCH4C2HC5H5CHCH2C2H8C2HC2HC4FeS2FeS2FeCFeS3FeSCFeSCFeSFeHS2CH3C2H3CH4C6HC6H4C2HCH2C2HSC5H2SC2HC3HCH2C3H3C6PC8HC3H13CHCH2CH4CHCHC2H5CPCH4C2HCHPSCHCHC3HC5HSHCHC2H3C2H2C2HC8HCHC3HCHC4PCHC2HC2SHCSFeSHFeSCFeSFeCS2FeSHFeS2FeSFeS3HCH3C2H8C6H4C4H4C3HCH2SPCHCHC4PHC2H2C8HC5H5CH7CHC6PC2HCHC3HC2HCHCH2C2H2C4H2C4HCHSHC2H3CH2C5H2SC3FeCHCHC3H3PHC4SHCHC3H2CPCHCH2CHC3SC2HC2HC7H3CHC3HCHC6H3C2H3CHC4H2C3HC3SH2CH3CH3CH2CHCH2CHC4HCH4CFeSCHFe2HFeSHSFeS2FeS2CFeC2SC5H3C6H4CHCHPC2SC2HCHCH3CHSHCH3C2HC2HCH2CH2C2HC2H2SCHPC4SH3C2HC4HC2H2C3HCHCH4CHCH2CHC3HCH2CH6C3HCPC3HCH2CHCH2C3H2CHCH3CH3C6H2CHCH2C6HCH2C3H3CHC2H4PC2H4C2HCH3CHC4HCH5C3HC6FeS2FeSFeSFeSCSCSFeSHFeCFeS3C4H3CHC6H4CHC3HCH2C3HC2HC6HC3H4CHCHCSHC3HCHC2HFeCH2PH3CPCH2CHC2HCH2C2H2C2SHCH3C3H2CSH2CHCSCFeSCFeS2FeCFeS3FeS2FeS2FeCFeS3H2C7H7C2H2C2HSC6H3CHC3HCH3C7PC18H6CH11CHCH4C3H3C6HC5PC8HCHC7HC3HCH2CHS2PH3CHC3HPCH2CHC4PC2HC5HC3HCHC2H2CHCH3C2H2PHC2H2CH2C4HCH2C2HCHCHC3HCH5C3H2C7H2C2HCHCH4CH3C2H5CH3C6H2SHC2H2C3H6CH2CHC2HCSHCHC4PHC2H2CFeSCHPH2C5HCHC2H2C4HC8H2C3H3CH3CHC2HCHCHC2H4C2HCHCH3C6FeSHFeSHFeS2FeS2CFeCS2FeSCFeSH2S2FeS2FeSCFeHSFeH3C2H2C4HC2H2CH4SC3HC6H2FeC3HC2H6CPC15HC2H3CHCH6C2HC4H4C4HCH3CSH2CSH2CHC3H4CSH4C3HCHC2HC5HC2SCSHCHC3H3C4HC2HCHCHCHSH2C2FeHCPCH4SCH3CH2CH2C3H2CHC2HC4H3PC6H2FeCPSHCH3C2SC3HCH2CHFeC2HCHCHC3H4CHCHCHCHC2H2CSC7HC2HCPC2HC3HC3H2CH2CH2C2SH3C2HC2HC2H2C5HC5HC3H3C2H2SH2CH2CHC2HCH2CH2S
_chemical_formula_sum              "Fe64 S128 H768 C960 P32"
_cell_length_a       38.9289
_cell_length_b       38.9132
_cell_length_c       48.0123
_cell_angle_alpha    90.1263
_cell_angle_beta     89.9876
_cell_angle_gamma    89.8443

_space_group_name_H-M_alt    "P 1"
_space_group_IT_number       1

loop_
  _space_group_symop_operation_xyz
  'x, y, z'

loop_
  _atom_site_type_symbol
  _atom_site_label
  _atom_site_symmetry_multiplicity
  _atom_site_fract_x
  _atom_site_fract_y
  _atom_site_fract_z
  _atom_site_occupancy
  Fe  Fe1       1.0  0.40896  0.41542  0.08229  1.0000
  S   S1        1.0  0.35286  0.40372  0.08445  1.0000
  S   S2        1.0  0.43842  0.39672  0.04395  1.0000
  Fe  Fe2       1.0  0.41091  0.43980  0.14447  1.0000
  S   S3        1.0  0.35436  0.42787  0.15026  1.0000
  H   H1        1.0  0.22071  0.01277  0.16574  1.0000
  Fe  Fe3       1.0  0.36486  0.37923  0.12550  1.0000
  S   S4        1.0  0.33994  0.32692  0.13222  1.0000
  Fe  Fe4       1.0  0.34721  0.45297  0.10833  1.0000
  H   H2        1.0  0.40367  0.45575  0.01916  1.0000
  S   S5        1.0  0.42142  0.38892  0.12275  1.0000
  S   S6        1.0  0.40334  0.46698  0.10329  1.0000
  Fe  Fe5       1.0  0.39633  0.12968  0.10062  1.0000
  S   S7        1.0  0.43629  0.08825  0.10572  1.0000
  S   S8        1.0  0.41609  0.18440  0.10737  1.0000
  Fe  Fe6       1.0  0.34185  0.07642  0.08384  1.0000
  S   S9        1.0  0.37875  0.03189  0.08650  1.0000
  S   S10       1.0  0.28347  0.07498  0.07961  1.0000
  Fe  Fe7       1.0  0.39601  0.05592  0.12705  1.0000
  C   C1        1.0  0.30683  0.01791  0.20397  1.0000
  Fe  Fe8       1.0  0.41648  0.06777  0.06460  1.0000
  S   S11       1.0  0.45992  0.05498  0.03321  1.0000
  S   S12       1.0  0.35780  0.09930  0.12468  1.0000
  S   S13       1.0  0.37787  0.11043  0.05906  1.0000
  H   H3        1.0  0.33367  0.23616  0.06025  1.0000
  C   C2        1.0  0.16051  0.04774  0.00121  1.0000
  H   H4        1.0  0.31890  0.29772  0.06639  1.0000
  C   C3        1.0  0.00595  0.99654  0.00947  1.0000
  C   C4        1.0  0.19883  0.42049  0.08786  1.0000
  S   S14       1.0  0.44990  0.45760  0.17826  1.0000
  C   C5        1.0  0.35110  0.25581  0.05286  1.0000
  C   C6        1.0  0.10683  0.46721  0.05760  1.0000
  H   H5        1.0  0.18779  0.47859  0.06137  1.0000
  C   C7        1.0  0.36586  0.31576  0.04777  1.0000
  C   C8        1.0  0.28095  0.18885  0.28874  1.0000
  C   C9        1.0  0.22297  0.03899  0.08397  1.0000
  C   C10       1.0  0.19155  0.41429  0.11590  1.0000
  C   C11       1.0  0.46910  0.06433  0.99739  1.0000
  C   C12       1.0  0.44429  0.18868  0.01680  1.0000
  C   C13       1.0  0.36118  0.28762  0.12405  1.0000
  C   C14       1.0  0.34245  0.25677  0.12448  1.0000
  C   C15       1.0  0.35858  0.22488  0.11910  1.0000
  C   C16       1.0  0.39379  0.22362  0.11332  1.0000
  C   C17       1.0  0.41245  0.25450  0.11267  1.0000
  C   C18       1.0  0.39624  0.28636  0.11771  1.0000
  H   H6        1.0  0.31527  0.25770  0.12883  1.0000
  H   H7        1.0  0.34390  0.20133  0.11957  1.0000
  H   H8        1.0  0.43971  0.25369  0.10839  1.0000
  H   H9        1.0  0.41099  0.30984  0.11724  1.0000
  C   C19       1.0  0.28738  0.45240  0.99103  1.0000
  P   P1        1.0  0.33894  0.19089  0.20500  1.0000
  C   C20       1.0  0.26627  0.19983  0.14343  1.0000
  C   C21       1.0  0.25871  0.03674  0.07990  1.0000
  H   H10       1.0  0.39508  0.32460  0.18824  1.0000
  H   H11       1.0  0.27463  0.15775  0.22277  1.0000
  H   H12       1.0  0.42828  0.11717  0.16264  1.0000
  H   H13       1.0  0.21122  0.06385  0.08743  1.0000
  C   C22       1.0  0.25334  0.38310  0.04160  1.0000
  C   C23       1.0  0.25574  0.99530  0.26735  1.0000
  C   C24       1.0  0.17778  0.40671  0.06683  1.0000
  C   C25       1.0  0.42994  0.40876  0.00900  1.0000
  H   H14       1.0  0.28630  0.42474  0.99130  1.0000
  H   H15       1.0  0.10119  0.99087  0.02500  1.0000
  C   C26       1.0  0.45903  0.21717  0.03026  1.0000
  C   C27       1.0  0.01915  0.34041  0.00057  1.0000
  H   H16       1.0  0.40903  0.09940  0.24936  1.0000
  H   H17       1.0  0.40628  0.21545  0.18352  1.0000
  C   C28       1.0  0.16285  0.39502  0.12337  1.0000
  C   C29       1.0  0.30927  0.18137  0.17702  1.0000
  H   H18       1.0  0.22109  0.43594  0.08277  1.0000
  H   H19       1.0  0.01171  0.43935  0.00725  1.0000
  C   C30       1.0  0.39732  0.30647  0.03607  1.0000
  C   C31       1.0  0.28504  0.17199  0.24022  1.0000
  H   H20       1.0  0.45482  0.29643  0.07280  1.0000
  C   C32       1.0  0.26777  0.17112  0.26577  1.0000
  H   H21       1.0  0.23722  0.01516  0.26228  1.0000
  H   H22       1.0  0.27355  0.46552  0.14422  1.0000
  C   C33       1.0  0.47561  0.30451  0.05936  1.0000
  C   C34       1.0  0.19201  0.48344  0.03957  1.0000
  S   S15       1.0  0.39339  0.03400  0.17172  1.0000
  C   C35       1.0  0.99440  0.33211  0.13185  1.0000
  C   C36       1.0  0.11276  0.01045  0.01204  1.0000
  S   S16       1.0  0.02501  0.99135  0.04336  1.0000
  C   C37       1.0  0.31151  0.20738  0.28621  1.0000
  C   C38       1.0  0.12683  0.34347  0.98932  1.0000
  H   H23       1.0  0.41509  0.32661  0.03029  1.0000
  H   H24       1.0  0.42606  0.19230  0.00006  1.0000
  H   H25       1.0  0.36020  0.34262  0.05112  1.0000
  C   C39       1.0  0.02120  0.35581  0.02689  1.0000
  H   H26       1.0  0.29886  0.06828  0.18663  1.0000
  H   H27       1.0  0.10098  0.01574  0.28254  1.0000
  C   C40       1.0  0.28711  0.35108  0.00800  1.0000
  C   C41       1.0  0.11676  0.47098  0.08539  1.0000
  C   C42       1.0  0.01857  0.39170  0.02966  1.0000
  C   C43       1.0  0.29308  0.02872  0.15567  1.0000
  C   C44       1.0  0.42164  0.10569  0.20610  1.0000
  C   C45       1.0  0.47446  0.15008  0.04786  1.0000
  H   H28       1.0  0.44013  0.08479  0.20589  1.0000
  C   C46       1.0  0.00943  0.11246  0.98817  1.0000
  C   C47       1.0  0.39070  0.23726  0.18939  1.0000
  C   C48       1.0  0.28289  0.14001  0.14555  1.0000
  C   C49       1.0  0.26350  0.16621  0.13343  1.0000
  H   H29       1.0  0.28572  0.45638  0.03591  1.0000
  C   C50       1.0  0.02678  0.33314  0.11931  1.0000
  C   C51       1.0  0.20222  0.00934  0.08323  1.0000
  C   C52       1.0  0.32883  0.20831  0.26070  1.0000
  C   C53       1.0  0.99094  0.47783  0.07393  1.0000
  H   H30       1.0  0.32052  0.12678  0.17629  1.0000
  H   H31       1.0  0.33638  0.31807  0.20716  1.0000
  C   C54       1.0  0.05813  0.43256  0.07178  1.0000
  C   C55       1.0  0.06833  0.43645  0.09973  1.0000
  C   C56       1.0  0.09772  0.45532  0.10641  1.0000
  H   H32       1.0  0.26760  0.18806  0.30854  1.0000
  C   C57       1.0  0.27361  0.00445  0.07549  1.0000
  C   C58       1.0  0.07772  0.44801  0.05075  1.0000
  H   H33       1.0  0.02420  0.33947  0.04486  1.0000
  C   C59       1.0  0.01423  0.41175  0.00563  1.0000
  C   C60       1.0  0.14872  0.38752  0.07463  1.0000
  C   C61       1.0  0.45951  0.48676  0.20641  1.0000
  H   H34       1.0  0.42984  0.27304  0.17682  1.0000
  H   H35       1.0  0.13864  0.48677  0.09085  1.0000
  H   H36       1.0  0.05939  0.99928  0.24035  1.0000
  C   C62       1.0  0.28887  0.20737  0.16526  1.0000
  H   H37       1.0  0.29443  0.03160  0.28022  1.0000
  C   C63       1.0  0.40439  0.00059  0.19570  1.0000
  H   H38       1.0  0.15719  0.39067  0.14518  1.0000
  C   C64       1.0  0.39214  0.00262  0.22330  1.0000
  H   H39       1.0  0.35277  0.22235  0.25916  1.0000
  C   C65       1.0  0.38286  0.24636  0.04155  1.0000
  C   C66       1.0  0.25590  0.48277  0.13383  1.0000
  H   H40       1.0  0.05887  0.35796  0.08905  1.0000
  H   H41       1.0  0.05296  0.42614  0.11650  1.0000
  H   H42       1.0  0.10519  0.45904  0.12797  1.0000
  C   C67       1.0  0.20476  0.99487  0.17714  1.0000
  H   H43       1.0  0.31277  0.02756  0.22454  1.0000
  H   H44       1.0  0.06982  0.44669  0.02918  1.0000
  C   C68       1.0  0.15470  0.39382  0.00904  1.0000
  C   C69       1.0  0.40390  0.11383  0.23053  1.0000
  H   H45       1.0  0.13138  0.37717  0.05921  1.0000
  C   C70       1.0  0.12465  0.00363  0.28927  1.0000
  H   H46       1.0  0.25133  0.22021  0.13396  1.0000
  H   H47       1.0  0.28808  0.04654  0.13880  1.0000
  C   C71       1.0  0.37925  0.14007  0.23052  1.0000
  C   C72       1.0  0.40443  0.27010  0.18569  1.0000
  C   C73       1.0  0.29911  0.04094  0.18257  1.0000
  C   C74       1.0  0.40627  0.27168  0.03302  1.0000
  C   C75       1.0  0.14589  0.02214  0.01776  1.0000
  H   H48       1.0  0.13091  0.44254  0.99799  1.0000
  H   H49       1.0  0.38922  0.21934  0.04050  1.0000
  H   H50       1.0  0.30211  0.35992  0.05063  1.0000
  C   C76       1.0  0.30555  0.14747  0.16735  1.0000
  C   C77       1.0  0.48120  0.21168  0.05290  1.0000
  H   H51       1.0  0.25109  0.39255  0.06260  1.0000
  H   H52       1.0  0.36574  0.14569  0.24966  1.0000
  H   H53       1.0  0.17475  0.01146  0.08617  1.0000
  C   C78       1.0  0.41478  0.12377  0.18163  1.0000
  C   C79       1.0  0.38986  0.14966  0.18140  1.0000
  C   C80       1.0  0.33803  0.26263  0.20687  1.0000
  C   C81       1.0  0.35174  0.29542  0.20282  1.0000
  H   H54       1.0  0.24657  0.16036  0.11613  1.0000
  C   C82       1.0  0.03371  0.35748  0.09869  1.0000
  C   C83       1.0  0.19452  0.45647  0.02015  1.0000
  H   H55       1.0  0.99946  0.11136  0.00921  1.0000
  H   H56       1.0  0.31221  0.26032  0.21499  1.0000
  H   H57       1.0  0.29077  0.23362  0.17243  1.0000
  H   H58       1.0  0.30105  0.00232  0.07232  1.0000
  H   H59       1.0  0.12088  0.48030  0.04140  1.0000
  H   H60       1.0  0.38436  0.16285  0.16202  1.0000
  C   C84       1.0  0.19930  0.46448  0.99189  1.0000
  H   H61       1.0  0.28089  0.11400  0.13753  1.0000
  H   H62       1.0  0.00041  0.46166  0.23927  1.0000
  C   C85       1.0  0.41299  0.43943  0.00253  1.0000
  H   H63       1.0  0.37674  0.02447  0.22950  1.0000
  C   C86       1.0  0.37200  0.15818  0.20588  1.0000
  H   H64       1.0  0.20826  0.42435  0.13194  1.0000
  C   C87       1.0  0.34270  0.29049  0.05620  1.0000
  H   H65       1.0  0.11900  0.36701  0.10861  1.0000
  P   P2        1.0  0.44808  0.26032  0.01939  1.0000
  H   H66       1.0  0.24423  0.15654  0.26779  1.0000
  P   P3        1.0  0.18854  0.41204  0.03026  1.0000
  C   C88       1.0  0.22773  0.38904  0.02155  1.0000
  C   C89       1.0  0.35726  0.23319  0.19993  1.0000
  C   C90       1.0  0.14142  0.38168  0.10275  1.0000
  C   C91       1.0  0.38491  0.29916  0.19222  1.0000
  C   C92       1.0  0.47917  0.29073  0.03244  1.0000
  H   H67       1.0  0.04650  0.31501  0.12557  1.0000
  H   H68       1.0  0.21625  0.47789  0.16507  1.0000
  C   C93       1.0  0.31547  0.19098  0.23742  1.0000
  C   C94       1.0  0.00827  0.38100  0.09043  1.0000
  C   C95       1.0  0.28799  0.00473  0.27766  1.0000
  H   H69       1.0  0.17036  0.34119  0.01665  1.0000
  H   H70       1.0  0.44024  0.13339  0.01553  1.0000
  P   P4        1.0  0.01775  0.41210  0.06361  1.0000
  C   C96       1.0  0.44219  0.38789  0.98714  1.0000
  C   C97       1.0  0.15229  0.35795  0.00614  1.0000
  C   C98       1.0  0.45217  0.15531  0.02550  1.0000
  C   C99       1.0  0.13333  0.00374  0.31748  1.0000
  H   H71       1.0  0.04775  0.07427  0.99590  1.0000
  H   H72       1.0  0.01520  0.48422  0.08362  1.0000
  C   C100      1.0  0.28279  0.36431  0.03482  1.0000
  C   C101      1.0  0.13031  0.41486  0.99578  1.0000
  H   H73       1.0  0.45568  0.36431  0.99199  1.0000
  H   H74       1.0  0.47974  0.12418  0.05504  1.0000
  H   H75       1.0  0.32190  0.22087  0.30408  1.0000
  C   C102      1.0  0.28685  0.47025  0.01635  1.0000
  H   H76       1.0  0.23701  0.99519  0.21314  1.0000
  H   H77       1.0  0.02084  0.31272  0.99845  1.0000
  C   C103      1.0  0.29481  0.99351  0.15017  1.0000
  H   H78       1.0  0.18625  0.05673  0.00579  1.0000
  H   H79       1.0  0.16026  0.01116  0.03491  1.0000
  C   C104      1.0  0.23254  0.37603  0.99445  1.0000
  H   H80       1.0  0.30995  0.33636  0.00290  1.0000
  C   C105      1.0  0.26198  0.35694  0.98780  1.0000
  H   H81       1.0  0.12545  0.31585  0.98666  1.0000
  C   C106      1.0  0.09446  0.02384  0.98951  1.0000
  H   H82       1.0  0.98902  0.31324  0.14784  1.0000
  H   H83       1.0  0.16834  0.98919  0.14361  1.0000
  H   H84       1.0  0.41793  0.07970  0.98594  1.0000
  H   H85       1.0  0.00041  0.10685  0.40494  1.0000
  C   C107      1.0  0.04575  0.11879  0.42872  1.0000
  C   C108      1.0  0.02001  0.09585  0.57821  1.0000
  H   H86       1.0  0.06328  0.11131  0.41222  1.0000
  C   C109      1.0  0.00585  0.23895  0.63901  1.0000
  C   C110      1.0  0.05856  0.13045  0.45422  1.0000
  C   C111      1.0  0.03595  0.13932  0.47573  1.0000
  C   C112      1.0  0.01261  0.28281  0.60368  1.0000
  C   C113      1.0  0.47099  0.01680  0.46686  1.0000
  H   H87       1.0  0.11631  0.01575  0.33251  1.0000
  H   H88       1.0  0.08605  0.13210  0.45746  1.0000
  H   H89       1.0  0.03702  0.23310  0.60219  1.0000
  H   H90       1.0  0.02355  0.29137  0.58415  1.0000
  H   H91       1.0  0.03097  0.05285  0.55135  1.0000
  C   C114      1.0  0.02016  0.25001  0.61385  1.0000
  H   H92       1.0  0.03093  0.08381  0.59653  1.0000
  C   C115      1.0  0.01981  0.07833  0.55279  1.0000
  H   H93       1.0  0.99474  0.01576  0.52240  1.0000
  H   H94       1.0  0.04625  0.14780  0.49554  1.0000
  C   C116      1.0  0.00030  0.13649  0.47188  1.0000
  C   C117      1.0  0.00537  0.12858  0.58014  1.0000
  H   H95       1.0  0.44336  0.01997  0.46772  1.0000
  H   H96       1.0  0.01226  0.21358  0.64667  1.0000
  H   H97       1.0  0.47916  0.03750  0.50778  1.0000
  H   H98       1.0  0.00306  0.26869  0.48838  1.0000
  H   H99       1.0  0.03894  0.99876  0.48742  1.0000
  H   H100      1.0  0.00463  0.07931  0.50982  1.0000
  H   H101      1.0  0.01077  0.20646  0.48074  1.0000
  H   H102      1.0  0.42102  0.48404  0.48694  1.0000
  C   C118      1.0  0.99103  0.30469  0.61880  1.0000
  C   C119      1.0  0.00469  0.09337  0.52934  1.0000
  H   H103      1.0  0.00469  0.14192  0.59997  1.0000
  C   C120      1.0  0.01243  0.99147  0.48424  1.0000
  C   C121      1.0  0.01031  0.11629  0.42461  1.0000
  H   H104      1.0  0.47046  0.99456  0.42564  1.0000
  C   C122      1.0  0.48622  0.00272  0.44307  1.0000
  C   C123      1.0  0.99061  0.14384  0.55667  1.0000
  C   C124      1.0  0.98967  0.21531  0.49355  1.0000
  C   C125      1.0  0.98971  0.12620  0.53113  1.0000
  Fe  Fe9       1.0  0.42570  0.35191  0.84085  1.0000
  S   S17       1.0  0.46380  0.39288  0.85227  1.0000
  S   S18       1.0  0.43361  0.29461  0.84836  1.0000
  Fe  Fe10      1.0  0.36820  0.40377  0.82897  1.0000
  S   S19       1.0  0.40341  0.44826  0.83868  1.0000
  S   S20       1.0  0.31217  0.41754  0.81835  1.0000
  Fe  Fe11      1.0  0.44426  0.42073  0.81375  1.0000
  C   C126      1.0  0.02857  0.28506  0.76099  1.0000
  Fe  Fe12      1.0  0.42007  0.41724  0.87598  1.0000
  S   S21       1.0  0.41978  0.44514  0.91807  1.0000
  S   S22       1.0  0.40796  0.37784  0.80133  1.0000
  S   S23       1.0  0.38317  0.37453  0.86723  1.0000
  Fe  Fe13      1.0  0.05123  0.41232  0.83356  1.0000
  S   S24       1.0  0.06664  0.35693  0.83934  1.0000
  C   C127      1.0  0.44623  0.21508  0.78398  1.0000
  Fe  Fe14      1.0  0.07571  0.43277  0.89402  1.0000
  S   S25       1.0  0.09120  0.37815  0.90277  1.0000
  C   C128      1.0  0.41204  0.18082  0.81590  1.0000
  Fe  Fe15      1.0  0.11483  0.37791  0.85997  1.0000
  S   S26       1.0  0.16855  0.35362  0.85721  1.0000
  Fe  Fe16      1.0  0.04223  0.36227  0.88155  1.0000
  H   H105      1.0  0.44975  0.27528  0.90156  1.0000
  S   S27       1.0  0.10119  0.43293  0.85148  1.0000
  S   S28       1.0  0.02483  0.41702  0.87544  1.0000
  C   C129      1.0  0.04076  0.03078  0.90622  1.0000
  H   H106      1.0  0.43217  0.08889  0.93602  1.0000
  H   H107      1.0  0.01243  0.47445  0.68425  1.0000
  H   H108      1.0  0.99533  0.15251  0.92636  1.0000
  C   C130      1.0  0.02205  0.26677  0.87278  1.0000
  C   C131      1.0  0.45216  0.08097  0.95028  1.0000
  H   H109      1.0  0.04363  0.28125  0.86489  1.0000
  H   H110      1.0  0.31702  0.33039  0.89909  1.0000
  H   H111      1.0  0.11087  0.99410  0.93684  1.0000
  C   C132      1.0  0.45968  0.15494  0.79051  1.0000
  H   H112      1.0  0.10499  0.35088  0.78677  1.0000
  H   H113      1.0  0.21339  0.38030  0.97848  1.0000
  H   H114      1.0  0.17225  0.14461  0.87272  1.0000
  H   H115      1.0  0.30872  0.05056  0.81916  1.0000
  C   C133      1.0  0.99439  0.13445  0.96869  1.0000
  C   C134      1.0  0.04951  0.09179  0.95301  1.0000
  C   C135      1.0  0.42212  0.42913  0.95266  1.0000
  C   C136      1.0  0.40971  0.44981  0.97455  1.0000
  C   C137      1.0  0.43773  0.39769  0.95908  1.0000
  C   C138      1.0  0.43120  0.29240  0.96927  1.0000
  H   H116      1.0  0.14427  0.17134  0.91387  1.0000
  C   C139      1.0  0.27304  0.40052  0.83177  1.0000
  C   C140      1.0  0.27108  0.36749  0.84308  1.0000
  C   C141      1.0  0.23903  0.35390  0.85131  1.0000
  C   C142      1.0  0.20857  0.37328  0.84875  1.0000
  C   C143      1.0  0.21073  0.40687  0.83854  1.0000
  C   C144      1.0  0.24266  0.42014  0.82969  1.0000
  H   H117      1.0  0.29419  0.35219  0.84483  1.0000
  H   H118      1.0  0.23773  0.32797  0.85930  1.0000
  H   H119      1.0  0.18760  0.42213  0.83648  1.0000
  H   H120      1.0  0.24380  0.44569  0.82091  1.0000
  C   C145      1.0  0.15600  0.12930  0.88614  1.0000
  C   C146      1.0  0.02104  0.27886  0.71109  1.0000
  H   H121      1.0  0.44737  0.38160  0.94250  1.0000
  C   C147      1.0  0.24535  0.44268  0.92292  1.0000
  H   H122      1.0  0.32927  0.08653  0.77995  1.0000
  H   H123      1.0  0.98919  0.26256  0.78649  1.0000
  C   C148      1.0  0.43229  0.29649  0.94037  1.0000
  C   C149      1.0  0.34491  0.34210  0.93671  1.0000
  H   H124      1.0  0.03038  0.28383  0.69026  1.0000
  S   S29       1.0  0.00269  0.32618  0.90057  1.0000
  C   C150      1.0  0.35248  0.36731  0.95655  1.0000
  C   C151      1.0  0.11446  0.40300  0.77391  1.0000
  C   C152      1.0  0.46936  0.48872  0.70931  1.0000
  C   C153      1.0  0.33638  0.39945  0.95525  1.0000
  C   C154      1.0  0.12430  0.36975  0.78155  1.0000
  H   H125      1.0  0.00886  0.41194  0.96089  1.0000
  H   H126      1.0  0.35741  0.31724  0.93762  1.0000
  S   S30       1.0  0.09302  0.47350  0.92647  1.0000
  C   C155      1.0  0.10337  0.36463  0.97555  1.0000
  C   C156      1.0  0.32196  0.34937  0.91513  1.0000
  H   H127      1.0  0.16286  0.08284  0.86226  1.0000
  C   C157      1.0  0.46481  0.24018  0.96503  1.0000
  C   C158      1.0  0.02969  0.00249  0.89066  1.0000
  C   C159      1.0  0.11898  0.12472  0.92652  1.0000
  H   H128      1.0  0.40421  0.23516  0.80756  1.0000
  C   C160      1.0  0.13939  0.42756  0.76708  1.0000
  H   H129      1.0  0.04351  0.11533  0.91231  1.0000
  H   H130      1.0  0.12549  0.04798  0.89237  1.0000
  C   C161      1.0  0.19211  0.46861  0.90662  1.0000
  C   C162      1.0  0.30612  0.38159  0.91369  1.0000
  C   C163      1.0  0.46434  0.47142  0.73494  1.0000
  H   H131      1.0  0.31775  0.06980  0.86790  1.0000
  H   H132      1.0  0.19418  0.43780  0.76590  1.0000
  H   H133      1.0  0.47837  0.21877  0.97410  1.0000
  C   C164      1.0  0.33316  0.09497  0.80125  1.0000
  C   C165      1.0  0.32155  0.07472  0.82332  1.0000
  C   C166      1.0  0.32662  0.08558  0.85078  1.0000
  C   C167      1.0  0.34343  0.11660  0.85622  1.0000
  C   C168      1.0  0.35557  0.13687  0.83415  1.0000
  C   C169      1.0  0.35001  0.12599  0.80661  1.0000
  P   P5        1.0  0.37736  0.17698  0.84082  1.0000
  C   C170      1.0  0.34801  0.21283  0.83739  1.0000
  C   C171      1.0  0.39451  0.17597  0.87586  1.0000
  C   C172      1.0  0.37468  0.18818  0.89831  1.0000
  C   C173      1.0  0.38701  0.18572  0.92562  1.0000
  C   C174      1.0  0.41904  0.17078  0.93075  1.0000
  C   C175      1.0  0.43891  0.15877  0.90857  1.0000
  C   C176      1.0  0.42672  0.16110  0.88129  1.0000
  C   C177      1.0  0.08207  0.44307  0.71878  1.0000
  H   H134      1.0  0.42070  0.31883  0.93066  1.0000
  C   C178      1.0  0.30455  0.26991  0.83030  1.0000
  C   C179      1.0  0.33541  0.27342  0.84487  1.0000
  C   C180      1.0  0.35687  0.24494  0.84862  1.0000
  H   H135      1.0  0.21473  0.47770  0.68513  1.0000
  H   H136      1.0  0.27133  0.23530  0.80804  1.0000
  H   H137      1.0  0.34718  0.12439  0.87766  1.0000
  H   H138      1.0  0.35888  0.14140  0.78927  1.0000
  H   H139      1.0  0.34942  0.19904  0.89483  1.0000
  H   H140      1.0  0.37152  0.19495  0.94284  1.0000
  H   H141      1.0  0.42841  0.16810  0.95187  1.0000
  H   H142      1.0  0.08671  0.41663  0.96817  1.0000
  H   H143      1.0  0.44253  0.15090  0.86471  1.0000
  H   H144      1.0  0.28804  0.29205  0.82714  1.0000
  H   H145      1.0  0.34317  0.29836  0.85277  1.0000
  H   H146      1.0  0.38084  0.24810  0.85975  1.0000
  H   H147      1.0  0.08407  0.35343  0.96207  1.0000
  C   C181      1.0  0.46941  0.26819  0.84006  1.0000
  H   H148      1.0  0.00663  0.00456  0.87809  1.0000
  C   C182      1.0  0.44897  0.27209  0.92386  1.0000
  H   H149      1.0  0.35359  0.48667  0.93459  1.0000
  H   H150      1.0  0.45216  0.22729  0.86672  1.0000
  C   C183      1.0  0.03439  0.11425  0.93363  1.0000
  H   H151      1.0  0.30938  0.18510  0.81389  1.0000
  H   H152      1.0  0.16670  0.33577  0.79037  1.0000
  H   H153      1.0  0.42754  0.12736  0.81894  1.0000
  H   H154      1.0  0.04328  0.29439  0.77862  1.0000
  C   C184      1.0  0.04008  0.29089  0.73383  1.0000
  H   H155      1.0  0.24186  0.38812  0.93165  1.0000
  C   C185      1.0  0.03691  0.09125  0.98043  1.0000
  H   H156      1.0  0.03419  0.37333  0.75951  1.0000
  C   C186      1.0  0.19407  0.40786  0.91692  1.0000
  C   C187      1.0  0.14211  0.06145  0.97874  1.0000
  H   H157      1.0  0.21105  0.37920  0.77943  1.0000
  H   H158      1.0  0.47586  0.13291  0.78603  1.0000
  H   H159      1.0  0.06902  0.01406  0.98510  1.0000
  H   H160      1.0  0.37124  0.36229  0.97271  1.0000
  H   H161      1.0  0.14922  0.43430  0.90191  1.0000
  C   C188      1.0  0.17434  0.41887  0.76941  1.0000
  P   P6        1.0  0.28994  0.44724  0.93287  1.0000
  C   C189      1.0  0.29521  0.23790  0.81944  1.0000
  H   H162      1.0  0.03749  0.21950  0.85280  1.0000
  H   H163      1.0  0.27824  0.45840  0.87292  1.0000
  H   H164      1.0  0.26541  0.34672  0.96696  1.0000
  H   H165      1.0  0.08744  0.40968  0.77361  1.0000
  C   C190      1.0  0.46546  0.24413  0.93613  1.0000
  C   C191      1.0  0.31203  0.40636  0.93441  1.0000
  H   H166      1.0  0.28925  0.38729  0.89637  1.0000
  C   C192      1.0  0.31689  0.20945  0.82285  1.0000
  H   H167      1.0  0.34346  0.41893  0.97027  1.0000
  P   P7        1.0  0.08538  0.06489  0.94270  1.0000
  S   S31       1.0  0.02197  0.43431  0.79547  1.0000
  C   C193      1.0  0.41897  0.21231  0.80281  1.0000
  H   H168      1.0  0.46356  0.14690  0.91251  1.0000
  C   C194      1.0  0.15066  0.09453  0.88023  1.0000
  H   H169      1.0  0.18140  0.38307  0.91742  1.0000
  C   C195      1.0  0.10891  0.04944  0.97267  1.0000
  C   C196      1.0  0.22856  0.41083  0.92461  1.0000
  C   C197      1.0  0.47166  0.23538  0.85217  1.0000
  H   H170      1.0  0.20071  0.44433  0.97637  1.0000
  C   C198      1.0  0.18407  0.38562  0.77714  1.0000
  C   C199      1.0  0.46676  0.18651  0.77802  1.0000
  C   C200      1.0  0.34300  0.48874  0.91382  1.0000
  C   C201      1.0  0.03440  0.47400  0.69815  1.0000
  C   C202      1.0  0.01849  0.23177  0.86596  1.0000
  H   H171      1.0  0.06368  0.30496  0.73038  1.0000
  S   S32       1.0  0.48669  0.44700  0.78712  1.0000
  H   H172      1.0  0.47892  0.22567  0.92314  1.0000
  C   C203      1.0  0.15908  0.36111  0.78330  1.0000
  H   H173      1.0  0.09726  0.41981  0.71986  1.0000
  C   C204      1.0  0.01504  0.38941  0.74969  1.0000
  C   C205      1.0  0.43236  0.15201  0.80926  1.0000
  H   H174      1.0  0.45217  0.23975  0.77475  1.0000
  H   H175      1.0  0.02600  0.05430  0.90511  1.0000
  H   H176      1.0  0.16878  0.44899  0.71179  1.0000
  C   C206      1.0  0.31222  0.47211  0.90693  1.0000
  C   C207      1.0  0.06994  0.02816  0.92326  1.0000
  H   H177      1.0  0.15405  0.08101  0.96608  1.0000
  H   H178      1.0  0.10694  0.13675  0.94442  1.0000
  C   C208      1.0  0.00459  0.41997  0.76277  1.0000
  C   C209      1.0  0.11297  0.08994  0.92041  1.0000
  H   H179      1.0  0.41856  0.31188  0.98166  1.0000
  C   C210      1.0  0.99818  0.28266  0.89036  1.0000
  C   C211      1.0  0.14024  0.14436  0.90932  1.0000
  C   C212      1.0  0.22676  0.47161  0.91396  1.0000
  C   C213      1.0  0.44699  0.26385  0.98185  1.0000
  C   C214      1.0  0.17615  0.47498  0.71724  1.0000
  C   C215      1.0  0.30065  0.47281  0.87925  1.0000
  C   C216      1.0  0.12934  0.07483  0.89735  1.0000
  C   C217      1.0  0.08798  0.99680  0.92423  1.0000
  H   H180      1.0  0.04787  0.42191  0.68782  1.0000
  C   C218      1.0  0.05437  0.44426  0.70025  1.0000
  H   H181      1.0  0.39775  0.47419  0.96982  1.0000
  C   C219      1.0  0.48565  0.07521  0.94004  1.0000
  C   C220      1.0  0.44396  0.07580  0.97869  1.0000
  C   C221      1.0  0.00086  0.37973  0.72367  1.0000
  H   H182      1.0  0.01263  0.34867  0.95649  1.0000
  C   C222      1.0  0.01445  0.36063  0.97686  1.0000
  H   H183      1.0  0.43986  0.45963  0.73952  1.0000
  C   C223      1.0  0.08981  0.47164  0.73560  1.0000
  C   C224      1.0  0.04443  0.48839  0.96819  1.0000
  C   C225      1.0  0.99092  0.21240  0.87636  1.0000
  C   C226      1.0  0.10494  0.40025  0.97895  1.0000
  P   P8        1.0  0.12647  0.47091  0.75872  1.0000
  C   C227      1.0  0.17590  0.43671  0.90794  1.0000
  H   H184      1.0  0.00944  0.35629  0.71372  1.0000
  C   C228      1.0  0.00700  0.13546  0.94149  1.0000
  C   C229      1.0  0.99792  0.26734  0.76543  1.0000
  H   H185      1.0  0.02579  0.47545  0.95522  1.0000
  C   C230      1.0  0.99009  0.26117  0.71542  1.0000
  C   C231      1.0  0.28957  0.47023  0.96570  1.0000
  S   S33       1.0  0.98911  0.16806  0.86824  1.0000
  H   H186      1.0  0.48869  0.18902  0.76426  1.0000
  C   C232      1.0  0.01228  0.39630  0.97936  1.0000
  S   S34       1.0  0.04774  0.96498  0.29274  1.0000
  Fe  Fe17      1.0  0.06573  0.56458  0.08255  1.0000
  S   S35       1.0  0.12004  0.58327  0.08900  1.0000
  H   H187      1.0  0.37551  0.62427  0.07883  1.0000
  Fe  Fe18      1.0  0.04477  0.58063  0.14463  1.0000
  S   S36       1.0  0.09805  0.59884  0.15443  1.0000
  C   C233      1.0  0.08171  0.74872  0.26567  1.0000
  Fe  Fe19      1.0  0.09591  0.62713  0.11351  1.0000
  S   S37       1.0  0.11655  0.68205  0.11746  1.0000
  Fe  Fe20      1.0  0.11754  0.55395  0.12926  1.0000
  C   C234      1.0  0.03456  0.81272  0.14544  1.0000
  S   S38       1.0  0.04169  0.61070  0.10437  1.0000
  S   S39       1.0  0.06410  0.53337  0.12215  1.0000
  Fe  Fe21      1.0  0.05998  0.95157  0.06567  1.0000
  S   S40       1.0  0.09857  0.91696  0.04455  1.0000
  H   H188      1.0  0.37625  0.70233  0.27130  1.0000
  Fe  Fe22      1.0  0.07886  0.92293  0.12462  1.0000
  S   S41       1.0  0.11866  0.88761  0.10642  1.0000
  S   S42       1.0  0.07016  0.90681  0.16982  1.0000
  Fe  Fe23      1.0  0.13415  0.93238  0.07967  1.0000
  S   S43       1.0  0.19201  0.93936  0.07446  1.0000
  Fe  Fe24      1.0  0.07992  0.87529  0.07363  1.0000
  S   S44       1.0  0.06272  0.82119  0.06151  1.0000
  S   S45       1.0  0.09685  0.96895  0.09991  1.0000
  S   S46       1.0  0.03919  0.90890  0.09259  1.0000
  H   H189      1.0  0.05657  0.79675  0.25510  1.0000
  C   C235      1.0  0.42063  0.94883  0.23567  1.0000
  H   H190      1.0  0.37112  0.95988  0.14610  1.0000
  H   H191      1.0  0.13179  0.94807  0.16941  1.0000
  H   H192      1.0  0.05976  0.63115  0.20138  1.0000
  C   C236      1.0  0.21167  0.69677  0.24392  1.0000
  C   C237      1.0  0.06808  0.72690  0.31179  1.0000
  H   H193      1.0  0.37237  0.69000  0.16242  1.0000
  H   H194      1.0  0.18223  0.85618  0.14090  1.0000
  H   H195      1.0  0.17700  0.90247  0.29815  1.0000
  H   H196      1.0  0.32998  0.89310  0.06455  1.0000
  H   H197      1.0  0.26452  0.95010  0.07039  1.0000
  H   H198      1.0  0.13145  0.86780  0.23088  1.0000
  H   H199      1.0  0.41996  0.74550  0.28649  1.0000
  H   H200      1.0  0.04162  0.56552  0.22242  1.0000
  C   C238      1.0  0.10087  0.72030  0.10167  1.0000
  C   C239      1.0  0.07327  0.72025  0.08300  1.0000
  C   C240      1.0  0.06205  0.75129  0.07077  1.0000
  C   C241      1.0  0.07799  0.78274  0.07725  1.0000
  C   C242      1.0  0.10538  0.78280  0.09611  1.0000
  C   C243      1.0  0.11677  0.75177  0.10818  1.0000
  H   H201      1.0  0.06087  0.69626  0.07770  1.0000
  H   H202      1.0  0.04092  0.75094  0.05614  1.0000
  H   H203      1.0  0.11808  0.80672  0.10100  1.0000
  H   H204      1.0  0.13829  0.75207  0.12241  1.0000
  C   C244      1.0  0.05603  0.94891  0.25877  1.0000
  C   C245      1.0  0.05714  0.91363  0.25341  1.0000
  C   C246      1.0  0.06150  0.90150  0.22603  1.0000
  C   C247      1.0  0.06576  0.92436  0.20372  1.0000
  H   H205      1.0  0.09698  0.66895  0.22954  1.0000
  H   H206      1.0  0.32096  0.92540  0.29028  1.0000
  H   H207      1.0  0.05370  0.89565  0.27027  1.0000
  H   H208      1.0  0.06121  0.87414  0.22208  1.0000
  C   C248      1.0  0.15471  0.95831  0.17913  1.0000
  C   C249      1.0  0.38118  0.53292  0.14975  1.0000
  C   C250      1.0  0.39988  0.97683  0.24306  1.0000
  H   H209      1.0  0.40875  0.86902  0.20729  1.0000
  C   C251      1.0  0.38177  0.87550  0.20920  1.0000
  H   H210      1.0  0.12870  0.81721  0.15135  1.0000
  H   H211      1.0  0.99067  0.75040  0.11102  1.0000
  S   S47       1.0  0.43218  0.91576  0.25983  1.0000
  P   P9        1.0  0.10384  0.74382  0.23279  1.0000
  C   C252      1.0  0.39470  0.67382  0.09041  1.0000
  H   H212      1.0  0.29760  0.89088  0.10851  1.0000
  C   C253      1.0  0.43124  0.55895  0.02657  1.0000
  H   H213      1.0  0.36033  0.50861  0.03295  1.0000
  C   C254      1.0  0.21012  0.84600  0.23703  1.0000
  C   C255      1.0  0.21095  0.88181  0.23462  1.0000
  C   C256      1.0  0.19894  0.90272  0.25647  1.0000
  C   C257      1.0  0.18608  0.88725  0.28074  1.0000
  P   P10       1.0  0.20391  0.94877  0.25417  1.0000
  H   H214      1.0  0.29111  0.98464  0.12901  1.0000
  C   C258      1.0  0.19326  0.96160  0.21895  1.0000
  C   C259      1.0  0.43314  0.94696  0.20813  1.0000
  H   H215      1.0  0.37684  0.68745  0.07705  1.0000
  H   H216      1.0  0.11412  0.76244  0.17420  1.0000
  C   C260      1.0  0.19735  0.83083  0.26127  1.0000
  C   C261      1.0  0.16367  0.94826  0.20613  1.0000
  C   C262      1.0  0.09179  0.52364  0.00186  1.0000
  C   C263      1.0  0.26439  0.86856  0.16292  1.0000
  C   C264      1.0  0.06042  0.77723  0.27078  1.0000
  C   C265      1.0  0.27082  0.93526  0.27283  1.0000
  C   C266      1.0  0.24223  0.52065  0.09558  1.0000
  C   C267      1.0  0.02747  0.78080  0.13350  1.0000
  H   H217      1.0  0.37974  0.89977  0.16940  1.0000
  C   C268      1.0  0.12604  0.81623  0.17381  1.0000
  C   C269      1.0  0.38533  0.67472  0.17809  1.0000
  C   C270      1.0  0.07904  0.68036  0.21500  1.0000
  C   C271      1.0  0.40462  0.53685  0.01887  1.0000
  C   C272      1.0  0.17582  0.97022  0.27867  1.0000
  H   H218      1.0  0.21929  0.83001  0.22010  1.0000
  H   H219      1.0  0.22115  0.89320  0.21579  1.0000
  H   H220      1.0  0.10005  0.70033  0.28236  1.0000
  H   H221      1.0  0.44989  0.56701  0.01116  1.0000
  H   H222      1.0  0.11782  0.81338  0.25423  1.0000
  C   C273      1.0  0.32104  0.90573  0.10768  1.0000
  H   H223      1.0  0.44945  0.92566  0.20215  1.0000
  H   H224      1.0  0.14712  0.93053  0.21717  1.0000
  H   H225      1.0  0.24946  0.53296  0.07631  1.0000
  H   H226      1.0  0.44886  0.83772  0.24430  1.0000
  H   H227      1.0  0.26433  0.90827  0.27246  1.0000
  H   H228      1.0  0.04077  0.64682  0.26288  1.0000
  H   H229      1.0  0.14678  0.70065  0.19666  1.0000
  C   C274      1.0  0.44336  0.73766  0.24596  1.0000
  H   H230      1.0  0.47018  0.73969  0.20651  1.0000
  C   C275      1.0  0.11253  0.78424  0.21584  1.0000
  C   C276      1.0  0.41882  0.69208  0.10601  1.0000
  C   C277      1.0  0.45878  0.75445  0.22330  1.0000
  C   C278      1.0  0.34560  0.57443  0.12564  1.0000
  C   C279      1.0  0.37816  0.55985  0.13039  1.0000
  C   C280      1.0  0.43214  0.79337  0.26727  1.0000
  P   P11       1.0  0.41497  0.57332  0.11001  1.0000
  C   C281      1.0  0.41681  0.61988  0.10893  1.0000
  C   C282      1.0  0.45345  0.55499  0.12531  1.0000
  H   H231      1.0  0.02887  0.56232  0.27316  1.0000
  C   C283      1.0  0.42228  0.63433  0.31700  1.0000
  H   H232      1.0  0.47255  0.80323  0.20512  1.0000
  C   C284      1.0  0.35252  0.52177  0.16473  1.0000
  C   C285      1.0  0.03465  0.67285  0.18024  1.0000
  C   C286      1.0  0.19353  0.51765  0.03080  1.0000
  H   H233      1.0  0.41221  0.51534  0.20511  1.0000
  C   C287      1.0  0.39385  0.63793  0.09168  1.0000
  C   C288      1.0  0.41791  0.63518  0.21884  1.0000
  H   H234      1.0  0.31615  0.96560  0.21527  1.0000
  C   C289      1.0  0.30870  0.98261  0.19854  1.0000
  H   H235      1.0  0.05975  0.81804  0.15384  1.0000
  C   C290      1.0  0.31695  0.56305  0.14057  1.0000
  H   H236      1.0  0.23150  0.82407  0.16088  1.0000
  H   H237      1.0  0.46676  0.52331  0.08954  1.0000
  C   C291      1.0  0.04410  0.78103  0.29656  1.0000
  C   C292      1.0  0.20965  0.52740  0.10720  1.0000
  H   H238      1.0  0.43484  0.97055  0.16725  1.0000
  H   H239      1.0  0.34191  0.59388  0.10996  1.0000
  C   C293      1.0  0.46197  0.56233  0.15315  1.0000
  C   C294      1.0  0.41036  0.55924  0.07431  1.0000
  C   C295      1.0  0.47351  0.53106  0.11048  1.0000
  C   C296      1.0  0.16453  0.73111  0.26184  1.0000
  H   H240      1.0  0.04723  0.76115  0.13277  1.0000
  H   H241      1.0  0.11023  0.53733  0.01452  1.0000
  C   C297      1.0  0.21701  0.97719  0.07786  1.0000
  C   C298      1.0  0.08479  0.72317  0.28615  1.0000
  C   C299      1.0  0.98986  0.67918  0.31417  1.0000
  C   C300      1.0  0.99546  0.77474  0.12131  1.0000
  H   H242      1.0  0.02863  0.80360  0.30089  1.0000
  C   C301      1.0  0.20578  0.86948  0.14614  1.0000
  H   H243      1.0  0.19199  0.54470  0.09691  1.0000
  S   S48       1.0  0.37162  0.86831  0.31225  1.0000
  H   H244      1.0  0.01286  0.71907  0.16349  1.0000
  C   C302      1.0  0.02162  0.66287  0.27288  1.0000
  C   C303      1.0  0.47842  0.53326  0.25028  1.0000
  H   H245      1.0  0.04957  0.75771  0.19169  1.0000
  H   H246      1.0  0.19676  0.80312  0.26321  1.0000
  H   H247      1.0  0.39035  0.97891  0.26414  1.0000
  C   C304      1.0  0.21391  0.98478  0.20411  1.0000
  H   H248      1.0  0.24145  0.94854  0.14065  1.0000
  H   H249      1.0  0.40399  0.96048  0.10225  1.0000
  C   C305      1.0  0.24703  0.96046  0.26448  1.0000
  C   C306      1.0  0.43409  0.57019  0.05418  1.0000
  C   C307      1.0  0.19994  0.51172  0.13213  1.0000
  C   C308      1.0  0.32974  0.87699  0.23669  1.0000
  C   C309      1.0  0.44229  0.67443  0.12273  1.0000
  H   H250      1.0  0.00418  0.96676  0.17502  1.0000
  H   H251      1.0  0.01088  0.83170  0.20945  1.0000
  S   S49       1.0  0.30568  0.48986  0.09274  1.0000
  C   C310      1.0  0.16043  0.70501  0.21605  1.0000
  C   C311      1.0  0.33070  0.90329  0.19076  1.0000
  C   C312      1.0  0.44703  0.80986  0.24451  1.0000
  Fe  Fe25      1.0  0.41609  0.90413  0.30506  1.0000
  C   C313      1.0  0.01671  0.57343  0.23015  1.0000
  H   H252      1.0  0.28604  0.85389  0.17065  1.0000
  C   C314      1.0  0.23947  0.92174  0.14624  1.0000
  H   H253      1.0  0.37742  0.85433  0.25036  1.0000
  C   C315      1.0  0.30304  0.94482  0.28308  1.0000
  C   C316      1.0  0.19739  0.71703  0.26508  1.0000
  C   C317      1.0  0.38947  0.68365  0.28414  1.0000
  H   H254      1.0  0.29805  0.52750  0.17122  1.0000
  H   H255      1.0  0.02399  0.94890  0.99188  1.0000
  H   H256      1.0  0.01894  0.65602  0.16754  1.0000
  P   P12       1.0  0.30824  0.92518  0.16298  1.0000
  H   H257      1.0  0.28655  0.90262  0.21813  1.0000
  C   C318      1.0  0.19781  0.52531  0.00265  1.0000
  C   C319      1.0  0.18516  0.85145  0.28301  1.0000
  C   C320      1.0  0.36410  0.86735  0.23359  1.0000
  C   C321      1.0  0.36523  0.89342  0.18784  1.0000
  S   S50       1.0  0.04261  0.53950  0.04302  1.0000
  H   H258      1.0  0.42859  0.55578  0.24297  1.0000
  C   C322      1.0  0.43047  0.75746  0.26812  1.0000
  H   H259      1.0  0.31630  0.87096  0.25582  1.0000
  C   C323      1.0  0.30255  0.97010  0.17152  1.0000
  C   C324      1.0  0.31309  0.89497  0.21539  1.0000
  C   C325      1.0  0.38070  0.52618  0.03872  1.0000
  H   H260      1.0  0.36619  0.62669  0.16219  1.0000
  H   H261      1.0  0.21180  0.72189  0.28399  1.0000
  C   C326      1.0  0.26741  0.90403  0.15787  1.0000
  P   P13       1.0  0.44447  0.69116  0.24760  1.0000
  C   C327      1.0  0.33256  0.92437  0.13096  1.0000
  H   H262      1.0  0.18743  0.91826  0.13133  1.0000
  C   C328      1.0  0.20872  0.90454  0.14071  1.0000
  H   H263      1.0  0.42996  0.61955  0.23481  1.0000
  H   H264      1.0  0.98949  0.50052  0.19924  1.0000
  C   C329      1.0  0.38184  0.63899  0.17792  1.0000
  H   H265      1.0  0.42260  0.80845  0.28467  1.0000
  C   C330      1.0  0.13076  0.84601  0.18964  1.0000
  C   C331      1.0  0.23359  0.85146  0.15729  1.0000
  C   C332      1.0  0.36241  0.94437  0.12868  1.0000
  S   S51       1.0  0.15850  0.51779  0.14672  1.0000
  C   C333      1.0  0.12755  0.84475  0.21857  1.0000
  C   C334      1.0  0.26537  0.49804  0.10865  1.0000
  H   H266      1.0  0.45506  0.58701  0.05994  1.0000
  C   C335      1.0  0.11908  0.81390  0.23170  1.0000
  C   C336      1.0  0.37227  0.66910  0.30679  1.0000
  H   H267      1.0  0.29172  0.57365  0.13627  1.0000
  C   C337      1.0  0.43695  0.51286  0.21504  1.0000
  C   C338      1.0  0.38097  0.94497  0.10378  1.0000
  C   C339      1.0  0.14559  0.72462  0.23752  1.0000
  C   C340      1.0  0.06566  0.95972  0.20905  1.0000
  C   C341      1.0  0.03146  0.70847  0.17784  1.0000
  C   C342      1.0  0.25282  0.97487  0.07442  1.0000
  C   C343      1.0  0.05235  0.73016  0.19377  1.0000
  H   H268      1.0  0.36480  0.52864  0.08130  1.0000
  H   H269      1.0  0.20433  0.67542  0.20283  1.0000
  H   H270      1.0  0.13663  0.87016  0.17948  1.0000
  C   C344      1.0  0.36934  0.92646  0.08069  1.0000
  H   H271      1.0  0.39505  0.59150  0.19838  1.0000
  C   C345      1.0  0.42355  0.67425  0.27818  1.0000
  C   C346      1.0  0.40500  0.69081  0.19870  1.0000
  C   C347      1.0  0.31165  0.97948  0.28546  1.0000
  H   H272      1.0  0.23708  0.68577  0.24646  1.0000
  C   C348      1.0  0.39811  0.61921  0.19828  1.0000
  H   H273      1.0  0.15405  0.74717  0.27826  1.0000
  C   C349      1.0  0.07681  0.71621  0.21203  1.0000
  C   C350      1.0  0.44148  0.63853  0.12409  1.0000
  C   C351      1.0  0.32044  0.53686  0.16020  1.0000
  C   C352      1.0  0.19324  0.69089  0.21938  1.0000
  C   C353      1.0  0.46035  0.79040  0.22249  1.0000
  C   C354      1.0  0.42168  0.67110  0.21914  1.0000
  H   H274      1.0  0.40638  0.71854  0.19892  1.0000
  H   H275      1.0  0.40272  0.52773  0.99758  1.0000
  H   H276      1.0  0.02826  0.63929  0.31315  1.0000
  C   C355      1.0  0.33935  0.90692  0.08262  1.0000
  C   C356      1.0  0.03407  0.50378  0.99362  1.0000
  H   H277      1.0  0.46049  0.62583  0.13674  1.0000
  H   H278      1.0  0.40535  0.51967  0.15297  1.0000
  H   H279      1.0  0.38332  0.92771  0.06119  1.0000
  C   C357      1.0  0.06033  0.97191  0.23644  1.0000
  H   H280      1.0  0.46133  0.68856  0.13455  1.0000
  C   C358      1.0  0.38341  0.53751  0.06628  1.0000
  C   C359      1.0  0.43966  0.64901  0.29452  1.0000
  C   C360      1.0  0.11720  0.78537  0.18683  1.0000
  C   C361      1.0  0.05761  0.52128  0.01083  1.0000
  H   H281      1.0  0.28749  0.51979  0.03625  1.0000
  H   H282      1.0  0.28967  0.55199  0.99169  1.0000
  C   C362      1.0  0.44640  0.53590  0.23663  1.0000
  C   C363      1.0  0.99625  0.82193  0.22695  1.0000
  C   C364      1.0  0.01469  0.65868  0.30123  1.0000
  H   H283      1.0  0.35505  0.50069  0.17932  1.0000
  C   C365      1.0  0.28782  0.50610  0.01657  1.0000
  C   C366      1.0  0.05801  0.65882  0.19913  1.0000
  C   C367      1.0  0.00935  0.57160  0.25900  1.0000
  S   S52       1.0  0.99787  0.58444  0.17433  1.0000
  H   H284      1.0  0.00853  0.68967  0.23540  1.0000
  H   H285      1.0  0.46553  0.64030  0.28996  1.0000
  C   C368      1.0  0.00973  0.83862  0.14527  1.0000
  H   H286      1.0  0.17530  0.83984  0.30193  1.0000
  H   H287      1.0  0.19071  0.53831  0.04580  1.0000
  H   H288      1.0  0.01627  0.86345  0.15380  1.0000
  C   C369      1.0  0.42492  0.97245  0.18824  1.0000
  H   H289      1.0  0.44588  0.57906  0.16559  1.0000
  H   H290      1.0  0.42712  0.54490  0.30973  1.0000
  H   H291      1.0  0.41961  0.71989  0.10486  1.0000
  C   C370      1.0  0.00937  0.97211  0.98813  1.0000
  H   H292      1.0  0.13766  0.98648  0.24836  1.0000
  H   H293      1.0  0.19835  0.55184  0.99587  1.0000
  C   C371      1.0  0.14557  0.98671  0.26992  1.0000
  H   H294      1.0  0.06895  0.97763  0.19207  1.0000
  C   C372      1.0  0.18481  0.97122  0.30701  1.0000
  H   H295      1.0  0.99852  0.86963  0.24981  1.0000
  H   H296      1.0  0.00746  0.50227  1.00000  1.0000
  C   C373      1.0  0.28921  0.52416  0.99147  1.0000
  H   H297      1.0  0.34625  0.67704  0.31163  1.0000
  C   C374      1.0  0.00300  0.68686  0.25728  1.0000
  C   C375      1.0  0.99143  0.58421  0.21134  1.0000
  C   C376      1.0  0.17520  0.98165  0.16465  1.0000
  C   C377      1.0  0.04790  0.75592  0.31704  1.0000
  H   H298      1.0  0.99079  0.77159  0.20943  1.0000
  C   C378      1.0  0.22344  0.48987  0.14561  1.0000
  H   H299      1.0  0.20806  0.95876  0.31428  1.0000
  H   H300      1.0  0.33634  0.98665  0.29413  1.0000
  H   H301      1.0  0.48728  0.64157  0.21540  1.0000
  H   H302      1.0  0.98967  0.92907  0.13580  1.0000
  C   C379      1.0  0.98940  0.84334  0.24970  1.0000
  Fe  Fe26      1.0  0.04585  0.92786  0.39572  1.0000
  S   S53       1.0  0.06159  0.87159  0.39588  1.0000
  C   C380      1.0  0.43629  0.77442  0.44453  1.0000
  H   H303      1.0  0.48088  0.70350  0.54224  1.0000
  Fe  Fe27      1.0  0.05224  0.93089  0.33123  1.0000
  Fe  Fe28      1.0  0.02570  0.86590  0.35948  1.0000
  H   H304      1.0  0.06268  0.89348  0.46006  1.0000
  Fe  Fe29      1.0  0.10221  0.88607  0.36417  1.0000
  S   S54       1.0  0.15509  0.86005  0.36022  1.0000
  H   H305      1.0  0.37540  0.63322  0.34078  1.0000
  S   S55       1.0  0.08925  0.94242  0.36620  1.0000
  Fe  Fe30      1.0  0.40700  0.83923  0.34101  1.0000
  S   S56       1.0  0.45226  0.87234  0.33139  1.0000
  S   S57       1.0  0.40871  0.78072  0.33994  1.0000
  Fe  Fe31      1.0  0.35957  0.90103  0.34962  1.0000
  S   S58       1.0  0.40280  0.93863  0.34127  1.0000
  S   S59       1.0  0.30638  0.92477  0.35727  1.0000
  C   C381      1.0  0.47977  0.77555  0.34259  1.0000
  Fe  Fe32      1.0  0.43537  0.90388  0.36857  1.0000
  C   C382      1.0  0.42079  0.62480  0.39533  1.0000
  C   C383      1.0  0.29664  0.53205  0.43164  1.0000
  S   S60       1.0  0.39131  0.86892  0.37939  1.0000
  C   C384      1.0  0.28526  0.51239  0.40910  1.0000
  C   C385      1.0  0.01188  0.87223  0.46349  1.0000
  C   C386      1.0  0.42303  0.50989  0.47878  1.0000
  C   C387      1.0  0.44820  0.72230  0.34058  1.0000
  C   C388      1.0  0.46342  0.91249  0.45413  1.0000
  H   H306      1.0  0.44516  0.61150  0.39299  1.0000
  H   H307      1.0  0.45205  0.91226  0.49819  1.0000
  H   H308      1.0  0.43671  0.91274  0.44791  1.0000
  C   C389      1.0  0.19683  0.87877  0.35879  1.0000
  C   C390      1.0  0.22532  0.85777  0.35238  1.0000
  C   C391      1.0  0.25895  0.87135  0.35154  1.0000
  C   C392      1.0  0.26454  0.90617  0.35728  1.0000
  C   C393      1.0  0.23601  0.92720  0.36345  1.0000
  C   C394      1.0  0.20239  0.91363  0.36418  1.0000
  H   H309      1.0  0.22139  0.83074  0.34827  1.0000
  H   H310      1.0  0.28056  0.85483  0.34681  1.0000
  H   H311      1.0  0.23999  0.95413  0.36801  1.0000
  H   H312      1.0  0.18083  0.92997  0.36944  1.0000
  C   C395      1.0  0.46804  0.73515  0.57769  1.0000
  H   H313      1.0  0.37824  0.78670  0.39229  1.0000
  C   C396      1.0  0.42315  0.77707  0.41741  1.0000
  H   H314      1.0  0.45787  0.76079  0.61645  1.0000
  P   P14       1.0  0.48142  0.76609  0.45016  1.0000
  C   C397      1.0  0.47937  0.70497  0.56472  1.0000
  C   C398      1.0  0.46656  0.73715  0.60677  1.0000
  S   S61       1.0  0.03711  0.95956  0.43637  1.0000
  C   C399      1.0  0.44835  0.75835  0.34112  1.0000
  C   C400      1.0  0.99213  0.84275  0.46837  1.0000
  H   H315      1.0  0.43512  0.61517  0.32958  1.0000
  C   C401      1.0  0.43963  0.53528  0.49431  1.0000
  H   H316      1.0  0.09200  0.83739  0.46644  1.0000
  C   C402      1.0  0.38867  0.64443  0.32322  1.0000
  H   H317      1.0  0.47220  0.83041  0.41810  1.0000
  H   H318      1.0  0.33453  0.67405  0.40333  1.0000
  H   H319      1.0  0.43203  0.60227  0.44957  1.0000
  C   C403      1.0  0.37875  0.78362  0.46296  1.0000
  H   H320      1.0  0.42286  0.77385  0.48840  1.0000
  S   S62       1.0  0.00812  0.92123  0.36053  1.0000
  H   H321      1.0  0.99926  0.73823  0.42306  1.0000
  C   C404      1.0  0.43286  0.53859  0.33123  1.0000
  H   H322      1.0  0.33636  0.61152  0.41093  1.0000
  H   H323      1.0  0.38755  0.70562  0.39046  1.0000
  H   H324      1.0  0.01324  0.79367  0.39985  1.0000
  C   C405      1.0  0.36608  0.78732  0.43592  1.0000
  C   C406      1.0  0.04478  0.80906  0.47105  1.0000
  H   H325      1.0  0.40665  0.71331  0.63383  1.0000
  C   C407      1.0  0.06420  0.83881  0.46717  1.0000
  C   C408      1.0  0.41939  0.66031  0.39107  1.0000
  H   H326      1.0  0.45058  0.52915  0.51447  1.0000
  C   C409      1.0  0.38820  0.78375  0.41321  1.0000
  H   H327      1.0  0.36153  0.78628  0.48057  1.0000
  H   H328      1.0  0.46068  0.75718  0.56526  1.0000
  C   C410      1.0  0.41215  0.55113  0.35279  1.0000
  H   H329      1.0  0.46745  0.70740  0.48675  1.0000
  H   H330      1.0  0.45623  0.51727  0.40777  1.0000
  C   C411      1.0  0.42918  0.57645  0.45744  1.0000
  C   C412      1.0  0.41365  0.77689  0.46728  1.0000
  H   H331      1.0  0.39676  0.49771  0.44074  1.0000
  C   C413      1.0  0.44885  0.52301  0.38656  1.0000
  C   C414      1.0  0.00889  0.81097  0.47179  1.0000
  H   H332      1.0  0.03511  0.75898  0.33697  1.0000
  H   H333      1.0  0.05755  0.78446  0.47335  1.0000
  S   S63       1.0  0.06714  0.87554  0.32788  1.0000
  C   C415      1.0  0.35118  0.54163  0.40817  1.0000
  H   H334      1.0  0.44235  0.67416  0.38541  1.0000
  P   P15       1.0  0.39347  0.56079  0.40826  1.0000
  C   C416      1.0  0.41225  0.55112  0.44177  1.0000
  C   C417      1.0  0.41983  0.54322  0.38064  1.0000
  C   C418      1.0  0.47225  0.91245  0.48272  1.0000
  C   C419      1.0  0.32947  0.54655  0.43123  1.0000
  S   S64       1.0  0.47956  0.92076  0.39767  1.0000
  H   H335      1.0  0.43990  0.77444  0.39950  1.0000
  H   H336      1.0  0.07060  0.70726  0.32763  1.0000
  H   H337      1.0  0.33798  0.56161  0.44894  1.0000
  C   C420      1.0  0.46974  0.51088  0.36495  1.0000
  C   C421      1.0  0.44284  0.56846  0.48361  1.0000
  H   H338      1.0  0.42401  0.70886  0.33938  1.0000
  C   C422      1.0  0.48113  0.66209  0.46365  1.0000
  C   C423      1.0  0.39101  0.60668  0.40270  1.0000
  C   C424      1.0  0.35981  0.62467  0.40549  1.0000
  C   C425      1.0  0.35860  0.66023  0.40115  1.0000
  H   H339      1.0  0.47485  0.64476  0.48051  1.0000
  C   C426      1.0  0.47644  0.70889  0.62313  1.0000
  C   C427      1.0  0.38840  0.67806  0.39396  1.0000
  H   H340      1.0  0.33915  0.79311  0.43250  1.0000
  H   H341      1.0  0.39023  0.56710  0.34774  1.0000
  C   C428      1.0  0.04773  0.87040  0.46359  1.0000
  C   C429      1.0  0.46171  0.51856  0.33731  1.0000
  C   C430      1.0  0.00373  0.97194  0.46046  1.0000
  H   H342      1.0  0.45655  0.58771  0.49553  1.0000
  C   C431      1.0  0.40937  0.51774  0.45261  1.0000
  H   H343      1.0  0.47466  0.96810  0.58012  1.0000
  C   C432      1.0  0.47751  0.69761  0.46726  1.0000
  H   H344      1.0  0.28003  0.53598  0.44950  1.0000
  H   H345      1.0  0.35584  0.51657  0.36785  1.0000
  H   H346      1.0  0.46780  0.83047  0.47936  1.0000
  H   H347      1.0  0.48033  0.80329  0.34298  1.0000
  C   C433      1.0  0.48680  0.72022  0.44580  1.0000
  H   H348      1.0  0.48143  0.85084  0.52673  1.0000
  C   C434      1.0  0.33963  0.52158  0.38567  1.0000
  H   H349      1.0  0.25983  0.50109  0.40944  1.0000
  H   H350      1.0  0.29803  0.49161  0.36878  1.0000
  C   C435      1.0  0.48257  0.81404  0.49314  1.0000
  H   H351      1.0  0.47875  0.67580  0.34140  1.0000
  C   C436      1.0  0.99385  0.77694  0.39111  1.0000
  C   C437      1.0  0.30677  0.50711  0.38617  1.0000
  C   C438      1.0  0.47914  0.70353  0.34167  1.0000
  H   H352      1.0  0.99966  0.89676  0.45964  1.0000
  C   C439      1.0  0.48718  0.67851  0.60988  1.0000
  H   H353      1.0  0.99454  0.78752  0.47471  1.0000
  H   H354      1.0  0.34883  0.69820  0.65052  1.0000
  C   C440      1.0  0.16352  0.98771  0.32633  1.0000
  H   H355      1.0  0.17019  0.98763  0.34825  1.0000
  H   H356      1.0  0.47823  0.50955  0.32059  1.0000
  H   H357      1.0  0.15627  0.54041  0.76188  1.0000
  H   H358      1.0  0.23904  0.49649  0.91269  1.0000
  H   H359      1.0  0.05485  0.51993  0.83446  1.0000
  H   H360      1.0  0.44869  0.68556  0.71396  1.0000
  C   C441      1.0  0.28987  0.50635  0.96612  1.0000
  C   C442      1.0  0.43217  0.69991  0.67247  1.0000
  C   C443      1.0  0.37072  0.69535  0.66426  1.0000
  H   H361      1.0  0.06367  0.49358  0.78851  1.0000
  C   C444      1.0  0.48475  0.75467  0.67215  1.0000
  P   P16       1.0  0.47471  0.71146  0.66076  1.0000
  C   C445      1.0  0.42713  0.68820  0.69983  1.0000
  C   C446      1.0  0.99365  0.97759  0.96186  1.0000
  C   C447      1.0  0.19508  0.54241  0.73023  1.0000
  H   H362      1.0  0.20226  0.56862  0.73513  1.0000
  C   C448      1.0  0.14721  0.49831  0.80952  1.0000
  H   H363      1.0  0.09009  0.94416  0.91028  1.0000
  H   H364      1.0  0.20344  0.50481  0.96139  1.0000
  C   C449      1.0  0.10876  0.52146  0.84460  1.0000
  H   H365      1.0  0.36345  0.52194  0.85047  1.0000
  C   C450      1.0  0.36602  0.68318  0.69136  1.0000
  H   H366      1.0  0.44846  0.49008  0.69452  1.0000
  H   H367      1.0  0.47085  0.63774  0.67416  1.0000
  C   C451      1.0  0.14200  0.51325  0.83573  1.0000
  C   C452      1.0  0.04248  0.50284  0.71421  1.0000
  C   C453      1.0  0.34882  0.50866  0.86632  1.0000
  H   H368      1.0  0.46318  0.81425  0.72152  1.0000
  H   H369      1.0  0.16362  0.51768  0.84944  1.0000
  C   C454      1.0  0.07037  0.50186  0.73258  1.0000
  H   H370      1.0  0.44917  0.75520  0.70693  1.0000
  C   C455      1.0  0.08589  0.49983  0.80102  1.0000
  H   H371      1.0  0.29055  0.52081  0.94689  1.0000
  H   H372      1.0  0.34052  0.67650  0.69860  1.0000
  H   H373      1.0  0.99632  0.95830  0.94574  1.0000
  C   C456      1.0  0.47607  0.80295  0.70370  1.0000
  H   H374      1.0  0.07659  0.52460  0.74456  1.0000
  H   H375      1.0  0.12835  0.51130  0.96939  1.0000
  H   H376      1.0  0.03804  0.94920  0.88067  1.0000
  C   C457      1.0  0.36112  0.50710  0.89362  1.0000
  C   C458      1.0  0.20079  0.49874  0.98324  1.0000
  C   C459      1.0  0.07852  0.49091  0.95913  1.0000
  C   C460      1.0  0.46818  0.76939  0.69531  1.0000
  C   C461      1.0  0.16917  0.52622  0.74551  1.0000
  C   C462      1.0  0.08074  0.51472  0.82725  1.0000
  H   H377      1.0  0.10455  0.53202  0.86526  1.0000
  H   H378      1.0  0.02694  0.52587  0.71253  1.0000
  C   C463      1.0  0.10202  0.50876  0.97619  1.0000
  H   H379      1.0  0.38550  0.51880  0.89888  1.0000
  C   C464      1.0  0.21165  0.52487  0.70860  1.0000
  H   H380      1.0  0.39058  0.67028  0.73019  1.0000
  H   H381      1.0  0.23179  0.53740  0.69683  1.0000
  C   C465      1.0  0.39421  0.67967  0.70915  1.0000
  C   C466      1.0  0.07650  0.96843  0.90895  1.0000
  C   C467      1.0  0.11921  0.49192  0.79180  1.0000
  C   C468      1.0  0.15999  0.49214  0.73943  1.0000
  C   C469      1.0  0.04731  0.97126  0.89221  1.0000
  C   C470      1.0  0.20207  0.49122  0.70203  1.0000
  H   H382      1.0  0.31011  0.49106  0.83764  1.0000
  C   C471      1.0  0.31870  0.49137  0.85912  1.0000
  H   H383      1.0  0.17762  0.49091  0.89990  1.0000
  H   H384      1.0  0.17301  0.49118  0.80327  1.0000
  C   C472      1.0  0.40363  0.70384  0.65485  1.0000
  C   C473      1.0  0.84073  0.44378  0.25279  1.0000
  C   C474      1.0  0.91951  0.48841  0.25628  1.0000
  H   H385      1.0  0.50925  0.46411  0.21386  1.0000
  H   H386      1.0  0.49182  0.23306  0.06443  1.0000
  H   H387      1.0  0.94384  0.35467  0.13352  1.0000
  C   C475      1.0  0.87295  0.41321  0.28815  1.0000
  H   H388      1.0  0.95570  0.39765  0.09729  1.0000
  C   C476      1.0  0.50623  0.30198  0.01543  1.0000
  C   C477      1.0  0.49809  0.32992  0.06878  1.0000
  H   H389      1.0  0.80493  0.41336  0.22906  1.0000
  H   H390      1.0  0.86213  0.35910  0.29171  1.0000
  H   H391      1.0  0.50947  0.29173  0.99465  1.0000
  H   H392      1.0  0.70075  0.29465  0.98826  1.0000
  P   P17       1.0  0.88722  0.48323  0.28298  1.0000
  C   C478      1.0  0.95333  0.43838  0.04958  1.0000
  C   C479      1.0  0.86473  0.44411  0.27461  1.0000
  H   H393      1.0  0.66173  0.02436  0.98995  1.0000
  H   H394      1.0  0.50497  0.17411  0.07970  1.0000
  H   H395      1.0  0.52237  0.04983  0.00129  1.0000
  H   H396      1.0  0.83502  0.46711  0.24138  1.0000
  C   C480      1.0  0.54110  0.18959  0.98642  1.0000
  C   C481      1.0  0.97589  0.47468  0.23743  1.0000
  H   H397      1.0  0.68056  0.23440  0.99170  1.0000
  C   C482      1.0  0.52879  0.32735  0.02498  1.0000
  H   H398      1.0  0.81814  0.35933  0.25431  1.0000
  H   H399      1.0  0.90421  0.45904  0.03721  1.0000
  H   H400      1.0  0.53838  0.18957  0.00891  1.0000
  C   C483      1.0  0.92832  0.46416  0.04767  1.0000
  H   H401      1.0  0.94822  0.41338  0.04054  1.0000
  C   C484      1.0  0.95069  0.47029  0.25789  1.0000
  C   C485      1.0  0.85602  0.38279  0.28094  1.0000
  C   C486      1.0  0.52454  0.34149  0.05156  1.0000
  C   C487      1.0  0.82382  0.41334  0.24564  1.0000
  H   H402      1.0  0.54135  0.36183  0.05871  1.0000
  C   C488      1.0  0.83131  0.38290  0.25981  1.0000
  H   H403      1.0  0.54912  0.33666  0.01162  1.0000
  H   H404      1.0  0.89246  0.41248  0.30421  1.0000
  H   H405      1.0  0.49427  0.34142  0.08915  1.0000
  H   H406      1.0  0.62561  0.07104  0.00911  1.0000
  H   H407      1.0  0.95579  0.45327  0.27523  1.0000
  C   C489      1.0  0.50269  0.05893  0.98719  1.0000
  C   C490      1.0  0.49146  0.48407  0.22016  1.0000
  C   C491      1.0  0.98678  0.02654  0.00382  1.0000
  H   H408      1.0  0.98374  0.04562  0.02004  1.0000
  C   C492      1.0  0.96893  0.35543  0.12375  1.0000
  C   C493      1.0  0.97577  0.37979  0.10310  1.0000
  C   C494      1.0  0.98493  0.44506  0.06264  1.0000
  C   C495      1.0  0.48889  0.17824  0.06160  1.0000
  C   C496      1.0  0.90528  0.48164  0.31758  1.0000
  C   C497      1.0  0.62608  0.06637  0.98686  1.0000
  Fe  Fe33      1.0  0.90586  0.03649  0.56433  1.0000
  S   S65       1.0  0.86641  0.07909  0.55929  1.0000
  S   S66       1.0  0.87649  0.01129  0.59955  1.0000
  Fe  Fe34      1.0  0.90525  0.04629  0.62906  1.0000
  S   S67       1.0  0.86626  0.08850  0.62750  1.0000
  Fe  Fe35      1.0  0.83917  0.05509  0.59592  1.0000
  S   S68       1.0  0.78090  0.05097  0.60045  1.0000
  Fe  Fe36      1.0  0.89656  0.10889  0.59140  1.0000
  S   S69       1.0  0.91720  0.16408  0.59051  1.0000
  C   C498      1.0  0.90494  0.14844  0.47896  1.0000
  S   S70       1.0  0.93774  0.06785  0.59434  1.0000
  C   C499      1.0  0.98536  0.25068  0.49779  1.0000
  S   S71       1.0  0.80401  0.46738  0.64843  1.0000
  Fe  Fe37      1.0  0.90235  0.43302  0.58484  1.0000
  S   S72       1.0  0.84779  0.41376  0.58616  1.0000
  H   H409      1.0  0.56913  0.46179  0.52888  1.0000
  Fe  Fe38      1.0  0.84687  0.43415  0.62993  1.0000
  C   C500      1.0  0.56839  0.14956  0.50861  1.0000
  Fe  Fe39      1.0  0.86988  0.36524  0.60548  1.0000
  S   S73       1.0  0.84644  0.31240  0.59651  1.0000
  S   S74       1.0  0.90070  0.45559  0.62838  1.0000
  S   S75       1.0  0.92467  0.38277  0.60094  1.0000
  C   C501      1.0  0.53366  0.02223  0.55162  1.0000
  C   C502      1.0  0.98761  0.12523  0.44604  1.0000
  C   C503      1.0  0.61924  0.46054  0.50977  1.0000
  C   C504      1.0  0.88520  0.46987  0.33991  1.0000
  H   H410      1.0  0.94016  0.48593  0.39350  1.0000
  H   H411      1.0  0.85928  0.46078  0.33643  1.0000
  H   H412      1.0  0.87426  0.44578  0.50951  1.0000
  C   C505      1.0  0.69607  0.48582  0.61190  1.0000
  H   H413      1.0  0.95468  0.29027  0.51734  1.0000
  C   C506      1.0  0.89671  0.20479  0.59399  1.0000
  C   C507      1.0  0.91719  0.23436  0.59692  1.0000
  C   C508      1.0  0.90227  0.26740  0.59850  1.0000
  C   C509      1.0  0.86661  0.27130  0.59674  1.0000
  C   C510      1.0  0.84612  0.24169  0.59419  1.0000
  C   C511      1.0  0.86102  0.20860  0.59300  1.0000
  H   H414      1.0  0.94485  0.23179  0.59753  1.0000
  H   H415      1.0  0.91833  0.28991  0.60040  1.0000
  H   H416      1.0  0.81852  0.24442  0.59274  1.0000
  H   H417      1.0  0.84492  0.18617  0.59063  1.0000
  C   C512      1.0  0.95812  0.26289  0.51406  1.0000
  H   H418      1.0  0.70670  0.48084  0.53969  1.0000
  C   C513      1.0  0.49134  0.02634  0.48961  1.0000
  C   C514      1.0  0.76284  0.47434  0.63352  1.0000
  C   C515      1.0  0.89075  0.07959  0.49022  1.0000
  H   H419      1.0  0.62352  0.05349  0.53402  1.0000
  C   C516      1.0  0.75057  0.45419  0.61152  1.0000
  H   H420      1.0  0.70782  0.44372  0.58421  1.0000
  H   H421      1.0  0.54474  0.03629  0.62128  1.0000
  C   C517      1.0  0.72041  0.01526  0.59523  1.0000
  C   C518      1.0  0.92250  0.09347  0.49789  1.0000
  C   C519      1.0  0.91325  0.48363  0.51703  1.0000
  H   H422      1.0  0.64143  0.06603  0.64100  1.0000
  C   C520      1.0  0.59376  0.01042  0.51856  1.0000
  C   C521      1.0  0.75638  0.01366  0.59290  1.0000
  H   H423      1.0  0.88519  0.05286  0.49450  1.0000
  C   C522      1.0  0.72845  0.48568  0.52615  1.0000
  C   C523      1.0  0.89805  0.47087  0.36710  1.0000
  C   C524      1.0  0.71729  0.45982  0.60090  1.0000
  C   C525      1.0  0.97646  0.29363  0.64382  1.0000
  C   C526      1.0  0.65806  0.04691  0.65035  1.0000
  C   C527      1.0  0.59203  0.47627  0.52391  1.0000
  H   H424      1.0  0.61742  0.43380  0.50367  1.0000
  C   C528      1.0  0.58744  0.12653  0.49238  1.0000
  C   C529      1.0  0.58277  0.09111  0.49549  1.0000
  C   C530      1.0  0.87305  0.13457  0.47177  1.0000
  H   H425      1.0  0.85383  0.15051  0.46178  1.0000
  H   H426      1.0  0.66944  0.46698  0.49209  1.0000
  H   H427      1.0  0.57200  0.17700  0.50616  1.0000
  H   H428      1.0  0.52064  0.09270  0.54561  1.0000
  C   C531      1.0  0.93518  0.23976  0.52611  1.0000
  H   H429      1.0  0.56848  0.05388  0.57566  1.0000
  C   C532      1.0  0.75808  0.46562  0.52916  1.0000
  H   H430      1.0  0.70830  0.03932  0.60075  1.0000
  C   C533      1.0  0.78687  0.47204  0.51261  1.0000
  S   S76       1.0  0.92569  0.46839  0.55088  1.0000
  H   H431      1.0  0.86010  0.46708  0.46202  1.0000
  C   C534      1.0  0.92980  0.12814  0.49248  1.0000
  C   C535      1.0  0.88746  0.46792  0.50120  1.0000
  C   C536      1.0  0.53974  0.10178  0.53100  1.0000
  H   H432      1.0  0.84121  0.08932  0.47201  1.0000
  C   C537      1.0  0.93075  0.48415  0.37227  1.0000
  H   H433      1.0  0.80997  0.45676  0.51522  1.0000
  C   C538      1.0  0.53380  0.02629  0.60215  1.0000
  C   C539      1.0  0.54713  0.03613  0.57632  1.0000
  H   H434      1.0  0.91395  0.24919  0.53867  1.0000
  Fe  Fe40      1.0  0.91874  0.40414  0.64474  1.0000
  C   C540      1.0  0.87952  0.48010  0.47417  1.0000
  H   H435      1.0  0.59741  0.07354  0.48254  1.0000
  H   H436      1.0  0.91013  0.17499  0.47383  1.0000
  P   P18       1.0  0.55312  0.03283  0.51863  1.0000
  H   H437      1.0  0.94108  0.07691  0.50793  1.0000
  H   H438      1.0  0.75897  0.44545  0.54470  1.0000
  H   H439      1.0  0.76653  0.43392  0.60302  1.0000
  C   C541      1.0  0.58340  0.44543  0.63116  1.0000
  P   P19       1.0  0.97153  0.14607  0.50042  1.0000
  C   C542      1.0  0.55935  0.07850  0.51519  1.0000
  H   H440      1.0  0.98535  0.33029  0.61116  1.0000
  H   H441      1.0  0.94051  0.19709  0.64415  1.0000
  C   C543      1.0  0.52702  0.02086  0.48903  1.0000
  H   H442      1.0  0.53041  0.44790  0.61835  1.0000
  C   C544      1.0  0.64876  0.47937  0.50341  1.0000
  C   C545      1.0  0.54223  0.00775  0.46467  1.0000
  H   H443      1.0  0.60575  0.13611  0.47729  1.0000
  C   C546      1.0  0.54445  0.13719  0.52782  1.0000
  H   H444      1.0  0.88225  0.46261  0.38444  1.0000
  H   H445      1.0  0.59339  0.45102  0.61059  1.0000
  C   C547      1.0  0.86594  0.10015  0.47744  1.0000
  C   C548      1.0  0.50736  0.99773  0.55323  1.0000
  H   H446      1.0  0.97953  0.16919  0.55881  1.0000
  H   H447      1.0  0.70299  0.07916  0.64953  1.0000
  C   C549      1.0  0.95290  0.99202  0.50072  1.0000
  C   C550      1.0  0.93954  0.20444  0.52210  1.0000
  S   S77       1.0  0.92004  0.00290  0.52570  1.0000
  H   H448      1.0  0.96029  0.12260  0.44247  1.0000
  C   C551      1.0  0.96677  0.19190  0.50571  1.0000
  H   H449      1.0  0.67805  0.02111  0.53626  1.0000
  H   H450      1.0  0.92165  0.18685  0.53188  1.0000
  H   H451      1.0  0.52939  0.15506  0.54017  1.0000
  C   C552      1.0  0.52184  0.99868  0.44184  1.0000
  C   C553      1.0  0.62390  0.02682  0.52760  1.0000
  C   C554      1.0  0.98734  0.00140  0.50414  1.0000
  H   H452      1.0  0.70396  0.36657  0.64764  1.0000
  H   H453      1.0  0.49774  0.99383  0.62359  1.0000
  C   C555      1.0  0.50731  0.00219  0.60351  1.0000
  S   S78       1.0  0.86463  0.38458  0.64944  1.0000
  H   H454      1.0  0.63327  0.44451  0.64966  1.0000
  H   H455      1.0  0.56975  0.00427  0.46324  1.0000
  C   C556      1.0  0.65484  0.00853  0.52907  1.0000
  H   H456      1.0  0.93717  0.13396  0.64287  1.0000
  C   C557      1.0  0.54799  0.44352  0.63548  1.0000
  S   S79       1.0  0.92857  0.02831  0.67036  1.0000
  C   C558      1.0  0.78891  0.11184  0.73252  1.0000
  Fe  Fe41      1.0  0.94584  0.13001  0.87609  1.0000
  S   S80       1.0  0.95814  0.07735  0.85936  1.0000
  C   C559      1.0  0.63206  0.29922  0.94450  1.0000
  Fe  Fe42      1.0  0.87166  0.10870  0.89057  1.0000
  S   S81       1.0  0.87958  0.05488  0.87495  1.0000
  S   S82       1.0  0.82051  0.13125  0.90556  1.0000
  Fe  Fe43      1.0  0.93081  0.05778  0.89792  1.0000
  C   C560      1.0  0.72959  0.40553  0.67165  1.0000
  Fe  Fe44      1.0  0.90655  0.07921  0.83810  1.0000
  S   S83       1.0  0.88814  0.08022  0.79266  1.0000
  S   S84       1.0  0.92116  0.11061  0.91556  1.0000
  S   S85       1.0  0.89606  0.13278  0.85323  1.0000
  Fe  Fe45      1.0  0.61609  0.09409  0.85735  1.0000
  S   S86       1.0  0.58037  0.04861  0.85874  1.0000
  S   S87       1.0  0.67292  0.08183  0.86386  1.0000
  Fe  Fe46      1.0  0.56083  0.13881  0.83001  1.0000
  S   S88       1.0  0.52301  0.09517  0.82757  1.0000
  S   S89       1.0  0.55455  0.19305  0.81298  1.0000
  Fe  Fe47      1.0  0.53894  0.08559  0.87239  1.0000
  C   C561      1.0  0.80160  0.15410  0.82981  1.0000
  Fe  Fe48      1.0  0.56788  0.06156  0.81401  1.0000
  S   S90       1.0  0.57983  0.01577  0.78455  1.0000
  S   S91       1.0  0.57577  0.13017  0.87462  1.0000
  S   S92       1.0  0.60396  0.10643  0.81295  1.0000
  H   H457      1.0  0.72089  0.09665  0.71610  1.0000
  H   H458      1.0  0.96232  0.15564  0.81138  1.0000
  C   C562      1.0  0.86307  0.27006  0.67328  1.0000
  C   C563      1.0  0.77970  0.11841  0.89270  1.0000
  C   C564      1.0  0.75030  0.13780  0.89965  1.0000
  C   C565      1.0  0.71733  0.12762  0.89058  1.0000
  C   C566      1.0  0.71345  0.09742  0.87505  1.0000
  C   C567      1.0  0.74276  0.07790  0.86848  1.0000
  C   C568      1.0  0.77578  0.08871  0.87660  1.0000
  H   H459      1.0  0.75307  0.16075  0.91218  1.0000
  H   H460      1.0  0.69499  0.14266  0.89616  1.0000
  H   H461      1.0  0.73982  0.05401  0.85722  1.0000
  H   H462      1.0  0.79809  0.07347  0.87122  1.0000
  H   H463      1.0  0.72092  0.18680  0.82369  1.0000
  H   H464      1.0  0.54689  0.42823  0.70481  1.0000
  H   H465      1.0  0.54014  0.26307  0.79841  1.0000
  C   C569      1.0  0.55728  0.21709  0.97300  1.0000
  C   C570      1.0  0.96900  0.32377  0.82311  1.0000
  H   H466      1.0  0.94501  0.21389  0.90130  1.0000
  H   H467      1.0  0.61982  0.18801  0.91162  1.0000
  C   C571      1.0  0.96525  0.43053  0.72342  1.0000
  C   C572      1.0  0.62929  0.46994  0.75673  1.0000
  H   H468      1.0  0.94625  0.44671  0.71348  1.0000
  S   S93       1.0  0.96012  0.38701  0.67678  1.0000
  C   C573      1.0  0.91825  0.04415  0.70422  1.0000
  C   C574      1.0  0.89405  0.07031  0.70835  1.0000
  C   C575      1.0  0.88613  0.08161  0.73553  1.0000
  C   C576      1.0  0.90215  0.06702  0.75899  1.0000
  C   C577      1.0  0.92692  0.04142  0.75488  1.0000
  C   C578      1.0  0.93484  0.03003  0.72764  1.0000
  H   H469      1.0  0.88123  0.08168  0.69064  1.0000
  H   H470      1.0  0.86707  0.10150  0.73847  1.0000
  H   H471      1.0  0.49904  0.18691  0.85360  1.0000
  C   C579      1.0  0.74347  0.17151  0.81893  1.0000
  H   H472      1.0  0.77427  0.06109  0.81827  1.0000
  C   C580      1.0  0.71561  0.01026  0.92929  1.0000
  C   C581      1.0  0.60664  0.08056  0.94044  1.0000
  C   C582      1.0  0.97594  0.40022  0.71022  1.0000
  H   H473      1.0  0.83621  0.31665  0.68408  1.0000
  C   C583      1.0  0.98321  0.26039  0.65386  1.0000
  H   H474      1.0  0.88594  0.34197  0.70903  1.0000
  H   H475      1.0  0.56624  0.32431  0.77901  1.0000
  H   H476      1.0  0.64667  0.16763  0.86800  1.0000
  C   C584      1.0  0.66904  0.39220  0.67583  1.0000
  C   C585      1.0  0.80481  0.30950  0.77718  1.0000
  C   C586      1.0  0.78207  0.28264  0.77147  1.0000
  C   C587      1.0  0.79141  0.24879  0.77765  1.0000
  C   C588      1.0  0.82373  0.24175  0.78901  1.0000
  C   C589      1.0  0.84732  0.26845  0.79367  1.0000
  C   C590      1.0  0.83711  0.30252  0.78867  1.0000
  P   P20       1.0  0.88838  0.25885  0.80935  1.0000
  C   C591      1.0  0.87935  0.25337  0.84593  1.0000
  C   C592      1.0  0.90660  0.22013  0.79460  1.0000
  C   C593      1.0  0.93132  0.20154  0.80964  1.0000
  C   C594      1.0  0.94407  0.17046  0.79922  1.0000
  C   C595      1.0  0.93242  0.15782  0.77369  1.0000
  C   C596      1.0  0.90895  0.17688  0.75798  1.0000
  C   C597      1.0  0.89637  0.20818  0.76820  1.0000
  C   C598      1.0  0.87969  0.28166  0.86417  1.0000
  C   C599      1.0  0.87354  0.27701  0.89262  1.0000
  C   C600      1.0  0.86620  0.24427  0.90291  1.0000
  C   C601      1.0  0.86456  0.21630  0.88470  1.0000
  C   C602      1.0  0.87078  0.22089  0.85628  1.0000
  C   C603      1.0  0.92039  0.29184  0.80481  1.0000
  C   C604      1.0  0.92114  0.31213  0.78066  1.0000
  C   C605      1.0  0.94485  0.33897  0.77834  1.0000
  C   C606      1.0  0.97336  0.17970  0.70839  1.0000
  C   C607      1.0  0.97022  0.26347  0.90041  1.0000
  C   C608      1.0  0.94545  0.29697  0.82547  1.0000
  H   H477      1.0  0.79731  0.33582  0.77292  1.0000
  H   H478      1.0  0.75705  0.28812  0.76261  1.0000
  H   H479      1.0  0.77353  0.22800  0.77383  1.0000
  H   H480      1.0  0.83028  0.21544  0.79423  1.0000
  H   H481      1.0  0.85383  0.32380  0.79382  1.0000
  H   H482      1.0  0.94017  0.21052  0.82979  1.0000
  C   C609      1.0  0.63785  0.24198  0.96379  1.0000
  H   H483      1.0  0.94130  0.13301  0.76628  1.0000
  H   H484      1.0  0.90032  0.16703  0.73804  1.0000
  H   H485      1.0  0.87855  0.22276  0.75556  1.0000
  H   H486      1.0  0.88521  0.30724  0.85655  1.0000
  H   H487      1.0  0.87484  0.29875  0.90671  1.0000
  H   H488      1.0  0.86177  0.24049  0.92497  1.0000
  H   H489      1.0  0.85877  0.19094  0.89266  1.0000
  H   H490      1.0  0.86913  0.19911  0.84238  1.0000
  H   H491      1.0  0.90329  0.30754  0.76379  1.0000
  H   H492      1.0  0.94490  0.35528  0.76005  1.0000
  H   H493      1.0  0.54253  0.38367  0.78029  1.0000
  C   C610      1.0  0.71420  0.02943  0.66691  1.0000
  H   H494      1.0  0.94671  0.28054  0.84363  1.0000
  C   C611      1.0  0.78493  0.02902  0.92346  1.0000
  H   H495      1.0  0.80088  0.09116  0.66394  1.0000
  H   H496      1.0  0.80963  0.15773  0.75199  1.0000
  H   H497      1.0  0.61834  0.00865  0.65292  1.0000
  H   H498      1.0  0.98130  0.12849  0.72450  1.0000
  C   C612      1.0  0.66094  0.30977  0.95956  1.0000
  C   C613      1.0  0.77140  0.12699  0.79135  1.0000
  C   C614      1.0  0.50754  0.34134  0.91444  1.0000
  H   H499      1.0  0.49724  0.31934  0.87428  1.0000
  H   H500      1.0  0.61905  0.26204  0.82768  1.0000
  H   H501      1.0  0.71956  0.14577  0.78452  1.0000
  C   C615      1.0  0.55352  0.02321  0.73042  1.0000
  C   C616      1.0  0.77283  0.17442  0.83550  1.0000
  C   C617      1.0  0.57833  0.40301  0.75000  1.0000
  C   C618      1.0  0.81653  0.03981  0.75880  1.0000
  C   C619      1.0  0.74275  0.14800  0.79684  1.0000
  C   C620      1.0  0.82794  0.00036  0.68680  1.0000
  H   H502      1.0  0.97136  0.46412  0.75901  1.0000
  C   C621      1.0  0.79047  0.04696  0.80409  1.0000
  C   C622      1.0  0.52523  0.33778  0.93958  1.0000
  C   C623      1.0  0.54798  0.31024  0.94332  1.0000
  C   C624      1.0  0.55319  0.28612  0.92188  1.0000
  C   C625      1.0  0.66649  0.98960  0.66878  1.0000
  P   P21       1.0  0.58359  0.25138  0.92657  1.0000
  C   C626      1.0  0.61985  0.26544  0.94700  1.0000
  C   C627      1.0  0.56106  0.21698  0.94388  1.0000
  C   C628      1.0  0.79375  0.99531  0.69471  1.0000
  C   C629      1.0  0.70823  0.08606  0.73409  1.0000
  C   C630      1.0  0.52124  0.25541  0.81368  1.0000
  C   C631      1.0  0.83219  0.00167  0.79654  1.0000
  C   C632      1.0  0.54687  0.18997  0.92834  1.0000
  C   C633      1.0  0.69260  0.05439  0.65538  1.0000
  H   H503      1.0  0.68986  0.01343  0.87549  1.0000
  C   C634      1.0  0.60583  0.39550  0.73197  1.0000
  H   H504      1.0  0.81156  0.03663  0.92095  1.0000
  C   C635      1.0  0.96643  0.22851  0.89328  1.0000
  C   C636      1.0  0.60320  0.23680  0.89446  1.0000
  C   C637      1.0  0.60463  0.25813  0.87090  1.0000
  C   C638      1.0  0.61960  0.24622  0.84620  1.0000
  C   C639      1.0  0.63447  0.21353  0.84513  1.0000
  C   C640      1.0  0.63501  0.19297  0.86891  1.0000
  C   C641      1.0  0.61946  0.20452  0.89350  1.0000
  H   H505      1.0  0.54054  0.04602  0.73792  1.0000
  C   C642      1.0  0.53333  0.28852  0.89754  1.0000
  C   C643      1.0  0.52272  0.22213  0.82502  1.0000
  C   C644      1.0  0.97459  0.00770  0.95618  1.0000
  H   H506      1.0  0.82115  0.04827  0.73783  1.0000
  C   C645      1.0  0.97840  0.25607  0.74277  1.0000
  H   H507      1.0  0.56742  0.42858  0.75090  1.0000
  H   H508      1.0  0.82359  0.11493  0.80386  1.0000
  C   C646      1.0  0.94707  0.14680  0.66124  1.0000
  H   H509      1.0  0.54818  0.19004  0.90579  1.0000
  S   S94       1.0  0.95392  0.01237  0.92285  1.0000
  S   S95       1.0  0.49394  0.08125  0.90361  1.0000
  P   P22       1.0  0.96454  0.24623  0.68635  1.0000
  H   H510      1.0  0.95433  0.24305  0.74654  1.0000
  H   H511      1.0  0.61955  0.31733  0.93068  1.0000
  H   H512      1.0  0.59410  0.28385  0.87133  1.0000
  C   C647      1.0  0.97150  0.03224  0.97743  1.0000
  H   H513      1.0  0.64509  0.20391  0.82575  1.0000
  C   C648      1.0  0.82250  0.15554  0.70868  1.0000
  C   C649      1.0  0.78711  0.09320  0.70745  1.0000
  C   C650      1.0  0.79369  0.05758  0.77630  1.0000
  H   H514      1.0  0.66071  0.07913  0.71161  1.0000
  P   P23       1.0  0.76993  0.09478  0.76412  1.0000
  C   C651      1.0  0.53518  0.43718  0.66211  1.0000
  H   H515      1.0  0.64053  0.35528  0.71808  1.0000
  H   H516      1.0  0.63137  0.44641  0.76860  1.0000
  C   C652      1.0  0.67369  0.07670  0.73148  1.0000
  H   H517      1.0  0.85400  0.99917  0.75537  1.0000
  C   C653      1.0  0.77296  0.99872  0.91124  1.0000
  C   C654      1.0  0.55773  0.43233  0.68441  1.0000
  C   C655      1.0  0.64652  0.03318  0.94714  1.0000
  C   C656      1.0  0.60602  0.08658  0.96913  1.0000
  P   P24       1.0  0.67113  0.99754  0.93331  1.0000
  C   C657      1.0  0.62448  0.46902  0.72774  1.0000
  C   C658      1.0  0.57427  0.00427  0.74863  1.0000
  H   H518      1.0  0.52109  0.14115  0.92974  1.0000
  C   C659      1.0  0.91905  0.29855  0.70139  1.0000
  C   C660      1.0  0.73844  0.98940  0.91405  1.0000
  C   C661      1.0  0.94863  0.18268  0.66223  1.0000
  C   C662      1.0  0.89420  0.25210  0.67448  1.0000
  C   C663      1.0  0.92256  0.26621  0.68851  1.0000
  H   H519      1.0  0.98437  0.19143  0.72670  1.0000
  C   C664      1.0  0.67196  0.06214  0.78034  1.0000
  C   C665      1.0  0.65557  0.06480  0.75459  1.0000
  C   C666      1.0  0.51147  0.31667  0.89354  1.0000
  H   H520      1.0  0.59089  0.09604  0.92676  1.0000
  C   C667      1.0  0.66675  0.25260  0.97878  1.0000
  H   H521      1.0  0.82387  0.15551  0.84325  1.0000
  C   C668      1.0  0.56416  0.37749  0.76686  1.0000
  C   C669      1.0  0.96134  0.19963  0.68596  1.0000
  H   H522      1.0  0.93942  0.02985  0.77268  1.0000
  H   H523      1.0  0.53199  0.02663  0.68902  1.0000
  C   C670      1.0  0.65163  0.99022  0.84963  1.0000
  H   H524      1.0  0.52147  0.35662  0.95599  1.0000
  C   C671      1.0  0.62695  0.05412  0.92943  1.0000
  H   H525      1.0  0.95153  0.27565  0.91388  1.0000
  H   H526      1.0  0.95373  0.00990  0.72472  1.0000
  H   H527      1.0  0.77150  0.07430  0.94681  1.0000
  C   C672      1.0  0.72531  0.08247  0.75977  1.0000
  C   C673      1.0  0.54871  0.01207  0.70261  1.0000
  H   H528      1.0  0.98758  0.32829  0.83954  1.0000
  H   H529      1.0  0.94088  0.31110  0.71100  1.0000
  P   P25       1.0  0.62274  0.42861  0.70927  1.0000
  H   H530      1.0  0.53502  0.26908  0.88138  1.0000
  C   C674      1.0  0.70665  0.07071  0.78293  1.0000
  C   C675      1.0  0.97192  0.14377  0.70724  1.0000
  H   H531      1.0  0.98617  0.36630  0.79855  1.0000
  H   H532      1.0  0.62720  0.04997  0.90715  1.0000
  C   C676      1.0  0.85990  0.30216  0.68609  1.0000
  H   H533      1.0  0.95987  0.31121  0.65509  1.0000
  H   H534      1.0  0.77308  0.19173  0.85321  1.0000
  C   C677      1.0  0.88785  0.31635  0.70022  1.0000
  C   C678      1.0  0.64507  0.01453  0.65698  1.0000
  C   C679      1.0  0.80697  0.14310  0.73295  1.0000
  C   C680      1.0  0.57749  0.34415  0.76609  1.0000
  H   H535      1.0  0.74103  0.03552  0.66988  1.0000
  C   C681      1.0  0.59344  0.43396  0.68029  1.0000
  H   H536      1.0  0.83656  0.17952  0.70912  1.0000
  H   H537      1.0  0.75433  0.40146  0.66172  1.0000
  C   C682      1.0  0.66508  0.41813  0.69602  1.0000
  C   C683      1.0  0.80967  0.01926  0.81421  1.0000
  H   H538      1.0  0.65764  0.05353  0.79840  1.0000
  C   C684      1.0  0.80109  0.13071  0.80769  1.0000
  H   H539      1.0  0.56176  0.30802  0.96280  1.0000
  C   C685      1.0  0.66743  0.99712  0.87518  1.0000
  H   H540      1.0  0.69173  0.45805  0.71912  1.0000
  C   C686      1.0  0.82021  0.13690  0.68383  1.0000
  C   C687      1.0  0.72597  0.43118  0.69182  1.0000
  C   C688      1.0  0.52256  0.48510  0.74789  1.0000
  H   H541      1.0  0.80794  0.01222  0.83598  1.0000
  C   C689      1.0  0.80249  0.10574  0.68322  1.0000
  H   H542      1.0  0.74797  0.44687  0.69730  1.0000
  H   H543      1.0  0.71842  0.06901  0.80329  1.0000
  H   H544      1.0  0.53667  0.05942  0.95138  1.0000
  H   H545      1.0  0.77394  0.06882  0.70664  1.0000
  H   H546      1.0  0.89617  0.22810  0.66330  1.0000
  C   C690      1.0  0.52812  0.16216  0.97083  1.0000
  C   C691      1.0  0.69391  0.43748  0.70403  1.0000
  C   C692      1.0  0.76232  0.05022  0.93821  1.0000
  H   H547      1.0  0.62866  0.05804  0.75265  1.0000
  H   H548      1.0  0.83236  0.14646  0.66504  1.0000
  C   C693      1.0  0.96835  0.34509  0.79981  1.0000
  C   C694      1.0  0.61930  0.36196  0.73154  1.0000
  C   C695      1.0  0.53100  0.16244  0.94183  1.0000
  C   C696      1.0  0.97966  0.44039  0.74931  1.0000
  C   C697      1.0  0.49096  0.46934  0.75451  1.0000
  C   C698      1.0  0.49477  0.27844  0.82121  1.0000
  C   C699      1.0  0.83544  0.01181  0.76879  1.0000
  H   H549      1.0  0.61536  0.31051  0.74789  1.0000
  H   H550      1.0  0.84442  0.01751  0.69848  1.0000
  C   C700      1.0  0.51098  0.06449  0.95884  1.0000
  C   C701      1.0  0.72779  0.04099  0.94109  1.0000
  H   H551      1.0  0.78371  0.00894  0.71254  1.0000
  C   C702      1.0  0.60513  0.33642  0.74853  1.0000
  H   H552      1.0  0.71080  0.05823  0.95221  1.0000
  C   C703      1.0  0.49821  0.21246  0.84478  1.0000
  H   H553      1.0  0.66151  0.00170  0.83078  1.0000
  H   H554      1.0  0.67019  0.33591  0.95761  1.0000
  H   H555      1.0  0.49335  0.30363  0.81178  1.0000
  H   H556      1.0  0.51558  0.14077  0.98115  1.0000
  C   C704      1.0  0.70126  0.99689  0.67386  1.0000
  H   H557      1.0  0.56705  0.23823  0.98535  1.0000
  H   H558      1.0  0.62991  0.21537  0.96503  1.0000
  H   H559      1.0  0.95788  0.09953  0.68269  1.0000
  C   C705      1.0  0.95871  0.12736  0.68371  1.0000
  C   C706      1.0  0.64638  0.03985  0.97593  1.0000
  H   H560      1.0  0.49055  0.36308  0.91113  1.0000
  H   H561      1.0  0.95686  0.05542  0.97365  1.0000
  H   H562      1.0  0.58979  0.10674  0.97758  1.0000
  H   H563      1.0  0.50768  0.43703  0.66569  1.0000
  H   H564      1.0  0.84187  0.25982  0.66121  1.0000
  C   C707      1.0  0.67820  0.28652  0.97677  1.0000
  H   H565      1.0  0.54326  0.48433  0.76289  1.0000
  H   H566      1.0  0.97279  0.15051  0.97455  1.0000
  H   H567      1.0  0.64704  0.37755  0.66880  1.0000
  C   C708      1.0  0.70117  0.38596  0.66372  1.0000
  C   C709      1.0  0.60605  0.44130  0.65349  1.0000
  C   C710      1.0  0.88381  0.75918  0.26425  1.0000
  C   C711      1.0  0.95945  0.92210  0.04645  1.0000
  C   C712      1.0  0.81547  0.57742  0.28875  1.0000
  C   C713      1.0  0.95069  0.88841  0.09766  1.0000
  H   H568      1.0  0.79890  0.59970  0.29113  1.0000
  H   H569      1.0  0.65787  0.88564  0.00914  1.0000
  S   S96       1.0  0.96886  0.57674  0.30626  1.0000
  H   H570      1.0  0.58672  0.65721  0.25137  1.0000
  C   C714      1.0  0.93962  0.92257  0.09430  1.0000
  C   C715      1.0  0.90383  0.84993  0.13489  1.0000
  H   H571      1.0  0.52553  0.50436  0.25199  1.0000
  H   H572      1.0  0.94933  0.64483  0.17345  1.0000
  C   C716      1.0  0.96985  0.88793  0.04941  1.0000
  C   C717      1.0  0.91312  0.50934  0.23303  1.0000
  C   C718      1.0  0.97129  0.83068  0.27258  1.0000
  H   H573      1.0  0.81198  0.49030  0.29063  1.0000
  H   H574      1.0  0.88900  0.52296  0.23088  1.0000
  H   H575      1.0  0.94634  0.79610  0.11057  1.0000
  H   H576      1.0  0.98247  0.87482  0.03226  1.0000
  H   H577      1.0  0.86056  0.78834  0.17118  1.0000
  H   H578      1.0  0.92562  0.76641  0.19795  1.0000
  C   C719      1.0  0.97636  0.70579  0.26967  1.0000
  H   H579      1.0  0.82227  0.85920  0.11001  1.0000
  H   H580      1.0  0.93361  0.53014  0.19485  1.0000
  C   C720      1.0  0.94439  0.67148  0.17886  1.0000
  H   H581      1.0  0.92449  0.86947  0.19006  1.0000
  C   C721      1.0  0.94777  0.68251  0.20649  1.0000
  C   C722      1.0  0.83773  0.82218  0.14092  1.0000
  H   H582      1.0  0.93255  0.68606  0.13674  1.0000
  C   C723      1.0  0.80161  0.54438  0.29026  1.0000
  S   S97       1.0  0.48904  0.56403  0.27697  1.0000
  H   H583      1.0  0.51661  0.49622  0.11188  1.0000
  C   C724      1.0  0.86499  0.80914  0.15665  1.0000
  H   H584      1.0  0.92006  0.74677  0.14906  1.0000
  C   C725      1.0  0.95029  0.91217  0.20860  1.0000
  C   C726      1.0  0.92810  0.72895  0.16509  1.0000
  C   C727      1.0  0.93494  0.69474  0.15813  1.0000
  C   C728      1.0  0.90538  0.73019  0.26398  1.0000
  P   P26       1.0  0.94789  0.73221  0.24892  1.0000
  H   H585      1.0  0.77427  0.54121  0.29373  1.0000
  C   C729      1.0  0.93159  0.74004  0.19270  1.0000
  C   C730      1.0  0.86087  0.69751  0.28762  1.0000
  H   H586      1.0  0.93896  0.60158  0.20787  1.0000
  H   H587      1.0  0.96383  0.93547  0.02698  1.0000
  C   C731      1.0  0.96596  0.50356  0.07186  1.0000
  Fe  Fe49      1.0  0.52971  0.57500  0.31152  1.0000
  S   S98       1.0  0.57366  0.61236  0.30568  1.0000
  C   C732      1.0  0.85856  0.51972  0.28413  1.0000
  H   H588      1.0  0.89209  0.78317  0.25512  1.0000
  P   P27       1.0  0.94653  0.86737  0.13109  1.0000
  H   H589      1.0  0.81498  0.72540  0.29846  1.0000
  H   H590      1.0  0.83495  0.78001  0.27728  1.0000
  C   C733      1.0  0.94300  0.71725  0.21340  1.0000
  C   C734      1.0  0.95947  0.79677  0.27259  1.0000
  C   C735      1.0  0.96519  0.77536  0.24948  1.0000
  C   C736      1.0  0.94428  0.93938  0.06884  1.0000
  C   C737      1.0  0.87230  0.55296  0.28315  1.0000
  H   H591      1.0  0.98038  0.95566  0.22201  1.0000
  C   C738      1.0  0.97763  0.92452  0.15576  1.0000
  H   H592      1.0  0.97493  0.84502  0.07673  1.0000
  C   C739      1.0  0.95908  0.59390  0.22205  1.0000
  C   C740      1.0  0.85083  0.58171  0.28527  1.0000
  H   H593      1.0  0.92735  0.60147  0.25860  1.0000
  H   H594      1.0  0.56241  0.70077  0.28370  1.0000
  C   C741      1.0  0.94140  0.89085  0.18622  1.0000
  C   C742      1.0  0.55968  0.66379  0.25025  1.0000
  C   C743      1.0  0.97092  0.70280  0.29850  1.0000
  C   C744      1.0  0.84340  0.84907  0.12222  1.0000
  H   H595      1.0  0.95126  0.71786  0.30878  1.0000
  C   C745      1.0  0.97049  0.80068  0.12111  1.0000
  C   C746      1.0  0.93470  0.49679  0.05871  1.0000
  C   C747      1.0  0.51105  0.69635  0.26752  1.0000
  C   C748      1.0  0.93817  0.51323  0.21239  1.0000
  C   C749      1.0  0.95498  0.89687  0.15953  1.0000
  C   C750      1.0  0.54603  0.68836  0.26844  1.0000
  C   C751      1.0  0.89791  0.82297  0.15365  1.0000
  C   C752      1.0  0.95214  0.59328  0.25095  1.0000
  H   H596      1.0  0.85199  0.67375  0.29696  1.0000
  H   H597      1.0  0.88011  0.88371  0.10456  1.0000
  C   C753      1.0  0.83997  0.72671  0.28851  1.0000
  C   C754      1.0  0.85131  0.75745  0.27665  1.0000
  C   C755      1.0  0.97697  0.58131  0.26968  1.0000
  H   H598      1.0  0.97144  0.52910  0.07978  1.0000
  H   H599      1.0  0.91882  0.81283  0.16600  1.0000
  H   H600      1.0  0.89980  0.55651  0.28172  1.0000
  C   C756      1.0  0.66054  0.90694  0.99480  1.0000
  H   H601      1.0  0.81220  0.81150  0.14321  1.0000
  H   H602      1.0  0.53191  0.51067  0.16063  1.0000
  H   H603      1.0  0.94592  0.78732  0.29069  1.0000
  C   C757      1.0  0.48941  0.67981  0.24835  1.0000
  H   H604      1.0  0.95427  0.66392  0.22232  1.0000
  C   C758      1.0  0.87631  0.86294  0.11919  1.0000
  C   C759      1.0  0.89330  0.69908  0.27513  1.0000
  H   H605      1.0  0.86173  0.60729  0.28512  1.0000
  C   C760      1.0  0.82308  0.51557  0.28828  1.0000
  H   H606      1.0  0.92810  0.93648  0.11149  1.0000
  C   C761      1.0  0.50324  0.65500  0.23021  1.0000
  H   H607      1.0  0.54876  0.62724  0.21776  1.0000
  C   C762      1.0  0.96546  0.87107  0.07486  1.0000
  C   C763      1.0  0.53826  0.64696  0.23130  1.0000
  H   H608      1.0  0.91568  0.51702  0.05676  1.0000
  H   H609      1.0  0.90911  0.67610  0.27461  1.0000
  H   H610      1.0  0.50085  0.71526  0.28196  1.0000
  H   H611      1.0  0.94016  0.90719  0.22922  1.0000
  C   C764      1.0  0.50082  0.50696  0.24189  1.0000
  C   C765      1.0  0.49077  0.54722  0.16550  1.0000
  H   H612      1.0  0.60815  0.92391  0.99970  1.0000
  C   C766      1.0  0.51058  0.52359  0.15056  1.0000
  H   H613      1.0  0.96696  0.84697  0.29064  1.0000
  C   C767      1.0  0.97741  0.83278  0.13332  1.0000
  H   H614      1.0  0.95327  0.50622  0.30651  1.0000
  H   H615      1.0  0.93699  0.96612  0.06654  1.0000
  H   H616      1.0  0.49687  0.55257  0.18712  1.0000
  C   C768      1.0  0.98617  0.94592  0.17810  1.0000
  C   C769      1.0  0.97279  0.93961  0.20457  1.0000
  C   C770      1.0  0.98463  0.78791  0.22699  1.0000
  C   C771      1.0  0.50191  0.51546  0.12310  1.0000
  C   C772      1.0  0.96972  0.49635  0.21479  1.0000
  C   C773      1.0  0.63255  0.92849  0.98949  1.0000
  Fe  Fe50      1.0  0.60023  0.60631  0.62951  1.0000
  S   S99       1.0  0.54371  0.60024  0.62209  1.0000
  H   H617      1.0  0.93713  0.77225  0.33755  1.0000
  Fe  Fe51      1.0  0.61582  0.53314  0.61026  1.0000
  S   S100      1.0  0.55997  0.52264  0.60080  1.0000
  H   H618      1.0  0.74086  0.84180  0.53216  1.0000
  Fe  Fe52      1.0  0.55914  0.57527  0.58156  1.0000
  S   S101      1.0  0.53627  0.59710  0.54134  1.0000
  S   S102      1.0  0.61532  0.58398  0.58828  1.0000
  Fe  Fe53      1.0  0.54266  0.57371  0.37592  1.0000
  S   S103      1.0  0.58592  0.61133  0.37390  1.0000
  S   S104      1.0  0.52518  0.54779  0.41601  1.0000
  C   C774      1.0  0.90675  0.90634  0.54660  1.0000
  Fe  Fe54      1.0  0.55247  0.63982  0.34334  1.0000
  C   C775      1.0  0.88665  0.88033  0.53493  1.0000
  S   S105      1.0  0.56133  0.54114  0.34005  1.0000
  S   S106      1.0  0.50756  0.60448  0.34821  1.0000
  Fe  Fe55      1.0  0.89799  0.56693  0.39782  1.0000
  S   S107      1.0  0.87350  0.61880  0.40444  1.0000
  C   C776      1.0  0.90528  0.73471  0.46591  1.0000
  Fe  Fe56      1.0  0.92254  0.64123  0.38762  1.0000
  S   S108      1.0  0.95136  0.68412  0.40985  1.0000
  H   H619      1.0  0.62616  0.92961  0.50954  1.0000
  H   H620      1.0  0.55134  0.75369  0.42992  1.0000
  S   S109      1.0  0.94836  0.58960  0.38386  1.0000
  S   S110      1.0  0.87902  0.56247  0.35320  1.0000
  Fe  Fe57      1.0  0.63335  0.91270  0.58428  1.0000
  S   S111      1.0  0.59196  0.95324  0.58263  1.0000
  S   S112      1.0  0.69045  0.91808  0.57447  1.0000
  Fe  Fe58      1.0  0.58336  0.85579  0.60025  1.0000
  S   S113      1.0  0.53934  0.89339  0.60155  1.0000
  C   C777      1.0  0.78623  0.49890  0.49335  1.0000
  Fe  Fe59      1.0  0.55952  0.91304  0.56062  1.0000
  H   H621      1.0  0.96631  0.84733  0.41114  1.0000
  S   S114      1.0  0.60254  0.87464  0.55902  1.0000
  Fe  Fe60      1.0  0.60373  0.58081  0.33683  1.0000
  H   H622      1.0  0.55918  0.91434  0.47726  1.0000
  H   H623      1.0  0.51644  0.81504  0.55844  1.0000
  H   H624      1.0  0.89685  0.92200  0.56352  1.0000
  C   C778      1.0  0.51070  0.75676  0.34362  1.0000
  C   C779      1.0  0.96123  0.72318  0.39276  1.0000
  H   H625      1.0  0.62791  0.61036  0.43420  1.0000
  H   H626      1.0  0.90030  0.92485  0.37697  1.0000
  C   C780      1.0  0.54149  0.77646  0.41973  1.0000
  C   C781      1.0  0.62653  0.67852  0.56000  1.0000
  C   C782      1.0  0.71521  0.95518  0.58197  1.0000
  C   C783      1.0  0.75117  0.95360  0.57927  1.0000
  H   H627      1.0  0.54378  0.91602  0.42702  1.0000
  C   C784      1.0  0.64737  0.59075  0.43719  1.0000
  C   C785      1.0  0.68030  0.55359  0.46800  1.0000
  H   H628      1.0  0.53491  0.77024  0.34461  1.0000
  H   H629      1.0  0.71237  0.80106  0.50010  1.0000
  C   C786      1.0  0.61612  0.75856  0.62689  1.0000
  H   H630      1.0  0.59380  0.79597  0.52522  1.0000
  H   H631      1.0  0.89344  0.90084  0.46376  1.0000
  H   H632      1.0  0.70576  0.93524  0.63770  1.0000
  H   H633      1.0  0.88949  0.59732  0.54862  1.0000
  S   S115      1.0  0.90426  0.64241  0.34333  1.0000
  C   C787      1.0  0.62366  0.52977  0.52513  1.0000
  C   C788      1.0  0.90572  0.75481  0.44186  1.0000
  C   C789      1.0  0.94598  0.86607  0.41416  1.0000
  H   H634      1.0  0.57131  0.96164  0.50732  1.0000
  C   C790      1.0  0.54134  0.57985  0.50732  1.0000
  C   C791      1.0  0.52713  0.54798  0.50049  1.0000
  C   C792      1.0  0.52408  0.53786  0.47244  1.0000
  C   C793      1.0  0.53532  0.55934  0.45084  1.0000
  C   C794      1.0  0.58574  0.76016  0.61139  1.0000
  C   C795      1.0  0.58019  0.69776  0.61513  1.0000
  H   H635      1.0  0.51670  0.53188  0.51673  1.0000
  H   H636      1.0  0.51162  0.51382  0.46739  1.0000
  Fe  Fe61      1.0  0.57487  0.93028  0.62361  1.0000
  C   C796      1.0  0.90508  0.89587  0.44371  1.0000
  C   C797      1.0  0.61064  0.69596  0.63043  1.0000
  C   C798      1.0  0.70398  0.80256  0.52158  1.0000
  H   H637      1.0  0.86112  0.87565  0.54301  1.0000
  C   C799      1.0  0.62857  0.72649  0.63629  1.0000
  C   C800      1.0  0.93940  0.91294  0.53590  1.0000
  H   H638      1.0  0.62974  0.78194  0.63189  1.0000
  H   H639      1.0  0.96186  0.94785  0.43886  1.0000
  H   H640      1.0  0.49521  0.62133  0.43526  1.0000
  H   H641      1.0  0.72747  0.53534  0.34482  1.0000
  H   H642      1.0  0.86786  0.54278  0.52581  1.0000
  H   H643      1.0  0.67280  0.68655  0.42196  1.0000
  C   C801      1.0  0.87376  0.61164  0.50690  1.0000
  P   P28       1.0  0.82834  0.60592  0.51329  1.0000
  C   C802      1.0  0.81416  0.64575  0.52897  1.0000
  C   C803      1.0  0.80624  0.59822  0.48080  1.0000
  C   C804      1.0  0.82082  0.57615  0.46090  1.0000
  C   C805      1.0  0.80442  0.57056  0.43538  1.0000
  C   C806      1.0  0.59423  0.51088  0.53142  1.0000
  C   C807      1.0  0.92194  0.52483  0.47865  1.0000
  C   C808      1.0  0.77429  0.61360  0.47525  1.0000
  C   C809      1.0  0.81238  0.67561  0.51266  1.0000
  C   C810      1.0  0.80220  0.70689  0.52456  1.0000
  C   C811      1.0  0.79386  0.70859  0.55284  1.0000
  C   C812      1.0  0.79641  0.67918  0.56937  1.0000
  C   C813      1.0  0.80700  0.64797  0.55761  1.0000
  C   C814      1.0  0.81991  0.56896  0.53507  1.0000
  C   C815      1.0  0.84439  0.54262  0.53784  1.0000
  C   C816      1.0  0.56170  0.79258  0.39957  1.0000
  H   H644      1.0  0.69856  0.53712  0.39961  1.0000
  C   C817      1.0  0.78312  0.53910  0.56805  1.0000
  C   C818      1.0  0.78858  0.56618  0.54942  1.0000
  H   H645      1.0  0.86725  0.63088  0.46489  1.0000
  H   H646      1.0  0.84512  0.56351  0.46500  1.0000
  H   H647      1.0  0.81631  0.55401  0.41989  1.0000
  C   C819      1.0  0.51051  0.72070  0.34337  1.0000
  H   H648      1.0  0.56604  0.67455  0.61064  1.0000
  C   C820      1.0  0.90866  0.90977  0.39466  1.0000
  H   H649      1.0  0.81928  0.67471  0.49079  1.0000
  H   H650      1.0  0.80126  0.72993  0.51194  1.0000
  H   H651      1.0  0.78612  0.73284  0.56212  1.0000
  H   H652      1.0  0.79079  0.68064  0.59147  1.0000
  H   H653      1.0  0.81013  0.62592  0.57109  1.0000
  H   H654      1.0  0.93545  0.54672  0.47025  1.0000
  C   C821      1.0  0.72893  0.56310  0.34468  1.0000
  C   C822      1.0  0.70830  0.82967  0.56691  1.0000
  H   H655      1.0  0.76868  0.58527  0.54662  1.0000
  C   C823      1.0  0.70035  0.59226  0.57537  1.0000
  C   C824      1.0  0.70582  0.62591  0.56635  1.0000
  C   C825      1.0  0.70615  0.63324  0.53785  1.0000
  C   C826      1.0  0.70072  0.60696  0.51839  1.0000
  H   H656      1.0  0.69990  0.58643  0.59747  1.0000
  H   H657      1.0  0.70955  0.64623  0.58153  1.0000
  H   H658      1.0  0.71046  0.65931  0.53085  1.0000
  H   H659      1.0  0.70140  0.61311  0.49648  1.0000
  C   C827      1.0  0.65546  0.57941  0.46402  1.0000
  C   C828      1.0  0.51411  0.76146  0.50219  1.0000
  C   C829      1.0  0.95194  0.89386  0.51337  1.0000
  C   C830      1.0  0.54972  0.82218  0.38633  1.0000
  H   H660      1.0  0.52272  0.76315  0.64010  1.0000
  C   C831      1.0  0.71992  0.69463  0.44452  1.0000
  H   H661      1.0  0.89779  0.70794  0.46458  1.0000
  H   H662      1.0  0.73285  0.61905  0.44558  1.0000
  H   H663      1.0  0.56512  0.83458  0.37048  1.0000
  C   C832      1.0  0.66345  0.57592  0.41408  1.0000
  S   S116      1.0  0.65919  0.56060  0.33481  1.0000
  H   H664      1.0  0.69291  0.87579  0.62364  1.0000
  H   H665      1.0  0.66965  0.71186  0.55433  1.0000
  C   C833      1.0  0.62904  0.72318  0.52483  1.0000
  S   S117      1.0  0.98561  0.82519  0.34882  1.0000
  H   H666      1.0  0.97133  0.62559  0.49340  1.0000
  H   H667      1.0  0.63792  0.66505  0.57750  1.0000
  C   C834      1.0  0.92682  0.78295  0.49262  1.0000
  H   H668      1.0  0.50282  0.72311  0.40251  1.0000
  C   C835      1.0  0.89775  0.60593  0.52826  1.0000
  C   C836      1.0  0.70102  0.61836  0.34061  1.0000
  C   C837      1.0  0.61264  0.82138  0.44866  1.0000
  H   H669      1.0  0.98465  0.67614  0.33624  1.0000
  H   H670      1.0  0.62448  0.55672  0.53065  1.0000
  H   H671      1.0  0.64180  0.59032  0.48163  1.0000
  H   H672      1.0  0.83012  0.94942  0.62929  1.0000
  C   C838      1.0  0.51003  0.80551  0.53784  1.0000
  S   S118      1.0  0.54981  0.69809  0.34609  1.0000
  H   H673      1.0  0.61833  0.82939  0.42756  1.0000
  H   H674      1.0  0.65206  0.72533  0.64829  1.0000
  H   H675      1.0  0.85829  0.49595  0.55926  1.0000
  H   H676      1.0  0.72020  0.84843  0.58054  1.0000
  C   C839      1.0  0.69475  0.56602  0.55596  1.0000
  C   C840      1.0  0.53250  0.91381  0.47108  1.0000
  C   C841      1.0  0.88525  0.62466  0.48128  1.0000
  H   H677      1.0  0.53799  0.75823  0.54284  1.0000
  C   C842      1.0  0.92752  0.80330  0.46847  1.0000
  H   H678      1.0  0.49273  0.49623  0.36976  1.0000
  C   C843      1.0  0.52366  0.91448  0.44250  1.0000
  C   C844      1.0  0.96921  0.96267  0.45696  1.0000
  H   H679      1.0  0.56433  0.62580  0.49071  1.0000
  C   C845      1.0  0.94414  0.62223  0.49736  1.0000
  C   C846      1.0  0.56810  0.72959  0.60539  1.0000
  C   C847      1.0  0.69452  0.57319  0.52735  1.0000
  C   C848      1.0  0.57865  0.82730  0.49053  1.0000
  C   C849      1.0  0.64422  0.70522  0.54700  1.0000
  H   H680      1.0  0.57300  0.52328  0.54193  1.0000
  C   C850      1.0  0.62567  0.95693  0.51394  1.0000
  C   C851      1.0  0.83893  0.51572  0.55657  1.0000
  S   S119      1.0  0.56741  0.79936  0.59986  1.0000
  C   C852      1.0  0.94378  0.73306  0.36864  1.0000
  S   S120      1.0  0.80383  0.63677  0.34802  1.0000
  H   H681      1.0  0.97679  0.90054  0.50507  1.0000
  C   C853      1.0  0.67636  0.78254  0.53099  1.0000
  H   H682      1.0  0.55833  0.84025  0.50193  1.0000
  C   C854      1.0  0.77297  0.58645  0.42974  1.0000
  C   C855      1.0  0.73503  0.70885  0.46829  1.0000
  C   C856      1.0  0.52212  0.77346  0.52894  1.0000
  H   H683      1.0  0.58644  0.78183  0.39394  1.0000
  H   H684      1.0  0.88258  0.84209  0.50288  1.0000
  H   H685      1.0  0.76234  0.70573  0.47163  1.0000
  C   C857      1.0  0.75766  0.60757  0.44983  1.0000
  C   C858      1.0  0.57864  0.68683  0.52857  1.0000
  C   C859      1.0  0.50680  0.91356  0.49147  1.0000
  C   C860      1.0  0.74157  0.50030  0.64456  1.0000
  H   H686      1.0  0.73486  0.66222  0.34240  1.0000
  C   C861      1.0  0.89407  0.91524  0.42087  1.0000
  C   C862      1.0  0.72720  0.51198  0.50616  1.0000
  H   H687      1.0  0.80474  0.49349  0.58665  1.0000
  C   C863      1.0  0.69968  0.88125  0.64506  1.0000
  H   H688      1.0  0.56932  0.85550  0.45272  1.0000
  C   C864      1.0  0.95121  0.76469  0.35592  1.0000
  H   H689      1.0  0.76221  0.63013  0.49050  1.0000
  C   C865      1.0  0.63290  0.79638  0.46162  1.0000
  H   H690      1.0  0.94547  0.88060  0.37093  1.0000
  S   S121      1.0  0.51595  0.91575  0.52799  1.0000
  H   H691      1.0  0.76324  0.92981  0.57285  1.0000
  H   H692      1.0  0.64139  0.77401  0.56560  1.0000
  C   C866      1.0  0.59372  0.66948  0.55090  1.0000
  C   C867      1.0  0.76358  0.61510  0.34686  1.0000
  Fe  Fe62      1.0  0.85683  0.61542  0.35968  1.0000
  H   H693      1.0  0.58487  0.72615  0.49765  1.0000
  C   C868      1.0  0.55381  0.60086  0.48577  1.0000
  P   P29       1.0  0.94579  0.84598  0.46988  1.0000
  C   C869      1.0  0.76111  0.57927  0.34805  1.0000
  H   H694      1.0  0.91843  0.80325  0.42381  1.0000
  H   H695      1.0  0.76043  0.58224  0.40985  1.0000
  H   H696      1.0  0.69230  0.52615  0.64247  1.0000
  H   H697      1.0  0.77006  0.94014  0.64295  1.0000
  S   S122      1.0  0.88582  0.52201  0.42790  1.0000
  C   C870      1.0  0.93033  0.51222  0.50549  1.0000
  H   H698      1.0  0.67808  0.63364  0.33749  1.0000
  H   H699      1.0  0.73556  0.68089  0.42941  1.0000
  H   H700      1.0  0.72703  0.73753  0.50601  1.0000
  C   C871      1.0  0.68022  0.81057  0.57620  1.0000
  H   H701      1.0  0.71249  0.51617  0.44673  1.0000
  H   H702      1.0  0.54463  0.73057  0.59342  1.0000
  C   C872      1.0  0.55143  0.59037  0.45767  1.0000
  H   H703      1.0  0.56029  0.60711  0.44123  1.0000
  H   H704      1.0  0.91772  0.96490  0.47396  1.0000
  C   C873      1.0  0.89905  0.86121  0.51232  1.0000
  C   C874      1.0  0.69871  0.58248  0.34071  1.0000
  C   C875      1.0  0.92032  0.62954  0.47644  1.0000
  H   H705      1.0  0.92910  0.63876  0.45635  1.0000
  H   H706      1.0  0.95132  0.60505  0.53959  1.0000
  C   C876      1.0  0.93186  0.86780  0.50131  1.0000
  H   H707      1.0  0.87445  0.93476  0.42359  1.0000
  C   C877      1.0  0.93434  0.88500  0.39130  1.0000
  C   C878      1.0  0.71500  0.72727  0.48747  1.0000
  H   H708      1.0  0.55335  0.67923  0.52147  1.0000
  C   C879      1.0  0.93121  0.87113  0.44054  1.0000
  C   C880      1.0  0.91708  0.78884  0.44301  1.0000
  C   C881      1.0  0.70840  0.50616  0.63374  1.0000
  C   C882      1.0  0.67979  0.73234  0.48251  1.0000
  H   H709      1.0  0.52404  0.73685  0.49553  1.0000
  H   H710      1.0  0.75682  0.54008  0.47583  1.0000
  H   H711      1.0  0.63716  0.71892  0.45560  1.0000
  P   P30       1.0  0.68912  0.53834  0.50283  1.0000
  C   C883      1.0  0.75665  0.51902  0.49037  1.0000
  C   C884      1.0  0.93284  0.61066  0.52333  1.0000
  C   C885      1.0  0.59638  0.71346  0.51537  1.0000
  C   C886      1.0  0.73330  0.63450  0.34339  1.0000
  C   C887      1.0  0.66456  0.71660  0.45922  1.0000
  C   C888      1.0  0.72005  0.82580  0.53958  1.0000
  H   H712      1.0  0.93586  0.79322  0.51229  1.0000
  H   H713      1.0  0.69050  0.54008  0.56332  1.0000
  Fe  Fe63      1.0  0.92784  0.58974  0.33969  1.0000
  C   C889      1.0  0.94416  0.97249  0.47695  1.0000
  P   P31       1.0  0.65306  0.75577  0.50682  1.0000
  S   S123      1.0  0.61734  0.89078  0.62581  1.0000
  H   H714      1.0  0.57995  0.64912  0.56137  1.0000
  C   C890      1.0  0.91567  0.74882  0.49133  1.0000
  H   H715      1.0  0.95456  0.93380  0.54447  1.0000
  H   H716      1.0  0.75930  0.53726  0.57966  1.0000
  H   H717      1.0  0.92415  0.71656  0.36003  1.0000
  C   C891      1.0  0.65143  0.51392  0.51161  1.0000
  C   C892      1.0  0.58521  0.83642  0.46294  1.0000
  S   S124      1.0  0.62689  0.65596  0.64226  1.0000
  C   C893      1.0  0.48908  0.91431  0.43377  1.0000
  C   C894      1.0  0.59874  0.80217  0.50358  1.0000
  C   C895      1.0  0.62559  0.78600  0.48901  1.0000
  H   H718      1.0  0.78412  0.56397  0.35075  1.0000
  C   C896      1.0  0.66412  0.78728  0.55829  1.0000
  H   H719      1.0  0.67015  0.81466  0.59700  1.0000
  H   H720      1.0  0.91592  0.73300  0.50987  1.0000
  C   C897      1.0  0.68716  0.54933  0.41774  1.0000
  H   H721      1.0  0.65459  0.78588  0.45035  1.0000
  Fe  Fe64      1.0  0.54921  0.54793  0.64236  1.0000
  C   C898      1.0  0.80859  0.51424  0.57197  1.0000
  C   C899      1.0  0.89672  0.50856  0.46257  1.0000
  H   H722      1.0  0.89850  0.74353  0.42203  1.0000
  C   C900      1.0  0.82008  0.96175  0.64785  1.0000
  H   H723      1.0  0.65680  0.58427  0.39324  1.0000
  C   C901      1.0  0.50846  0.78898  0.42591  1.0000
  H   H724      1.0  0.95031  0.52472  0.51741  1.0000
  C   C902      1.0  0.68461  0.69807  0.44020  1.0000
  C   C903      1.0  0.77170  0.98263  0.58484  1.0000
  C   C904      1.0  0.69527  0.53784  0.44456  1.0000
  H   H725      1.0  0.79933  0.98109  0.58277  1.0000
  H   H726      1.0  0.50821  0.85834  0.38267  1.0000
  H   H727      1.0  0.67963  0.95940  0.52376  1.0000
  H   H728      1.0  0.80887  0.50437  0.48102  1.0000
  C   C905      1.0  0.97653  0.78657  0.36680  1.0000
  H   H729      1.0  0.49766  0.98526  0.53470  1.0000
  C   C906      1.0  0.51753  0.83559  0.39320  1.0000
  H   H730      1.0  0.49448  0.65623  0.62188  1.0000
  C   C907      1.0  0.49754  0.70656  0.42009  1.0000
  H   H731      1.0  0.67229  0.98776  0.59227  1.0000
  C   C908      1.0  0.69992  0.98611  0.59020  1.0000
  H   H732      1.0  0.51053  0.66093  0.39688  1.0000
  C   C909      1.0  0.50143  0.67111  0.41663  1.0000
  C   C910      1.0  0.49028  0.82573  0.51994  1.0000
  H   H733      1.0  0.49778  0.65319  0.57086  1.0000
  H   H734      1.0  0.97542  0.50805  0.35433  1.0000
  C   C911      1.0  0.98598  0.74546  0.40416  1.0000
  S   S125      1.0  0.65446  0.49177  0.59766  1.0000
  C   C912      1.0  0.59472  0.97515  0.51250  1.0000
  C   C913      1.0  0.65576  0.97367  0.52208  1.0000
  C   C914      1.0  0.95062  0.49648  0.35025  1.0000
  C   C915      1.0  0.49423  0.98781  0.57907  1.0000
  C   C916      1.0  0.49363  0.78139  0.48431  1.0000
  C   C917      1.0  0.49701  0.81933  0.41310  1.0000
  C   C918      1.0  0.49295  0.64886  0.43830  1.0000
  H   H735      1.0  0.53344  0.98764  0.42333  1.0000
  C   C919      1.0  0.93793  0.49531  0.32303  1.0000
  C   C920      1.0  0.48888  0.67665  0.58082  1.0000
  H   H736      1.0  0.72510  0.90027  0.72154  1.0000
  C   C921      1.0  0.75082  0.96163  0.74584  1.0000
  P   P32       1.0  0.72869  0.96548  0.69043  1.0000
  C   C922      1.0  0.62947  0.53220  0.75577  1.0000
  C   C923      1.0  0.52766  0.50213  0.72216  1.0000
  H   H737      1.0  0.63430  0.50205  0.79314  1.0000
  C   C924      1.0  0.70966  0.86187  0.69217  1.0000
  C   C925      1.0  0.74657  0.96431  0.77467  1.0000
  C   C926      1.0  0.62366  0.49995  0.71283  1.0000
  H   H738      1.0  0.58441  0.94243  0.87238  1.0000
  C   C927      1.0  0.60791  0.95726  0.87318  1.0000
  C   C928      1.0  0.66747  0.96225  0.95765  1.0000
  C   C929      1.0  0.78593  0.95651  0.65577  1.0000
  H   H739      1.0  0.79049  0.98261  0.89947  1.0000
  H   H740      1.0  0.54765  0.71774  0.67653  1.0000
  C   C930      1.0  0.58640  0.96370  0.71030  1.0000
  H   H741      1.0  0.65574  0.96479  0.67404  1.0000
  H   H742      1.0  0.59899  0.94062  0.70288  1.0000
  C   C931      1.0  0.69166  0.97929  0.73914  1.0000
  H   H743      1.0  0.61121  0.95534  0.91760  1.0000
  H   H744      1.0  0.71159  0.97595  0.80811  1.0000
  C   C932      1.0  0.71485  0.97411  0.78576  1.0000
  C   C933      1.0  0.62331  0.96464  0.89884  1.0000
  S   S126      1.0  0.50560  0.52575  0.66972  1.0000
  H   H745      1.0  0.62486  0.55523  0.71517  1.0000
  H   H746      1.0  0.77527  0.95282  0.73775  1.0000
  H   H747      1.0  0.72950  0.96592  0.90434  1.0000
  C   C934      1.0  0.63132  0.50146  0.77071  1.0000
  C   C935      1.0  0.50558  0.68133  0.67486  1.0000
  H   H748      1.0  0.63094  0.55661  0.76659  1.0000
  C   C936      1.0  0.71770  0.89550  0.70018  1.0000
  C   C937      1.0  0.59084  0.97458  0.73824  1.0000
  H   H749      1.0  0.60689  0.95957  0.75202  1.0000
  C   C938      1.0  0.50948  0.77395  0.65783  1.0000
  C   C939      1.0  0.53936  0.69171  0.68057  1.0000
  H   H750      1.0  0.66988  0.98493  0.72590  1.0000
  H   H751      1.0  0.51322  0.59665  0.69267  1.0000
  C   C940      1.0  0.77267  0.97268  0.67968  1.0000
  C   C941      1.0  0.70068  0.85474  0.66459  1.0000
  C   C942      1.0  0.62594  0.53143  0.72682  1.0000
  C   C943      1.0  0.65324  0.98472  0.90007  1.0000
  C   C944      1.0  0.56330  0.66811  0.69091  1.0000
  H   H752      1.0  0.58958  0.67608  0.69461  1.0000
  C   C945      1.0  0.55386  0.63396  0.69539  1.0000
  C   C946      1.0  0.68727  0.98110  0.76801  1.0000
  C   C947      1.0  0.72360  0.96984  0.72776  1.0000
  C   C948      1.0  0.52036  0.62335  0.68968  1.0000
  C   C949      1.0  0.56485  0.98213  0.69232  1.0000
  H   H753      1.0  0.57272  0.61555  0.70273  1.0000
  C   C950      1.0  0.50108  0.50407  0.70256  1.0000
  C   C951      1.0  0.49635  0.64682  0.67926  1.0000
  C   C952      1.0  0.71613  0.92241  0.68072  1.0000
  H   H754      1.0  0.60917  0.96579  0.82880  1.0000
  H   H755      1.0  0.62113  0.49971  0.69039  1.0000
  H   H756      1.0  0.71054  0.84131  0.70732  1.0000
  C   C953      1.0  0.50055  0.82200  0.68911  1.0000
  C   C954      1.0  0.62195  0.97021  0.84858  1.0000
  H   H757      1.0  0.76782  0.95846  0.78845  1.0000
  H   H758      1.0  0.55200  0.51409  0.71762  1.0000
  S   S127      1.0  0.55633  0.96887  0.65719  1.0000
  H   H759      1.0  0.69444  0.82871  0.65835  1.0000
  H   H760      1.0  0.84800  0.98099  0.80456  1.0000
  C   C955      1.0  0.51728  0.80746  0.66620  1.0000
  H   H761      1.0  0.50660  0.84805  0.69551  1.0000
  H   H762      1.0  0.72006  0.94435  0.95325  1.0000
  C   C956      1.0  0.70694  0.91499  0.65311  1.0000
  H   H763      1.0  0.75080  0.51590  0.66165  1.0000
  C   C957      1.0  0.69544  0.94035  0.96306  1.0000
  C   C958      1.0  0.63594  0.95595  0.97098  1.0000
  H   H764      1.0  0.61387  0.97231  0.96709  1.0000
  C   C959      1.0  0.84118  0.98330  0.66358  1.0000
  H   H765      1.0  0.86775  0.98713  0.65763  1.0000
  H   H766      1.0  0.53629  0.82214  0.65479  1.0000
  C   C960      1.0  0.69195  0.91288  0.98159  1.0000
  H   H767      1.0  0.66238  0.98812  0.77652  1.0000
  H   H768      1.0  0.71366  0.89615  0.98570  1.0000
  S   S128      1.0  0.60528  0.55585  0.65262  1.0000
