data_image0
_chemical_formula_structural       HCSFeSCFeSFeSH2SCFeS2HC4H6C6H4C5H5C3H2C6HC2HSH4CHCH2CH3C3HC2SHC3FeCH4CPHCH2C3HCHC2H2CHFeHPCHCH2CHCHC2H2C4H2C3HC6SHC2HC2FePC3HCHCH2CHSC2HC2HCHCFe2C2FeH3C2HCHC6HCHC2HCHC2SH2SCHSC2HC2SH2C2HCHC3SH4FeH3CHSC2PC3H4S2FeSFeSFeS2C6H4CH2C3H3CH4CHCH3S2C3HFeH4C2HCHC3SCH2C3HC2HC4PHC2H3C3HC6HC4HC2PH2C2HFeC3HC3HCPCH2CH3C4HCH4CHC2HCHCHCSHCH2C3HCHCH2CHC6H2CHCH3CH2C3HC2H3C2SC2H2FeCH2CHCSHSHCH2CH2CSCHC3HC2H3FeS2FeS2FeSFeS3HFeS2CHC8H4CH2C8H4C3HCHCHCHC7H2CHCHC2HC3H10C3H2CH3C4HPH4CHCH2CHCPC3H2CHCH3CHC4HC3H2C4H5CHCHC3HCH2CHCH2C3H3C2H7SCHC4HCHCHC3HC2HPHC4HCHC2HC2H2C2H2PC2HFeS2FeS2FeSFeS4C4HFeS2HCHC6H4C6H4C2HC4SCPCHC2HC8HCH4CH2CHCHC2HC2H3FeHC2H2C3H2C2H2C2H3C2H4C2H3C3HCFeC3PC18H2CH8C2H7C6HCSH2C2HC2H3CHCH2CH2C2HC2HCHSHC3H4PHCHCPC3HSCH2CHC5SH2FeSC3H3C2HCH4C4PH3SHC4HC2H2CH2CH5C3HCH3CHCHPHCHC3HC9HC4H3S3C4HCHC2HCHC2HSFeSHC4HCHSHC3HPC2H3CHC4FeC2HSC3HCH2C7H2C2H3C2HFeH3C2HFeCH3C2SC2HCHCHSH2CH3CSCHCH2CHC3HFeS2FeS2FeSFeS3FeS2HC2H2C7H4CHCH2C6H5C4H5CHCHC2PCPH2C8H2PH3CH4CH5C7HC3HC5HCHC4HC4H2C3H2C2HCH4C8PC15H2CH19C4H2C3HC2H4C2HC7SCH2C2HC7H3CHCH2CHCHC4H2C2H4PC7HC2HC2HC2HCH2CPHCSCHC3HC2H2CH3CHCH3CHC2H3C4H2C2H3CSCH2CSFeS2FeS2FeSFeS3C2FeS2H2C3HC2PHCPHC6H5C2HC7H4C5H5CHCHC2HCHCH3C4H2CH2C6PC2SHC4HCH3C2H6CHC2HSC2HC2PCH5SC2HCHFeC3HCH3C4HC3HC5HCHC5HC5H2C5H2C5PCH2CH3CHCH3CHCHCHC2H3C2H3CHSC2H2C5H3C2H2CHFeCHC4HCHCFeSHCPHC2FeCHC2H3C2HC4SFeHFeS3HCFeS2FeS2FeSFeS3FeSHCHCH2C7H4C3HPC6H7CH2CHC2SC6PC20H24C2HC3H2C2H2C2HCH2C2H2C2S2CPHC2HCHC2HSC2HC2H6C3HCHCHC3HC2H5C6HC5H2C6HSPSC4HSC2HCHCH2FeHCHSH4FeHFeHC2HC2HSFe3C2SH2FeS2FeS2FeSFeS3CH3FeSH2CSCHCSCHC7H4C6H4C2HCHSH2SH3SC2H3C2H2CSC3HCHC2HCHC2H3CPH3C3HC2HCHC7HSHFeCH2CHCH4C2HCHC2H4SC2PC10HC3H5C2HC2H3FeC2HC2HSHCHC3H3CHFeHFeH3FeS2FeS2FeSFeS4FeS2CHC6H4C4HCHC6HCH2C4H3C6HCH2CH2CHCPCH4CHC6PC7H2CPC3H3CH3CH6C3H2CHC3PCHC5HC8H2CH2C2H3C2H4CPHCH3CH2C2H4CHC2H2CH2CPC2HCH2C12H3C4H4CHCHCH2CHC4H3C2HCHC3HCHC5H2C3H4C2H3FeS2FeS2FeSFeS3HFeS2H3CHCHC6H4C4H3C2H2C7H3C6PC5HC6HC2SH2C2H2SC2H3CHC2H2C2HC4H2C2HC2H2C6HCPHCH4C2HCHPHCHC4H2C2HC6HC2H4C2H7CH5SCHSC3H2PH3CH5C2PHCHC2HCH2CH4C2HCFeC6HC4HC3H2C3HCH2C2HFeHC3HCHCHC7HCHCHC3SC2H3SCFeS2HCH2CFeSCFeS2FeSFeS3FeS2H2C2HC3H2C6H5C6H4C3H5C2HSH2C10PC18H20C7H6CH2CH3C2H2C2H2C2H3SC2H2CH2C7HC2HPHSHPH3C3H3CH2C2FeH2C3HC5H3C4FeH2C2H5CHCFeCH2C3HC3HCPCHC4HPHC6FeS2FeSHFeS2FeSFeS3FeS3CHC2H3C7H5C2HC2HC7H4CSC3H2C2HC4H2C2HC7PC8SC9H11CHCH5C4PC3SH3C2H2CH3C3HCFeCHC2H6CHCH2SCSHC2H2CH3C4H3CSHCH2PCSC5SH2C2FeH3CFeCHCHCHCHC2H3FeCH3C6H3C3HC2H2CHCH2CFeS2CHFeCFeS3H3FeS2CH2C7H4C3HC5HC2HCH2C6PC3H2C3FeH2CH5C3H2CH3CHCHSH3CHCH2C3HCHPC2H2C2SC2HC9HCH2CHCHCSCH6C2HCHC2HC3HCHSFeS2H2FeSFeS3HCHSC3FeS2C2H2C2HCFeHC7H2CHCHC5HC7H2CHCPH2C5FeCH2CHC5HC2H5CH3SHCH2PHCH2SHC5PHC6HFeHC4HSC3H9C2SCHC2SHCH2C2H2CHSCHCH3C2H3CH2SH3FeSHCSFeSFeSHFeS2FeS2Fe2SCSFeH4CS2H3C3HCHCHFeSC4HCH3C7H4C2H3CH2C3H2C2PH5CSC3HC7H2CSHCH2C2HCH2CSH4FeHC2H3C3H2FeCH2C2H2C6PC7HCH2C4HC2H10C2H2CH2CPC18H15C2HC3H3C4SCSC3HC4HCHC2HC4H3C3H2CH2SC3H2CHCHC2HCSCHCHCH3PHFeS2FeSFeCFeS2FeS2CFeSFeS3CSCSHCFeCHC2HC4HC6HPC2HC3HCH4C7H4SHC3PC9HC6H15CHCHC4HC2HCH2FeHCHC4H5C3SHC2HC2H4CFeC2HCHCSH4C3HC2H2CHCH2C2HCH5C5HC3HFeH2CHC2SH2C4HCHCHC3HC2HCSC4HCHCHC4H4PH2CH8CHC4SC3H2C4H3C2HCHCFeHSH2C2SHC2FeS2CH2CHCFeSH5C2HC2H2CHC4HC5HCH4C2HCHCHCHC3SHCPCHCSC6HPC12HCFeHC3H3SCH8C2HCHCSH3C2HC2H2CSFeHC2H2C2HC3HCHCH2CH2PCHCHCPFeS2FeSHCHCHCHCHSHCSH8C4H4CSHC3H4CSC3HSHCHC3SCH3C2HSCHC3HFeC5H3C6PCHCH3C5HC6H2CHC2HCSH2C2FeC2HC2H3CHC3H3CHC2H2C6H5C4HC3HCH3CHC2H
_chemical_formula_sum              "H1728 C2160 S288 Fe144 P72"
_cell_length_a       71.3194
_cell_length_b       71.2466
_cell_length_c       37.5994
_cell_angle_alpha    90.8144
_cell_angle_beta     90.9762
_cell_angle_gamma    111.886

_space_group_name_H-M_alt    "P 1"
_space_group_IT_number       1

loop_
  _space_group_symop_operation_xyz
  'x, y, z'

loop_
  _atom_site_type_symbol
  _atom_site_label
  _atom_site_symmetry_multiplicity
  _atom_site_fract_x
  _atom_site_fract_y
  _atom_site_fract_z
  _atom_site_occupancy
  H   H1        1.0  0.97871  0.23577  0.03962  1.0000
  C   C1        1.0  0.22114  0.45106  0.44829  1.0000
  S   S1        1.0  0.13254  0.44193  0.33934  1.0000
  Fe  Fe1       1.0  0.18693  0.46256  0.30463  1.0000
  S   S2        1.0  0.17136  0.43050  0.32115  1.0000
  C   C2        1.0  0.24854  0.38337  0.17429  1.0000
  Fe  Fe2       1.0  0.14442  0.43159  0.29022  1.0000
  S   S3        1.0  0.12657  0.40407  0.25412  1.0000
  Fe  Fe3       1.0  0.16104  0.44376  0.36850  1.0000
  S   S4        1.0  0.16647  0.43442  0.42475  1.0000
  H   H2        1.0  0.18646  0.39945  0.34941  1.0000
  H   H3        1.0  0.21104  0.38817  0.17401  1.0000
  S   S5        1.0  0.27888  0.44462  0.36753  1.0000
  C   C3        1.0  0.03111  0.27448  0.14483  1.0000
  Fe  Fe4       1.0  0.09868  0.37594  0.03909  1.0000
  S   S6        1.0  0.08937  0.34200  0.03699  1.0000
  S   S7        1.0  0.10541  0.39864  0.08654  1.0000
  H   H4        1.0  0.19048  0.36676  0.33878  1.0000
  C   C4        1.0  0.22608  0.47085  0.43683  1.0000
  C   C5        1.0  0.10950  0.46279  0.25692  1.0000
  C   C6        1.0  0.20433  0.40640  0.39803  1.0000
  C   C7        1.0  0.04181  0.32955  0.43798  1.0000
  H   H5        1.0  0.04901  0.31391  0.17137  1.0000
  H   H6        1.0  0.15659  0.30424  0.99104  1.0000
  H   H7        1.0  0.03621  0.28357  0.02790  1.0000
  H   H8        1.0  0.10458  0.29904  0.08123  1.0000
  H   H9        1.0  0.00335  0.26324  0.22011  1.0000
  H   H10       1.0  0.01327  0.25163  0.06558  1.0000
  C   C8        1.0  0.12213  0.40277  0.20697  1.0000
  C   C9        1.0  0.11366  0.38372  0.18945  1.0000
  C   C10       1.0  0.10919  0.38204  0.15241  1.0000
  C   C11       1.0  0.11267  0.39944  0.13250  1.0000
  C   C12       1.0  0.12127  0.41843  0.15001  1.0000
  C   C13       1.0  0.12630  0.42013  0.18677  1.0000
  H   H11       1.0  0.11043  0.37015  0.20467  1.0000
  H   H12       1.0  0.10254  0.36730  0.13949  1.0000
  H   H13       1.0  0.12380  0.43191  0.13494  1.0000
  H   H14       1.0  0.13284  0.43485  0.19978  1.0000
  C   C14       1.0  0.26232  0.45229  0.34189  1.0000
  C   C15       1.0  0.24244  0.44695  0.35306  1.0000
  C   C16       1.0  0.22889  0.45362  0.33486  1.0000
  C   C17       1.0  0.23511  0.46550  0.30489  1.0000
  C   C18       1.0  0.21607  0.40022  0.42210  1.0000
  H   H15       1.0  0.09468  0.40655  0.35762  1.0000
  H   H16       1.0  0.23762  0.43781  0.37617  1.0000
  H   H17       1.0  0.21375  0.44979  0.34440  1.0000
  H   H18       1.0  0.19100  0.38118  0.47554  1.0000
  H   H19       1.0  0.26067  0.41089  0.41886  1.0000
  C   C19       1.0  0.05605  0.34469  0.15670  1.0000
  C   C20       1.0  0.15689  0.43860  0.46642  1.0000
  C   C21       1.0  0.13908  0.44242  0.46890  1.0000
  H   H20       1.0  0.25068  0.30283  0.05130  1.0000
  H   H21       1.0  0.13101  0.44345  0.44486  1.0000
  C   C22       1.0  0.24594  0.48241  0.42797  1.0000
  C   C23       1.0  0.09285  0.40707  0.38615  1.0000
  C   C24       1.0  0.09514  0.39209  0.40737  1.0000
  C   C25       1.0  0.02440  0.24964  0.20437  1.0000
  C   C26       1.0  0.11681  0.34769  0.45590  1.0000
  C   C27       1.0  0.26848  0.47792  0.18225  1.0000
  H   H22       1.0  0.28384  0.46792  0.30252  1.0000
  C   C28       1.0  0.15059  0.37920  0.43107  1.0000
  C   C29       1.0  0.13399  0.38313  0.44315  1.0000
  H   H23       1.0  0.20228  0.42058  0.40185  1.0000
  S   S8        1.0  0.13704  0.33213  0.99407  1.0000
  H   H24       1.0  0.09870  0.38007  0.39484  1.0000
  H   H25       1.0  0.13325  0.32847  0.44379  1.0000
  H   H26       1.0  0.25971  0.47949  0.26950  1.0000
  H   H27       1.0  0.16360  0.39154  0.42155  1.0000
  C   C30       1.0  0.13346  0.34375  0.44368  1.0000
  H   H28       1.0  0.26770  0.44824  0.44328  1.0000
  C   C31       1.0  0.23587  0.44245  0.45026  1.0000
  H   H29       1.0  0.30932  0.47945  0.23204  1.0000
  H   H30       1.0  0.20701  0.44587  0.02639  1.0000
  C   C32       1.0  0.28081  0.40492  0.45603  1.0000
  H   H31       1.0  0.15269  0.46065  0.14962  1.0000
  H   H32       1.0  0.13264  0.42544  0.03372  1.0000
  H   H33       1.0  0.24865  0.35641  0.14757  1.0000
  C   C33       1.0  0.25595  0.45438  0.44240  1.0000
  C   C34       1.0  0.08642  0.42367  0.43851  1.0000
  C   C35       1.0  0.99558  0.28876  0.08575  1.0000
  H   H34       1.0  0.08340  0.43612  0.45062  1.0000
  C   C36       1.0  0.15034  0.35951  0.43122  1.0000
  C   C37       1.0  0.29456  0.47328  0.21890  1.0000
  S   S9        1.0  0.28591  0.35593  0.04201  1.0000
  H   H35       1.0  0.16478  0.40853  0.20927  1.0000
  C   C38       1.0  0.12329  0.47640  0.20002  1.0000
  C   C39       1.0  0.26853  0.46385  0.31146  1.0000
  C   C40       1.0  0.08944  0.29488  0.06998  1.0000
  Fe  Fe5       1.0  0.29981  0.38985  0.04041  1.0000
  C   C41       1.0  0.16855  0.31905  0.99279  1.0000
  H   H36       1.0  0.15404  0.43454  0.08852  1.0000
  H   H37       1.0  0.21223  0.37156  0.99972  1.0000
  H   H38       1.0  0.29104  0.40399  0.43566  1.0000
  H   H39       1.0  0.24193  0.45143  0.17143  1.0000
  C   C42       1.0  0.08624  0.29186  0.03323  1.0000
  P   P1        1.0  0.22850  0.41596  0.46039  1.0000
  H   H40       1.0  0.23171  0.41455  0.28121  1.0000
  C   C43       1.0  0.26361  0.40889  0.44667  1.0000
  H   H41       1.0  0.28134  0.30313  0.02066  1.0000
  H   H42       1.0  0.26025  0.37344  0.09045  1.0000
  C   C44       1.0  0.19519  0.39436  0.36813  1.0000
  C   C45       1.0  0.18196  0.44087  0.06073  1.0000
  C   C46       1.0  0.28484  0.31913  0.12031  1.0000
  H   H43       1.0  0.02173  0.23998  0.22725  1.0000
  C   C47       1.0  0.20863  0.36938  0.38644  1.0000
  H   H44       1.0  0.28857  0.44333  0.23700  1.0000
  C   C48       1.0  0.28266  0.45273  0.22171  1.0000
  C   C49       1.0  0.22150  0.41507  0.20817  1.0000
  H   H45       1.0  0.07624  0.29675  0.12014  1.0000
  H   H46       1.0  0.28557  0.32416  0.14771  1.0000
  C   C50       1.0  0.25884  0.41356  0.13893  1.0000
  H   H47       1.0  0.19048  0.43703  0.24277  1.0000
  Fe  Fe6       1.0  0.06783  0.34184  0.99133  1.0000
  H   H48       1.0  0.27999  0.40346  0.22802  1.0000
  P   P2        1.0  0.24786  0.41812  0.20861  1.0000
  C   C51       1.0  0.10885  0.45940  0.18272  1.0000
  H   H49       1.0  0.24206  0.40364  0.33733  1.0000
  C   C52       1.0  0.18649  0.39675  0.18929  1.0000
  H   H50       1.0  0.22642  0.44133  0.24209  1.0000
  H   H51       1.0  0.22637  0.37601  0.43490  1.0000
  C   C53       1.0  0.26088  0.47422  0.43101  1.0000
  H   H52       1.0  0.16444  0.48547  0.48363  1.0000
  C   C54       1.0  0.27110  0.40294  0.25136  1.0000
  H   H53       1.0  0.26211  0.42953  0.13594  1.0000
  C   C55       1.0  0.20012  0.35691  0.99758  1.0000
  C   C56       1.0  0.08865  0.42295  0.40171  1.0000
  H   H54       1.0  0.17522  0.38433  0.17459  1.0000
  H   H55       1.0  0.13445  0.39848  0.44291  1.0000
  C   C57       1.0  0.21541  0.42884  0.22722  1.0000
  C   C58       1.0  0.16520  0.47010  0.16638  1.0000
  C   C59       1.0  0.19505  0.42646  0.22759  1.0000
  C   C60       1.0  0.25458  0.40917  0.24986  1.0000
  H   H56       1.0  0.03626  0.32352  0.06194  1.0000
  H   H57       1.0  0.21038  0.35508  0.38185  1.0000
  C   C61       1.0  0.20686  0.39900  0.18906  1.0000
  C   C62       1.0  0.26618  0.39668  0.31430  1.0000
  C   C63       1.0  0.18058  0.41042  0.20869  1.0000
  H   H58       1.0  0.27109  0.39253  0.33938  1.0000
  C   C64       1.0  0.25488  0.47044  0.29292  1.0000
  C   C65       1.0  0.19741  0.37592  0.36221  1.0000
  C   C66       1.0  0.24401  0.40918  0.28107  1.0000
  C   C67       1.0  0.27678  0.39665  0.28343  1.0000
  C   C68       1.0  0.25251  0.40415  0.17152  1.0000
  C   C69       1.0  0.24977  0.40288  0.31309  1.0000
  S   S10       1.0  0.16074  0.46312  0.27119  1.0000
  H   H59       1.0  0.28982  0.39231  0.28453  1.0000
  C   C70       1.0  0.26493  0.30699  0.06595  1.0000
  C   C71       1.0  0.09479  0.44431  0.20245  1.0000
  H   H60       1.0  0.10876  0.45737  0.15414  1.0000
  C   C72       1.0  0.26346  0.44464  0.20503  1.0000
  C   C73       1.0  0.25135  0.37233  0.14517  1.0000
  Fe  Fe7       1.0  0.15110  0.47354  0.32207  1.0000
  P   P3        1.0  0.03380  0.28933  0.10541  1.0000
  C   C74       1.0  0.26136  0.40241  0.10978  1.0000
  C   C75       1.0  0.21781  0.38139  0.41638  1.0000
  C   C76       1.0  0.25777  0.38186  0.11293  1.0000
  H   H61       1.0  0.24333  0.37571  0.19898  1.0000
  C   C77       1.0  0.09308  0.39276  0.44442  1.0000
  H   H62       1.0  0.08406  0.43098  0.18900  1.0000
  C   C78       1.0  0.11696  0.36746  0.45557  1.0000
  H   H63       1.0  0.26678  0.40986  0.08496  1.0000
  H   H64       1.0  0.19135  0.44509  0.08471  1.0000
  C   C79       1.0  0.28217  0.30712  0.04870  1.0000
  H   H65       1.0  0.06232  0.35755  0.41814  1.0000
  S   S11       1.0  0.27710  0.39224  0.99995  1.0000
  C   C80       1.0  0.05943  0.34700  0.43964  1.0000
  C   C81       1.0  0.26630  0.31311  0.10169  1.0000
  H   H66       1.0  0.06459  0.28599  0.98976  1.0000
  C   C82       1.0  0.19075  0.44104  0.02764  1.0000
  C   C83       1.0  0.09516  0.44597  0.23954  1.0000
  H   H67       1.0  0.05113  0.25949  0.12841  1.0000
  C   C84       1.0  0.04113  0.26095  0.14865  1.0000
  H   H68       1.0  0.03141  0.32685  0.41542  1.0000
  C   C85       1.0  0.00935  0.27896  0.08323  1.0000
  Fe  Fe8       1.0  0.30693  0.35574  0.99739  1.0000
  Fe  Fe9       1.0  0.30973  0.44962  0.34696  1.0000
  C   C86       1.0  0.04095  0.31590  0.11603  1.0000
  C   C87       1.0  0.05647  0.35787  0.12925  1.0000
  Fe  Fe10      1.0  0.26423  0.35838  0.99890  1.0000
  H   H69       1.0  0.99989  0.30347  0.09867  1.0000
  H   H70       1.0  0.25304  0.31354  0.11477  1.0000
  H   H71       1.0  0.04988  0.36037  0.07380  1.0000
  C   C88       1.0  0.04843  0.32376  0.15012  1.0000
  C   C89       1.0  0.07299  0.35062  0.46880  1.0000
  H   H72       1.0  0.08737  0.43483  0.38527  1.0000
  C   C90       1.0  0.25653  0.45737  0.18499  1.0000
  H   H73       1.0  0.08460  0.43404  0.25487  1.0000
  C   C91       1.0  0.04135  0.32924  0.08869  1.0000
  C   C92       1.0  0.01737  0.27511  0.17069  1.0000
  C   C93       1.0  0.04907  0.35013  0.09530  1.0000
  C   C94       1.0  0.01409  0.26279  0.20040  1.0000
  C   C95       1.0  0.07334  0.29349  0.09190  1.0000
  C   C96       1.0  0.99334  0.31324  0.99697  1.0000
  H   H74       1.0  0.06303  0.37411  0.13398  1.0000
  C   C97       1.0  0.05077  0.28597  0.04024  1.0000
  H   H75       1.0  0.20562  0.44219  0.45421  1.0000
  C   C98       1.0  0.98343  0.25049  0.05274  1.0000
  C   C99       1.0  0.17954  0.35536  0.99702  1.0000
  H   H76       1.0  0.16322  0.35652  0.42160  1.0000
  C   C100      1.0  0.08854  0.40860  0.45982  1.0000
  H   H77       1.0  0.06222  0.35080  0.18278  1.0000
  C   C101      1.0  0.16101  0.43512  0.06293  1.0000
  C   C102      1.0  0.05381  0.28870  0.07725  1.0000
  S   S12       1.0  0.17883  0.47584  0.35370  1.0000
  H   H78       1.0  0.10999  0.46402  0.28571  1.0000
  H   H79       1.0  0.00899  0.28495  0.16757  1.0000
  S   S13       1.0  0.30934  0.41314  0.08651  1.0000
  C   C103      1.0  0.14890  0.42991  0.03201  1.0000
  H   H80       1.0  0.09890  0.29373  0.01613  1.0000
  S   S14       1.0  0.12378  0.38120  0.00046  1.0000
  C   C104      1.0  0.03789  0.24872  0.17850  1.0000
  C   C105      1.0  0.20484  0.33935  0.99618  1.0000
  H   H81       1.0  0.18124  0.44985  0.16178  1.0000
  C   C106      1.0  0.17854  0.43498  0.99663  1.0000
  C   C107      1.0  0.30072  0.31323  0.06722  1.0000
  S   S15       1.0  0.23000  0.33911  0.99767  1.0000
  H   H82       1.0  0.30632  0.37935  0.13352  1.0000
  H   H83       1.0  0.99928  0.32856  0.00759  1.0000
  C   C108      1.0  0.00304  0.25964  0.06704  1.0000
  C   C109      1.0  0.30216  0.31888  0.10337  1.0000
  H   H84       1.0  0.04565  0.23830  0.18131  1.0000
  C   C110      1.0  0.18877  0.32056  0.99375  1.0000
  H   H85       1.0  0.30824  0.33513  0.25122  1.0000
  C   C111      1.0  0.06692  0.28746  0.01838  1.0000
  C   C112      1.0  0.03761  0.31561  0.46536  1.0000
  C   C113      1.0  0.18138  0.46397  0.17315  1.0000
  S   S16       1.0  0.21819  0.47400  0.28203  1.0000
  H   H86       1.0  0.17607  0.36884  0.99899  1.0000
  H   H87       1.0  0.20588  0.41171  0.99970  1.0000
  H   H88       1.0  0.27611  0.48287  0.42290  1.0000
  H   H89       1.0  0.10392  0.33530  0.46547  1.0000
  Fe  Fe11      1.0  0.11376  0.34764  0.99578  1.0000
  H   H90       1.0  0.21428  0.47682  0.43357  1.0000
  H   H91       1.0  0.20977  0.47081  0.20162  1.0000
  H   H92       1.0  0.08710  0.40971  0.48829  1.0000
  C   C114      1.0  0.16355  0.33627  0.99464  1.0000
  H   H93       1.0  0.23876  0.40751  0.00158  1.0000
  S   S17       1.0  0.07632  0.37583  0.99539  1.0000
  C   C115      1.0  0.25058  0.41065  0.47302  1.0000
  C   C116      1.0  0.15760  0.42987  0.99896  1.0000
  P   P4        1.0  0.09581  0.37308  0.47141  1.0000
  C   C117      1.0  0.31091  0.39315  0.14944  1.0000
  C   C118      1.0  0.12364  0.47784  0.23727  1.0000
  C   C119      1.0  0.19742  0.47572  0.19555  1.0000
  H   H94       1.0  0.02393  0.30212  0.46407  1.0000
  H   H95       1.0  0.12044  0.48046  0.46541  1.0000
  H   H96       1.0  0.19192  0.30687  0.99303  1.0000
  H   H97       1.0  0.31089  0.48090  0.43099  1.0000
  S   S18       1.0  0.13619  0.45541  0.68276  1.0000
  S   S19       1.0  0.15255  0.42110  0.65498  1.0000
  Fe  Fe12      1.0  0.14748  0.44752  0.63069  1.0000
  S   S20       1.0  0.13201  0.44672  0.57619  1.0000
  Fe  Fe13      1.0  0.14442  0.43087  0.70829  1.0000
  S   S21       1.0  0.12509  0.40622  0.74589  1.0000
  Fe  Fe14      1.0  0.10110  0.37864  0.95639  1.0000
  S   S22       1.0  0.09177  0.34482  0.94987  1.0000
  S   S23       1.0  0.11261  0.40401  0.91520  1.0000
  C   C120      1.0  0.12236  0.40600  0.79317  1.0000
  C   C121      1.0  0.12982  0.42363  0.81452  1.0000
  C   C122      1.0  0.12654  0.42270  0.85159  1.0000
  C   C123      1.0  0.11612  0.40415  0.86812  1.0000
  C   C124      1.0  0.10892  0.38651  0.84683  1.0000
  C   C125      1.0  0.11192  0.38747  0.80969  1.0000
  H   H98       1.0  0.13774  0.43802  0.80235  1.0000
  H   H99       1.0  0.13202  0.43649  0.86757  1.0000
  H   H100      1.0  0.10080  0.37215  0.85894  1.0000
  H   H101      1.0  0.10592  0.37374  0.79356  1.0000
  C   C126      1.0  0.15962  0.39815  0.86983  1.0000
  H   H102      1.0  0.14006  0.36668  0.87044  1.0000
  H   H103      1.0  0.15698  0.39974  0.84179  1.0000
  C   C127      1.0  0.00351  0.31079  0.89319  1.0000
  C   C128      1.0  0.14994  0.37958  0.88603  1.0000
  C   C129      1.0  0.15249  0.37785  0.92259  1.0000
  H   H104      1.0  0.14485  0.36350  0.93528  1.0000
  H   H105      1.0  0.16778  0.43856  0.55570  1.0000
  H   H106      1.0  0.14099  0.37128  0.76442  1.0000
  C   C130      1.0  0.01094  0.33102  0.90467  1.0000
  H   H107      1.0  0.02592  0.33764  0.91695  1.0000
  H   H108      1.0  0.01275  0.30182  0.89686  1.0000
  H   H109      1.0  0.24113  0.31036  0.71285  1.0000
  H   H110      1.0  0.11076  0.40065  0.61596  1.0000
  C   C131      1.0  0.16439  0.39478  0.94306  1.0000
  H   H111      1.0  0.16989  0.38019  0.80659  1.0000
  C   C132      1.0  0.15624  0.37873  0.75510  1.0000
  H   H112      1.0  0.14645  0.38025  0.70117  1.0000
  H   H113      1.0  0.15922  0.44600  0.91461  1.0000
  H   H114      1.0  0.16592  0.39329  0.97144  1.0000
  S   S24       1.0  0.17936  0.46920  0.64054  1.0000
  S   S25       1.0  0.17645  0.45108  0.72211  1.0000
  C   C133      1.0  0.17184  0.41497  0.89011  1.0000
  C   C134      1.0  0.15931  0.38381  0.71939  1.0000
  C   C135      1.0  0.17269  0.38403  0.77899  1.0000
  H   H115      1.0  0.19259  0.46198  0.81710  1.0000
  Fe  Fe15      1.0  0.18390  0.44335  0.66745  1.0000
  H   H116      1.0  0.18684  0.42708  0.79815  1.0000
  H   H117      1.0  0.18784  0.33633  0.85523  1.0000
  H   H118      1.0  0.17404  0.39943  0.57540  1.0000
  H   H119      1.0  0.22750  0.33719  0.80694  1.0000
  C   C136      1.0  0.24690  0.43910  0.93165  1.0000
  C   C137      1.0  0.23622  0.40430  0.77820  1.0000
  H   H120      1.0  0.23448  0.37479  0.79524  1.0000
  C   C138      1.0  0.21689  0.42883  0.81410  1.0000
  H   H121      1.0  0.23310  0.34194  0.92188  1.0000
  C   C139      1.0  0.24575  0.31917  0.81552  1.0000
  C   C140      1.0  0.24425  0.37356  0.91252  1.0000
  C   C141      1.0  0.20217  0.38132  0.90031  1.0000
  S   S26       1.0  0.20944  0.43412  0.65098  1.0000
  C   C142      1.0  0.24227  0.31269  0.74149  1.0000
  H   H122      1.0  0.24769  0.43352  0.63287  1.0000
  H   H123      1.0  0.18118  0.39823  0.67986  1.0000
  C   C143      1.0  0.24288  0.38812  0.78073  1.0000
  C   C144      1.0  0.19219  0.27873  0.91881  1.0000
  C   C145      1.0  0.22609  0.30559  0.88462  1.0000
  H   H124      1.0  0.20734  0.29652  0.83661  1.0000
  C   C146      1.0  0.20136  0.43634  0.81003  1.0000
  C   C147      1.0  0.21373  0.43259  0.95602  1.0000
  H   H125      1.0  0.20375  0.43153  0.57456  1.0000
  C   C148      1.0  0.22844  0.44179  0.93075  1.0000
  C   C149      1.0  0.19142  0.28132  0.88210  1.0000
  C   C150      1.0  0.17389  0.41352  0.92705  1.0000
  C   C151      1.0  0.23322  0.32484  0.75774  1.0000
  P   P5        1.0  0.18946  0.43515  0.95364  1.0000
  H   H126      1.0  0.23825  0.37698  0.93702  1.0000
  C   C152      1.0  0.17311  0.45927  0.91657  1.0000
  C   C153      1.0  0.20722  0.38672  0.83685  1.0000
  H   H127      1.0  0.17927  0.42914  0.87697  1.0000
  H   H128      1.0  0.22555  0.45080  0.91002  1.0000
  H   H129      1.0  0.18991  0.35029  0.91658  1.0000
  C   C154      1.0  0.19041  0.45838  0.93371  1.0000
  C   C155      1.0  0.20831  0.29470  0.86500  1.0000
  C   C156      1.0  0.17886  0.39412  0.70751  1.0000
  H   H130      1.0  0.22505  0.33191  0.74165  1.0000
  C   C157      1.0  0.25023  0.44524  0.65305  1.0000
  C   C158      1.0  0.20104  0.42055  0.55291  1.0000
  C   C159      1.0  0.20844  0.39444  0.87178  1.0000
  C   C160      1.0  0.20454  0.45620  0.82083  1.0000
  C   C161      1.0  0.19478  0.36040  0.89434  1.0000
  C   C162      1.0  0.18422  0.40245  0.55327  1.0000
  H   H131      1.0  0.21383  0.41053  0.87715  1.0000
  C   C163      1.0  0.23476  0.32791  0.79467  1.0000
  C   C164      1.0  0.19239  0.39472  0.76742  1.0000
  C   C165      1.0  0.25002  0.34897  0.87316  1.0000
  C   C166      1.0  0.24151  0.35356  0.90391  1.0000
  H   H132      1.0  0.20293  0.38730  0.92715  1.0000
  C   C167      1.0  0.19535  0.39976  0.73143  1.0000
  C   C168      1.0  0.23383  0.44885  0.66709  1.0000
  P   P6        1.0  0.21325  0.40344  0.79924  1.0000
  H   H133      1.0  0.21025  0.40843  0.72172  1.0000
  H   H134      1.0  0.19816  0.35932  0.80434  1.0000
  C   C169      1.0  0.19973  0.36563  0.83110  1.0000
  C   C170      1.0  0.19368  0.35256  0.85976  1.0000
  H   H135      1.0  0.13932  0.40242  0.57803  1.0000
  Fe  Fe16      1.0  0.16876  0.47509  0.69389  1.0000
  C   C171      1.0  0.10789  0.39495  0.58869  1.0000
  C   C172      1.0  0.12401  0.39587  0.56730  1.0000
  C   C173      1.0  0.08819  0.38749  0.57455  1.0000
  H   H136      1.0  0.07580  0.38721  0.59107  1.0000
  C   C174      1.0  0.15962  0.43951  0.53171  1.0000
  C   C175      1.0  0.14179  0.44326  0.53425  1.0000
  C   C176      1.0  0.22671  0.30286  0.92151  1.0000
  H   H137      1.0  0.17768  0.27304  0.86693  1.0000
  C   C177      1.0  0.20986  0.28944  0.93844  1.0000
  P   P7        1.0  0.24786  0.32330  0.86313  1.0000
  C   C178      1.0  0.23720  0.46388  0.69347  1.0000
  H   H138      1.0  0.11411  0.46845  0.80884  1.0000
  H   H139      1.0  0.24603  0.41089  0.52998  1.0000
  C   C179      1.0  0.20759  0.47621  0.93844  1.0000
  H   H140      1.0  0.22457  0.46674  0.70444  1.0000
  H   H141      1.0  0.11736  0.44674  0.50411  1.0000
  H   H142      1.0  0.25173  0.45302  0.57947  1.0000
  C   C180      1.0  0.25592  0.46677  0.56444  1.0000
  C   C181      1.0  0.23555  0.44141  0.82939  1.0000
  C   C182      1.0  0.24754  0.42129  0.75855  1.0000
  C   C183      1.0  0.22324  0.46870  0.83556  1.0000
  H   H143      1.0  0.24252  0.43377  0.75507  1.0000
  C   C184      1.0  0.23875  0.46133  0.83974  1.0000
  H   H144      1.0  0.24776  0.43595  0.83269  1.0000
  H   H145      1.0  0.24011  0.31142  0.93740  1.0000
  H   H146      1.0  0.17904  0.26855  0.93213  1.0000
  H   H147      1.0  0.23452  0.47677  0.59008  1.0000
  C   C185      1.0  0.99852  0.28457  0.97095  1.0000
  H   H148      1.0  0.00850  0.27747  0.96119  1.0000
  C   C186      1.0  0.21425  0.42460  0.52450  1.0000
  C   C187      1.0  0.08459  0.38086  0.53900  1.0000
  H   H149      1.0  0.06925  0.37538  0.52833  1.0000
  C   C188      1.0  0.12052  0.38944  0.53165  1.0000
  H   H150      1.0  0.22702  0.43879  0.52428  1.0000
  C   C189      1.0  0.25489  0.38909  0.88988  1.0000
  H   H151      1.0  0.16745  0.37443  0.52530  1.0000
  C   C190      1.0  0.18060  0.38838  0.52515  1.0000
  S   S27       1.0  0.03427  0.31811  0.98501  1.0000
  H   H152      1.0  0.25337  0.47112  0.85059  1.0000
  C   C191      1.0  0.10073  0.38170  0.51730  1.0000
  H   H153      1.0  0.13338  0.39101  0.51542  1.0000
  H   H154      1.0  0.22064  0.47620  0.95357  1.0000
  C   C192      1.0  0.25069  0.42695  0.95744  1.0000
  C   C193      1.0  0.25702  0.47497  0.70617  1.0000
  C   C194      1.0  0.17351  0.47736  0.90201  1.0000
  H   H155      1.0  0.21046  0.28768  0.96698  1.0000
  C   C195      1.0  0.21094  0.41047  0.49644  1.0000
  H   H156      1.0  0.07901  0.33885  0.51872  1.0000
  C   C196      1.0  0.16689  0.43686  0.49807  1.0000
  H   H157      1.0  0.25831  0.44636  0.91230  1.0000
  H   H158      1.0  0.97840  0.28608  0.87078  1.0000
  C   C197      1.0  0.99886  0.34250  0.90131  1.0000
  H   H159      1.0  0.25601  0.28960  0.89637  1.0000
  C   C198      1.0  0.13143  0.44439  0.50260  1.0000
  C   C199      1.0  0.25539  0.40904  0.50896  1.0000
  C   C200      1.0  0.19397  0.39230  0.49688  1.0000
  C   C201      1.0  0.26088  0.36475  0.85076  1.0000
  C   C202      1.0  0.24629  0.48037  0.57051  1.0000
  C   C203      1.0  0.06870  0.33646  0.49609  1.0000
  H   H160      1.0  0.04780  0.30826  0.51564  1.0000
  H   H161      1.0  0.14788  0.42557  0.97531  1.0000
  C   C204      1.0  0.05105  0.31907  0.49440  1.0000
  H   H162      1.0  0.18044  0.43358  0.49664  1.0000
  C   C205      1.0  0.21738  0.41982  0.98107  1.0000
  H   H163      1.0  0.16017  0.47783  0.88840  1.0000
  H   H164      1.0  0.11794  0.47698  0.53120  1.0000
  H   H165      1.0  0.00459  0.35809  0.91079  1.0000
  C   C206      1.0  0.11841  0.48447  0.80394  1.0000
  H   H166      1.0  0.16511  0.48504  0.54955  1.0000
  H   H167      1.0  0.25740  0.40464  0.89676  1.0000
  C   C207      1.0  0.98396  0.30195  0.87840  1.0000
  C   C208      1.0  0.23588  0.41719  0.98195  1.0000
  C   C209      1.0  0.00694  0.30457  0.98459  1.0000
  H   H168      1.0  0.14157  0.48547  0.76698  1.0000
  C   C210      1.0  0.25277  0.30350  0.76219  1.0000
  C   C211      1.0  0.25446  0.30666  0.79912  1.0000
  H   H169      1.0  0.25969  0.29400  0.74959  1.0000
  H   H170      1.0  0.26507  0.42493  0.95819  1.0000
  H   H171      1.0  0.26265  0.29941  0.81470  1.0000
  C   C212      1.0  0.97929  0.33371  0.88661  1.0000
  C   C213      1.0  0.27250  0.40657  0.74695  1.0000
  S   S28       1.0  0.29813  0.48458  0.70897  1.0000
  C   C214      1.0  0.30698  0.33504  0.89077  1.0000
  C   C215      1.0  0.26098  0.38931  0.76519  1.0000
  H   H172      1.0  0.28674  0.40763  0.73560  1.0000
  H   H173      1.0  0.29057  0.35031  0.86330  1.0000
  Fe  Fe17      1.0  0.29826  0.38957  0.95790  1.0000
  C   C216      1.0  0.26571  0.42249  0.74343  1.0000
  H   H174      1.0  0.26637  0.37703  0.76764  1.0000
  H   H175      1.0  0.27665  0.40434  0.54598  1.0000
  C   C217      1.0  0.28948  0.33646  0.87595  1.0000
  H   H176      1.0  0.30935  0.44987  0.50593  1.0000
  C   C218      1.0  0.30606  0.31753  0.90799  1.0000
  S   S29       1.0  0.28421  0.35558  0.95442  1.0000
  H   H177      1.0  0.29876  0.40014  0.49905  1.0000
  S   S30       1.0  0.30827  0.43705  0.67873  1.0000
  H   H178      1.0  0.27812  0.46008  0.53408  1.0000
  C   C219      1.0  0.27009  0.30248  0.89480  1.0000
  H   H179      1.0  0.26811  0.36183  0.82738  1.0000
  H   H180      1.0  0.27183  0.39685  0.84200  1.0000
  C   C220      1.0  0.27075  0.32049  0.87904  1.0000
  H   H181      1.0  0.27461  0.43586  0.72912  1.0000
  H   H182      1.0  0.28711  0.28742  0.92246  1.0000
  C   C221      1.0  0.27071  0.47070  0.53869  1.0000
  S   S31       1.0  0.30475  0.41243  0.91308  1.0000
  C   C222      1.0  0.27345  0.47131  0.69200  1.0000
  H   H183      1.0  0.29920  0.47753  0.60473  1.0000
  C   C223      1.0  0.27266  0.40513  0.51821  1.0000
  C   C224      1.0  0.28770  0.30109  0.90942  1.0000
  C   C225      1.0  0.26307  0.38466  0.85893  1.0000
  H   H184      1.0  0.28248  0.45427  0.65281  1.0000
  C   C226      1.0  0.28519  0.40280  0.49175  1.0000
  C   C227      1.0  0.26998  0.45674  0.66484  1.0000
  H   H185      1.0  0.30777  0.29713  0.98398  1.0000
  H   H186      1.0  0.31003  0.43989  0.85584  1.0000
  H   H187      1.0  0.22578  0.48419  0.84328  1.0000
  Fe  Fe18      1.0  0.15347  0.62660  0.34827  1.0000
  S   S32       1.0  0.18578  0.62961  0.34595  1.0000
  S   S33       1.0  0.13569  0.61990  0.39943  1.0000
  Fe  Fe19      1.0  0.15170  0.63660  0.26797  1.0000
  S   S34       1.0  0.18425  0.64063  0.26068  1.0000
  S   S35       1.0  0.13063  0.64358  0.22805  1.0000
  Fe  Fe20      1.0  0.17644  0.61248  0.29380  1.0000
  S   S36       1.0  0.18748  0.58734  0.27971  1.0000
  Fe  Fe21      1.0  0.19038  0.65722  0.31363  1.0000
  S   S37       1.0  0.21335  0.68752  0.33276  1.0000
  S   S38       1.0  0.14352  0.60746  0.29795  1.0000
  S   S39       1.0  0.15837  0.65509  0.31882  1.0000
  H   H188      1.0  0.17682  0.52340  0.44153  1.0000
  Fe  Fe22      1.0  0.12093  0.65543  0.01211  1.0000
  S   S40       1.0  0.13864  0.64918  0.05904  1.0000
  S   S41       1.0  0.10356  0.67606  0.00989  1.0000
  C   C228      1.0  0.16495  0.48807  0.18184  1.0000
  H   H189      1.0  0.19941  0.68104  0.05924  1.0000
  C   C229      1.0  0.10935  0.70659  0.16373  1.0000
  C   C230      1.0  0.12233  0.49118  0.05774  1.0000
  C   C231      1.0  0.13247  0.64409  0.18092  1.0000
  C   C232      1.0  0.11762  0.64778  0.16017  1.0000
  C   C233      1.0  0.11900  0.64913  0.12280  1.0000
  C   C234      1.0  0.13536  0.64686  0.10579  1.0000
  C   C235      1.0  0.15008  0.64299  0.12654  1.0000
  C   C236      1.0  0.14863  0.64153  0.16382  1.0000
  H   H190      1.0  0.10495  0.64959  0.17311  1.0000
  H   H191      1.0  0.10740  0.65181  0.10721  1.0000
  H   H192      1.0  0.16270  0.64104  0.11365  1.0000
  H   H193      1.0  0.16001  0.63841  0.17934  1.0000
  C   C237      1.0  0.14710  0.62696  0.44250  1.0000
  H   H194      1.0  0.19468  0.52268  0.38621  1.0000
  H   H195      1.0  0.19276  0.64743  0.48601  1.0000
  C   C238      1.0  0.13478  0.62660  0.47147  1.0000
  C   C239      1.0  0.23377  0.73095  0.45564  1.0000
  C   C240      1.0  0.17327  0.56239  0.29290  1.0000
  C   C241      1.0  0.17964  0.54661  0.28327  1.0000
  C   C242      1.0  0.16898  0.52672  0.29433  1.0000
  C   C243      1.0  0.15173  0.52246  0.31477  1.0000
  C   C244      1.0  0.14519  0.53815  0.32393  1.0000
  C   C245      1.0  0.15595  0.55806  0.31319  1.0000
  H   H196      1.0  0.19297  0.54984  0.26745  1.0000
  H   H197      1.0  0.17412  0.51471  0.28710  1.0000
  H   H198      1.0  0.13184  0.53494  0.33967  1.0000
  H   H199      1.0  0.15094  0.57007  0.32090  1.0000
  C   C246      1.0  0.23670  0.69990  0.31256  1.0000
  C   C247      1.0  0.25052  0.71744  0.32926  1.0000
  C   C248      1.0  0.27586  0.70216  0.40951  1.0000
  H   H200      1.0  0.15294  0.69321  0.31562  1.0000
  C   C249      1.0  0.11017  0.49363  0.08478  1.0000
  H   H201      1.0  0.29672  0.50180  0.19731  1.0000
  C   C250      1.0  0.14770  0.49157  0.10179  1.0000
  H   H202      1.0  0.27971  0.71837  0.40974  1.0000
  C   C251      1.0  0.22021  0.73128  0.08211  1.0000
  H   H203      1.0  0.99009  0.63106  0.11272  1.0000
  C   C252      1.0  0.13884  0.51228  0.46836  1.0000
  C   C253      1.0  0.14757  0.52032  0.18997  1.0000
  C   C254      1.0  0.13330  0.52481  0.21013  1.0000
  C   C255      1.0  0.13685  0.54479  0.22055  1.0000
  C   C256      1.0  0.15446  0.56044  0.21043  1.0000
  C   C257      1.0  0.16858  0.55615  0.18994  1.0000
  C   C258      1.0  0.16508  0.53620  0.17940  1.0000
  H   H204      1.0  0.20794  0.73302  0.42710  1.0000
  H   H205      1.0  0.17852  0.58295  0.41629  1.0000
  C   C259      1.0  0.19143  0.53593  0.39332  1.0000
  H   H206      1.0  0.09919  0.58240  0.44127  1.0000
  C   C260      1.0  0.04354  0.60961  0.10192  1.0000
  H   H207      1.0  0.20928  0.50213  0.22988  1.0000
  C   C261      1.0  0.03311  0.59947  0.13143  1.0000
  C   C262      1.0  0.03287  0.61326  0.07306  1.0000
  H   H208      1.0  0.27039  0.73321  0.09115  1.0000
  C   C263      1.0  0.16806  0.63386  0.44824  1.0000
  C   C264      1.0  0.19718  0.49349  0.21140  1.0000
  C   C265      1.0  0.25601  0.68935  0.40097  1.0000
  H   H209      1.0  0.13535  0.69927  0.14968  1.0000
  H   H210      1.0  0.26272  0.73306  0.47810  1.0000
  H   H211      1.0  0.22115  0.67367  0.46215  1.0000
  H   H212      1.0  0.26302  0.48770  0.16698  1.0000
  H   H213      1.0  0.11942  0.51302  0.21796  1.0000
  H   H214      1.0  0.12612  0.54818  0.23695  1.0000
  H   H215      1.0  0.15737  0.57588  0.21912  1.0000
  H   H216      1.0  0.18236  0.56835  0.18270  1.0000
  H   H217      1.0  0.17610  0.53314  0.16330  1.0000
  H   H218      1.0  0.15057  0.48847  0.04521  1.0000
  C   C266      1.0  0.19704  0.68869  0.18652  1.0000
  C   C267      1.0  0.19670  0.69029  0.42727  1.0000
  C   C268      1.0  0.01182  0.60688  0.07374  1.0000
  H   H219      1.0  0.24677  0.72277  0.35418  1.0000
  H   H220      1.0  0.10709  0.49676  0.14106  1.0000
  C   C269      1.0  0.14209  0.56270  0.46206  1.0000
  H   H221      1.0  0.22922  0.51230  0.48412  1.0000
  H   H222      1.0  0.11320  0.56816  0.39277  1.0000
  H   H223      1.0  0.98918  0.57337  0.03811  1.0000
  C   C270      1.0  0.06162  0.68263  0.04606  1.0000
  C   C271      1.0  0.04863  0.66659  0.06535  1.0000
  C   C272      1.0  0.05266  0.66498  0.10143  1.0000
  C   C273      1.0  0.06968  0.67943  0.11828  1.0000
  H   H224      1.0  0.15042  0.69213  0.04949  1.0000
  P   P8        1.0  0.14306  0.49471  0.17536  1.0000
  H   H225      1.0  0.04273  0.65232  0.11618  1.0000
  H   H226      1.0  0.07259  0.67753  0.14601  1.0000
  H   H227      1.0  0.21106  0.69406  0.41437  1.0000
  H   H228      1.0  0.08429  0.71204  0.18734  1.0000
  C   C274      1.0  0.24161  0.69310  0.28027  1.0000
  H   H229      1.0  0.03568  0.65522  0.05197  1.0000
  C   C275      1.0  0.19270  0.56945  0.37945  1.0000
  H   H230      1.0  0.24466  0.69562  0.39492  1.0000
  H   H231      1.0  0.17516  0.69986  0.20650  1.0000
  C   C276      1.0  0.19681  0.49918  0.47986  1.0000
  H   H232      1.0  0.16246  0.49122  0.10767  1.0000
  C   C277      1.0  0.26024  0.70402  0.26466  1.0000
  P   P9        1.0  0.16201  0.55365  0.47205  1.0000
  C   C278      1.0  0.26544  0.66025  0.40690  1.0000
  C   C279      1.0  0.28530  0.67301  0.41588  1.0000
  C   C280      1.0  0.21747  0.69283  0.18066  1.0000
  H   H233      1.0  0.13510  0.49045  0.25126  1.0000
  H   H234      1.0  0.20498  0.55210  0.34648  1.0000
  C   C281      1.0  0.14111  0.49023  0.06624  1.0000
  H   H235      1.0  0.11859  0.62147  0.46732  1.0000
  C   C282      1.0  0.17202  0.71374  0.27795  1.0000
  H   H236      1.0  0.29633  0.66634  0.42158  1.0000
  H   H237      1.0  0.26397  0.69883  0.23957  1.0000
  H   H238      1.0  0.12249  0.68725  0.09036  1.0000
  C   C283      1.0  0.09647  0.70664  0.19162  1.0000
  H   H239      1.0  0.17994  0.67446  0.38101  1.0000
  C   C284      1.0  0.20113  0.69535  0.07200  1.0000
  C   C285      1.0  0.18613  0.69638  0.09447  1.0000
  C   C286      1.0  0.18817  0.71474  0.11100  1.0000
  C   C287      1.0  0.12564  0.71870  0.09086  1.0000
  H   H240      1.0  0.23101  0.67959  0.26721  1.0000
  C   C288      1.0  0.17685  0.69090  0.47859  1.0000
  C   C289      1.0  0.11380  0.69122  0.23040  1.0000
  C   C290      1.0  0.14193  0.71660  0.30230  1.0000
  H   H241      1.0  0.17287  0.68291  0.09891  1.0000
  H   H242      1.0  0.17652  0.71544  0.12843  1.0000
  C   C291      1.0  0.12787  0.49347  0.48283  1.0000
  C   C292      1.0  0.11666  0.49484  0.12034  1.0000
  C   C293      1.0  0.15728  0.72396  0.04384  1.0000
  C   C294      1.0  0.11070  0.57633  0.44731  1.0000
  H   H243      1.0  0.05987  0.61452  0.10126  1.0000
  H   H244      1.0  0.11722  0.49011  0.03020  1.0000
  H   H245      1.0  0.24963  0.49749  0.41780  1.0000
  H   H246      1.0  0.17461  0.59734  0.48745  1.0000
  H   H247      1.0  0.24783  0.71489  0.18631  1.0000
  C   C295      1.0  0.11867  0.56836  0.41990  1.0000
  H   H248      1.0  0.07627  0.73162  0.08769  1.0000
  C   C296      1.0  0.18094  0.49957  0.20491  1.0000
  H   H249      1.0  0.08823  0.69830  0.24574  1.0000
  C   C297      1.0  0.12721  0.69194  0.20341  1.0000
  C   C298      1.0  0.21826  0.71269  0.06613  1.0000
  C   C299      1.0  0.17900  0.67936  0.40798  1.0000
  H   H250      1.0  0.13875  0.68569  0.20791  1.0000
  C   C300      1.0  0.07864  0.69712  0.06278  1.0000
  H   H251      1.0  0.19640  0.49909  0.45103  1.0000
  H   H252      1.0  0.08874  0.70923  0.04711  1.0000
  C   C301      1.0  0.29068  0.69410  0.41704  1.0000
  H   H253      1.0  0.00959  0.64807  0.99595  1.0000
  C   C302      1.0  0.13531  0.49346  0.12915  1.0000
  H   H254      1.0  0.18065  0.51284  0.21891  1.0000
  H   H255      1.0  0.19688  0.58211  0.36157  1.0000
  C   C303      1.0  0.01200  0.59276  0.13193  1.0000
  C   C304      1.0  0.17658  0.64126  0.48219  1.0000
  C   C305      1.0  0.11809  0.57714  0.48219  1.0000
  H   H256      1.0  0.30371  0.70923  0.35189  1.0000
  H   H257      1.0  0.26137  0.64401  0.40537  1.0000
  H   H258      1.0  0.17775  0.63430  0.42622  1.0000
  C   C306      1.0  0.09863  0.69888  0.22473  1.0000
  C   C307      1.0  0.12504  0.69953  0.17017  1.0000
  H   H259      1.0  0.16919  0.72578  0.02519  1.0000
  H   H260      1.0  0.18256  0.70600  0.27740  1.0000
  H   H261      1.0  0.04091  0.62088  0.04989  1.0000
  H   H262      1.0  0.13933  0.51370  0.43967  1.0000
  H   H263      1.0  0.18581  0.67405  0.17882  1.0000
  H   H264      1.0  0.23548  0.65862  0.39183  1.0000
  H   H265      1.0  0.12908  0.71096  0.31956  1.0000
  S   S42       1.0  0.13791  0.49770  0.32911  1.0000
  C   C308      1.0  0.19725  0.55250  0.37089  1.0000
  H   H266      1.0  0.04142  0.59658  0.15372  1.0000
  C   C309      1.0  0.25081  0.66843  0.39936  1.0000
  C   C310      1.0  0.00116  0.59628  0.10291  1.0000
  C   C311      1.0  0.14672  0.70496  0.05765  1.0000
  C   C312      1.0  0.18101  0.53627  0.42437  1.0000
  H   H267      1.0  0.05874  0.68346  0.01779  1.0000
  C   C313      1.0  0.23196  0.71171  0.19055  1.0000
  H   H268      1.0  0.09570  0.49456  0.07819  1.0000
  C   C314      1.0  0.19577  0.69649  0.46258  1.0000
  H   H269      1.0  0.11505  0.68437  0.25546  1.0000
  C   C315      1.0  0.19107  0.70335  0.20247  1.0000
  C   C316      1.0  0.16022  0.67440  0.42366  1.0000
  C   C317      1.0  0.08279  0.69573  0.09909  1.0000
  H   H270      1.0  0.00427  0.58476  0.15486  1.0000
  C   C318      1.0  0.13089  0.70228  0.08088  1.0000
  C   C319      1.0  0.17589  0.55302  0.43264  1.0000
  H   H271      1.0  0.14656  0.66541  0.40884  1.0000
  P   P10       1.0  0.10477  0.71484  0.12021  1.0000
  H   H272      1.0  0.22996  0.71150  0.04932  1.0000
  C   C320      1.0  0.15916  0.67999  0.45908  1.0000
  C   C321      1.0  0.27389  0.72176  0.28121  1.0000
  C   C322      1.0  0.28746  0.48588  0.19929  1.0000
  C   C323      1.0  0.26909  0.72829  0.31376  1.0000
  H   H273      1.0  0.00380  0.60976  0.05105  1.0000
  C   C324      1.0  0.15534  0.70652  0.29997  1.0000
  H   H274      1.0  0.22206  0.68135  0.16863  1.0000
  C   C325      1.0  0.20557  0.72222  0.21308  1.0000
  C   C326      1.0  0.22604  0.72642  0.20648  1.0000
  H   H275      1.0  0.14467  0.67525  0.47182  1.0000
  C   C327      1.0  0.17527  0.73104  0.25770  1.0000
  C   C328      1.0  0.18215  0.56977  0.41029  1.0000
  H   H276      1.0  0.29200  0.73372  0.14361  1.0000
  H   H277      1.0  0.13998  0.55508  0.40559  1.0000
  C   C329      1.0  0.13417  0.56135  0.42723  1.0000
  C   C330      1.0  0.14519  0.73397  0.28260  1.0000
  H   H278      1.0  0.97921  0.65792  0.09022  1.0000
  H   H279      1.0  0.22715  0.73468  0.28110  1.0000
  P   P11       1.0  0.21868  0.71227  0.48610  1.0000
  C   C331      1.0  0.20518  0.73212  0.10496  1.0000
  C   C332      1.0  0.23105  0.67932  0.48519  1.0000
  H   H280      1.0  0.23977  0.65346  0.48587  1.0000
  Fe  Fe23      1.0  0.17283  0.64216  0.60473  1.0000
  S   S43       1.0  0.19625  0.62908  0.61650  1.0000
  S   S44       1.0  0.17540  0.65599  0.54993  1.0000
  Fe  Fe24      1.0  0.15607  0.63362  0.68104  1.0000
  S   S45       1.0  0.17800  0.61915  0.69681  1.0000
  S   S46       1.0  0.13359  0.63906  0.71846  1.0000
  Fe  Fe25      1.0  0.20072  0.64543  0.66906  1.0000
  S   S47       1.0  0.23162  0.66353  0.69284  1.0000
  Fe  Fe26      1.0  0.17121  0.60418  0.64231  1.0000
  S   S48       1.0  0.16551  0.57239  0.62212  1.0000
  S   S49       1.0  0.17918  0.66068  0.65589  1.0000
  S   S50       1.0  0.14733  0.61658  0.62818  1.0000
  S   S51       1.0  0.17865  0.50627  0.71938  1.0000
  C   C333      1.0  0.28706  0.56944  0.54385  1.0000
  C   C334      1.0  0.18367  0.69313  0.80750  1.0000
  C   C335      1.0  0.19097  0.49486  0.90545  1.0000
  C   C336      1.0  0.12222  0.54723  0.67574  1.0000
  H   H281      1.0  0.12816  0.58635  0.75203  1.0000
  Fe  Fe27      1.0  0.11862  0.65003  0.93013  1.0000
  S   S52       1.0  0.13371  0.63680  0.88853  1.0000
  S   S53       1.0  0.10074  0.67014  0.92376  1.0000
  H   H282      1.0  0.23475  0.71271  0.60191  1.0000
  C   C337      1.0  0.14884  0.52915  0.49079  1.0000
  H   H283      1.0  0.22129  0.50801  0.92741  1.0000
  C   C338      1.0  0.13472  0.63939  0.76582  1.0000
  C   C339      1.0  0.12175  0.64647  0.78490  1.0000
  C   C340      1.0  0.12155  0.64623  0.82244  1.0000
  C   C341      1.0  0.13420  0.63872  0.84136  1.0000
  C   C342      1.0  0.14733  0.63186  0.82228  1.0000
  C   C343      1.0  0.14770  0.63229  0.78478  1.0000
  H   H284      1.0  0.11161  0.65194  0.77053  1.0000
  H   H285      1.0  0.11127  0.65141  0.83669  1.0000
  H   H286      1.0  0.15719  0.62602  0.83662  1.0000
  H   H287      1.0  0.15773  0.62677  0.77055  1.0000
  C   C344      1.0  0.17489  0.52463  0.69247  1.0000
  C   C345      1.0  0.16677  0.51966  0.65797  1.0000
  C   C346      1.0  0.16425  0.53459  0.63664  1.0000
  C   C347      1.0  0.16951  0.55445  0.64975  1.0000
  C   C348      1.0  0.17765  0.55947  0.68424  1.0000
  C   C349      1.0  0.18044  0.54459  0.70548  1.0000
  H   H288      1.0  0.16252  0.50435  0.64766  1.0000
  H   H289      1.0  0.15809  0.53074  0.60994  1.0000
  H   H290      1.0  0.18181  0.57479  0.69443  1.0000
  H   H291      1.0  0.18699  0.54854  0.73195  1.0000
  C   C350      1.0  0.24335  0.68635  0.67051  1.0000
  C   C351      1.0  0.23350  0.69098  0.64151  1.0000
  H   H292      1.0  0.21898  0.68040  0.63215  1.0000
  C   C352      1.0  0.23297  0.69767  0.50198  1.0000
  C   C353      1.0  0.16429  0.64156  0.51084  1.0000
  C   C354      1.0  0.24257  0.70923  0.62400  1.0000
  C   C355      1.0  0.25689  0.69325  0.54470  1.0000
  S   S54       1.0  0.09933  0.63199  0.97447  1.0000
  C   C356      1.0  0.30507  0.50926  0.61246  1.0000
  P   P12       1.0  0.23979  0.51623  0.55992  1.0000
  C   C357      1.0  0.23650  0.52012  0.60664  1.0000
  H   H293      1.0  0.28670  0.72869  0.67177  1.0000
  C   C358      1.0  0.30815  0.49279  0.59680  1.0000
  C   C359      1.0  0.14672  0.52713  0.52780  1.0000
  H   H294      1.0  0.17558  0.69460  0.50619  1.0000
  C   C360      1.0  0.26661  0.50215  0.52534  1.0000
  C   C361      1.0  0.14335  0.72167  0.81274  1.0000
  C   C362      1.0  0.24691  0.51389  0.63315  1.0000
  C   C363      1.0  0.24420  0.51728  0.66910  1.0000
  C   C364      1.0  0.23143  0.52725  0.67882  1.0000
  C   C365      1.0  0.22180  0.53432  0.65258  1.0000
  C   C366      1.0  0.22434  0.53084  0.61667  1.0000
  C   C367      1.0  0.20568  0.71398  0.55499  1.0000
  H   H295      1.0  0.25716  0.50646  0.62646  1.0000
  C   C368      1.0  0.12963  0.70325  0.82517  1.0000
  H   H296      1.0  0.20241  0.60757  0.75838  1.0000
  H   H297      1.0  0.09655  0.48817  0.83930  1.0000
  H   H298      1.0  0.25197  0.51213  0.68947  1.0000
  H   H299      1.0  0.22896  0.52950  0.70667  1.0000
  C   C369      1.0  0.20557  0.57644  0.55041  1.0000
  H   H300      1.0  0.21661  0.53636  0.59679  1.0000
  H   H301      1.0  0.16165  0.70821  0.65057  1.0000
  C   C370      1.0  0.12622  0.57506  0.73120  1.0000
  H   H302      1.0  0.24985  0.58220  0.50611  1.0000
  C   C371      1.0  0.26177  0.72283  0.63454  1.0000
  H   H303      1.0  0.98823  0.57621  0.95764  1.0000
  C   C372      1.0  0.18396  0.67631  0.86290  1.0000
  C   C373      1.0  0.16691  0.71914  0.75282  1.0000
  H   H304      1.0  0.19847  0.62000  0.53177  1.0000
  C   C374      1.0  0.24637  0.70480  0.53128  1.0000
  C   C375      1.0  0.29369  0.73412  0.76842  1.0000
  H   H305      1.0  0.29385  0.50670  0.63283  1.0000
  H   H306      1.0  0.29161  0.73218  0.53771  1.0000
  H   H307      1.0  0.12134  0.53679  0.65396  1.0000
  Fe  Fe28      1.0  0.08212  0.65304  0.97040  1.0000
  H   H308      1.0  0.16646  0.71413  0.87555  1.0000
  C   C376      1.0  0.20008  0.72313  0.58390  1.0000
  C   C377      1.0  0.25472  0.54126  0.54520  1.0000
  H   H309      1.0  0.15152  0.52180  0.75593  1.0000
  H   H310      1.0  0.98310  0.55636  0.50483  1.0000
  C   C378      1.0  0.22435  0.72694  0.70986  1.0000
  C   C379      1.0  0.30184  0.72308  0.48891  1.0000
  C   C380      1.0  0.17667  0.68951  0.88051  1.0000
  H   H311      1.0  0.18472  0.73045  0.96368  1.0000
  H   H312      1.0  0.18640  0.69411  0.77928  1.0000
  C   C381      1.0  0.12135  0.57912  0.69676  1.0000
  C   C382      1.0  0.24550  0.55322  0.52840  1.0000
  H   H313      1.0  0.21809  0.60675  0.57263  1.0000
  H   H314      1.0  0.08920  0.71657  0.83924  1.0000
  C   C383      1.0  0.17355  0.73517  0.72890  1.0000
  C   C384      1.0  0.18765  0.67826  0.82650  1.0000
  H   H315      1.0  0.27070  0.51554  0.50940  1.0000
  H   H316      1.0  0.27036  0.69639  0.70372  1.0000
  H   H317      1.0  0.13420  0.50671  0.57067  1.0000
  C   C385      1.0  0.26256  0.70004  0.68155  1.0000
  C   C386      1.0  0.27785  0.58113  0.52659  1.0000
  H   H318      1.0  0.19012  0.54765  0.52423  1.0000
  H   H319      1.0  0.13385  0.69020  0.82755  1.0000
  H   H320      1.0  0.19743  0.49743  0.58283  1.0000
  H   H321      1.0  0.22936  0.54745  0.52305  1.0000
  C   C387      1.0  0.12642  0.49148  0.51973  1.0000
  C   C388      1.0  0.15717  0.69930  0.73927  1.0000
  H   H322      1.0  0.22160  0.72281  0.84418  1.0000
  H   H323      1.0  0.19121  0.50890  0.89434  1.0000
  H   H324      1.0  0.24654  0.69399  0.75613  1.0000
  C   C389      1.0  0.10423  0.71797  0.83153  1.0000
  C   C390      1.0  0.11944  0.56526  0.66900  1.0000
  C   C391      1.0  0.16306  0.71134  0.67900  1.0000
  H   H325      1.0  0.17338  0.68769  0.90857  1.0000
  C   C392      1.0  0.25447  0.67471  0.52846  1.0000
  Fe  Fe29      1.0  0.12354  0.69100  0.96388  1.0000
  C   C393      1.0  0.27552  0.54963  0.55338  1.0000
  C   C394      1.0  0.12907  0.55694  0.73831  1.0000
  C   C395      1.0  0.12712  0.54310  0.71016  1.0000
  P   P13       1.0  0.13717  0.55276  0.78242  1.0000
  C   C396      1.0  0.12947  0.52595  0.79072  1.0000
  C   C397      1.0  0.16439  0.56502  0.78557  1.0000
  C   C398      1.0  0.17612  0.55619  0.80427  1.0000
  C   C399      1.0  0.19720  0.56562  0.80570  1.0000
  C   C400      1.0  0.27600  0.48836  0.51907  1.0000
  C   C401      1.0  0.19510  0.59326  0.77135  1.0000
  C   C402      1.0  0.17404  0.58383  0.76981  1.0000
  C   C403      1.0  0.11398  0.51624  0.81445  1.0000
  C   C404      1.0  0.19757  0.49843  0.55418  1.0000
  C   C405      1.0  0.13368  0.57028  0.48962  1.0000
  C   C406      1.0  0.14329  0.63377  0.50546  1.0000
  C   C407      1.0  0.13940  0.51464  0.77397  1.0000
  C   C408      1.0  0.12597  0.56445  0.81422  1.0000
  C   C409      1.0  0.10571  0.56245  0.80961  1.0000
  C   C410      1.0  0.09728  0.57248  0.83286  1.0000
  C   C411      1.0  0.10895  0.58441  0.86100  1.0000
  C   C412      1.0  0.12897  0.58613  0.86617  1.0000
  C   C413      1.0  0.13750  0.57622  0.84289  1.0000
  H   H326      1.0  0.29314  0.70715  0.49247  1.0000
  H   H327      1.0  0.19556  0.71486  0.60829  1.0000
  C   C414      1.0  0.99278  0.59185  0.96628  1.0000
  H   H328      1.0  0.18615  0.66419  0.87731  1.0000
  H   H329      1.0  0.12978  0.52932  0.71418  1.0000
  H   H330      1.0  0.16909  0.54194  0.81744  1.0000
  H   H331      1.0  0.20620  0.55848  0.81934  1.0000
  H   H332      1.0  0.11633  0.56870  0.64207  1.0000
  H   H333      1.0  0.21219  0.54236  0.66011  1.0000
  H   H334      1.0  0.16534  0.59119  0.75604  1.0000
  H   H335      1.0  0.10612  0.52449  0.82807  1.0000
  C   C415      1.0  0.11021  0.70148  0.83476  1.0000
  C   C416      1.0  0.19189  0.56342  0.52553  1.0000
  H   H336      1.0  0.13934  0.57114  0.51679  1.0000
  H   H337      1.0  0.21392  0.57067  0.56869  1.0000
  H   H338      1.0  0.09656  0.55348  0.78760  1.0000
  H   H339      1.0  0.08182  0.57134  0.82873  1.0000
  H   H340      1.0  0.10265  0.59268  0.87849  1.0000
  H   H341      1.0  0.13801  0.59572  0.88770  1.0000
  H   H342      1.0  0.15316  0.57812  0.84702  1.0000
  C   C417      1.0  0.23527  0.66893  0.79099  1.0000
  C   C418      1.0  0.23146  0.66268  0.82608  1.0000
  C   C419      1.0  0.23601  0.67709  0.85378  1.0000
  C   C420      1.0  0.24407  0.69773  0.84635  1.0000
  C   C421      1.0  0.24708  0.70414  0.81098  1.0000
  C   C422      1.0  0.24332  0.68955  0.78349  1.0000
  H   H343      1.0  0.21032  0.71650  0.69791  1.0000
  C   C423      1.0  0.13573  0.50830  0.54213  1.0000
  S   S55       1.0  0.14151  0.67140  0.96823  1.0000
  H   H344      1.0  0.22052  0.71061  0.75830  1.0000
  H   H345      1.0  0.13366  0.63436  0.52701  1.0000
  C   C424      1.0  0.19684  0.60425  0.52972  1.0000
  C   C425      1.0  0.21531  0.50660  0.49867  1.0000
  H   H346      1.0  0.25961  0.48620  0.72727  1.0000
  C   C426      1.0  0.20793  0.59680  0.55266  1.0000
  C   C427      1.0  0.24171  0.66784  0.49849  1.0000
  H   H347      1.0  0.23208  0.65781  0.76944  1.0000
  H   H348      1.0  0.22515  0.64669  0.83175  1.0000
  H   H349      1.0  0.23335  0.67224  0.88105  1.0000
  C   C428      1.0  0.02026  0.62524  0.97697  1.0000
  H   H350      1.0  0.24858  0.71922  0.54406  1.0000
  C   C429      1.0  0.17190  0.73123  0.69215  1.0000
  H   H351      1.0  0.19290  0.66777  0.81268  1.0000
  H   H352      1.0  0.20508  0.69860  0.55731  1.0000
  C   C430      1.0  0.17562  0.70596  0.82475  1.0000
  H   H353      1.0  0.24797  0.70863  0.86824  1.0000
  H   H354      1.0  0.30311  0.57583  0.55028  1.0000
  C   C431      1.0  0.27181  0.71829  0.66352  1.0000
  C   C432      1.0  0.01371  0.60468  0.96639  1.0000
  H   H355      1.0  0.22303  0.59126  0.78971  1.0000
  C   C433      1.0  0.15553  0.69543  0.70256  1.0000
  C   C434      1.0  0.20670  0.58408  0.78905  1.0000
  H   H356      1.0  0.09981  0.68730  0.84483  1.0000
  C   C435      1.0  0.13385  0.49402  0.78041  1.0000
  H   H357      1.0  0.14822  0.68002  0.69240  1.0000
  S   S56       1.0  0.14076  0.72560  0.95704  1.0000
  H   H358      1.0  0.26668  0.69859  0.56811  1.0000
  C   C436      1.0  0.21580  0.50659  0.53604  1.0000
  C   C437      1.0  0.17264  0.70438  0.86160  1.0000
  C   C438      1.0  0.21187  0.72451  0.52334  1.0000
  H   H359      1.0  0.02480  0.59865  0.95791  1.0000
  H   H360      1.0  0.28275  0.54088  0.56749  1.0000
  H   H361      1.0  0.15080  0.68673  0.75699  1.0000
  H   H362      1.0  0.11948  0.59327  0.69153  1.0000
  P   P14       1.0  0.25789  0.73082  0.80136  1.0000
  H   H363      1.0  0.28447  0.72801  0.74470  1.0000
  C   C439      1.0  0.10851  0.49559  0.82101  1.0000
  H   H364      1.0  0.26236  0.66562  0.53932  1.0000
  C   C440      1.0  0.25200  0.49848  0.55174  1.0000
  P   P15       1.0  0.16844  0.72396  0.80037  1.0000
  C   C441      1.0  0.20794  0.49432  0.92393  1.0000
  C   C442      1.0  0.25707  0.57304  0.51897  1.0000
  C   C443      1.0  0.18310  0.59126  0.50491  1.0000
  H   H365      1.0  0.15317  0.54012  0.54570  1.0000
  S   S57       1.0  0.04672  0.64258  0.97778  1.0000
  C   C444      1.0  0.17874  0.49155  0.49819  1.0000
  H   H366      1.0  0.28676  0.59655  0.51950  1.0000
  H   H367      1.0  0.28738  0.49133  0.49895  1.0000
  C   C445      1.0  0.23029  0.72351  0.74403  1.0000
  H   H368      1.0  0.11214  0.58363  0.50334  1.0000
  C   C446      1.0  0.18005  0.57060  0.50347  1.0000
  C   C447      1.0  0.17913  0.49125  0.53532  1.0000
  C   C448      1.0  0.00518  0.63238  0.98772  1.0000
  C   C449      1.0  0.98435  0.61959  0.98768  1.0000
  C   C450      1.0  0.24704  0.81248  0.07575  1.0000
  S   S58       1.0  0.29419  0.78657  0.29438  1.0000
  H   H369      1.0  0.29323  0.75562  0.19608  1.0000
  H   H370      1.0  0.20672  0.74617  0.11823  1.0000
  Fe  Fe30      1.0  0.29528  0.82949  0.00905  1.0000
  S   S59       1.0  0.27361  0.84580  0.00714  1.0000
  C   C451      1.0  0.17357  0.76074  0.14725  1.0000
  C   C452      1.0  0.30249  0.83522  0.11708  1.0000
  C   C453      1.0  0.16192  0.74131  0.26065  1.0000
  H   H371      1.0  0.29875  0.84552  0.10013  1.0000
  H   H372      1.0  0.20788  0.78369  0.25512  1.0000
  H   H373      1.0  0.28185  0.84934  0.46061  1.0000
  C   C454      1.0  0.11087  0.77142  0.15575  1.0000
  C   C455      1.0  0.28300  0.74305  0.14356  1.0000
  H   H374      1.0  0.30380  0.85390  0.40886  1.0000
  C   C456      1.0  0.31039  0.85678  0.43552  1.0000
  H   H375      1.0  0.15912  0.75625  0.13342  1.0000
  H   H376      1.0  0.26551  0.79639  0.09282  1.0000
  H   H377      1.0  0.22639  0.82481  0.05260  1.0000
  H   H378      1.0  0.22585  0.77654  0.19546  1.0000
  C   C457      1.0  0.09613  0.77548  0.13587  1.0000
  C   C458      1.0  0.27077  0.74283  0.11392  1.0000
  C   C459      1.0  0.19453  0.75588  0.19505  1.0000
  C   C460      1.0  0.21456  0.79224  0.04891  1.0000
  P   P16       1.0  0.19785  0.74150  0.23210  1.0000
  H   H379      1.0  0.25853  0.82716  0.08250  1.0000
  H   H380      1.0  0.27965  0.74178  0.32692  1.0000
  H   H381      1.0  0.22150  0.79568  0.14380  1.0000
  S   S60       1.0  0.30549  0.81461  0.05519  1.0000
  H   H382      1.0  0.28280  0.75681  0.43342  1.0000
  C   C461      1.0  0.08373  0.76101  0.11146  1.0000
  C   C462      1.0  0.26641  0.75139  0.43216  1.0000
  C   C463      1.0  0.25676  0.75781  0.40497  1.0000
  C   C464      1.0  0.25915  0.76654  0.14433  1.0000
  H   H383      1.0  0.22678  0.73830  0.00454  1.0000
  C   C465      1.0  0.27158  0.76691  0.17375  1.0000
  C   C466      1.0  0.23182  0.79042  0.29426  1.0000
  H   H384      1.0  0.28495  0.77030  0.05536  1.0000
  H   H385      1.0  0.09433  0.78985  0.13930  1.0000
  C   C467      1.0  0.29799  0.85384  0.46499  1.0000
  H   H386      1.0  0.26559  0.76778  0.38490  1.0000
  H   H387      1.0  0.27215  0.81767  0.48847  1.0000
  C   C468      1.0  0.22892  0.81114  0.05904  1.0000
  H   H388      1.0  0.23750  0.74096  0.21387  1.0000
  H   H389      1.0  0.24980  0.77546  0.14543  1.0000
  H   H390      1.0  0.27214  0.77640  0.19688  1.0000
  H   H391      1.0  0.07235  0.76419  0.09592  1.0000
  H   H392      1.0  0.16461  0.75520  0.24663  1.0000
  C   C469      1.0  0.25911  0.75495  0.11377  1.0000
  C   C470      1.0  0.30634  0.81903  0.10188  1.0000
  C   C471      1.0  0.30265  0.80029  0.46934  1.0000
  H   H393      1.0  0.12483  0.75006  0.16660  1.0000
  C   C472      1.0  0.21767  0.77780  0.26957  1.0000
  H   H394      1.0  0.22829  0.75632  0.38244  1.0000
  H   H395      1.0  0.18813  0.78571  0.11281  1.0000
  H   H396      1.0  0.25558  0.79286  0.33250  1.0000
  C   C473      1.0  0.23643  0.77588  0.07239  1.0000
  H   H397      1.0  0.28664  0.79154  0.46728  1.0000
  C   C474      1.0  0.25090  0.79495  0.08188  1.0000
  H   H398      1.0  0.20099  0.79134  0.03432  1.0000
  P   P17       1.0  0.24255  0.75360  0.07609  1.0000
  H   H399      1.0  0.25232  0.75733  0.32373  1.0000
  C   C475      1.0  0.25475  0.75304  0.03467  1.0000
  H   H400      1.0  0.13152  0.75038  0.08128  1.0000
  C   C476      1.0  0.20871  0.78300  0.15319  1.0000
  C   C477      1.0  0.18992  0.77735  0.13566  1.0000
  C   C478      1.0  0.11326  0.75293  0.15116  1.0000
  H   H401      1.0  0.20738  0.76023  0.04589  1.0000
  C   C479      1.0  0.23573  0.75131  0.40352  1.0000
  C   C480      1.0  0.21108  0.77219  0.18257  1.0000
  C   C481      1.0  0.24438  0.78305  0.31366  1.0000
  C   C482      1.0  0.21628  0.75779  0.26364  1.0000
  C   C483      1.0  0.22848  0.75030  0.28407  1.0000
  C   C484      1.0  0.27576  0.76290  0.03223  1.0000
  C   C485      1.0  0.13588  0.73766  0.07579  1.0000
  C   C486      1.0  0.08603  0.74248  0.10685  1.0000
  C   C487      1.0  0.21827  0.77464  0.05548  1.0000
  H   H402      1.0  0.23316  0.80596  0.29828  1.0000
  C   C488      1.0  0.28356  0.75524  0.17329  1.0000
  C   C489      1.0  0.24259  0.76299  0.30867  1.0000
  C   C490      1.0  0.17590  0.74984  0.17652  1.0000
  C   C491      1.0  0.30886  0.82512  0.17680  1.0000
  H   H403      1.0  0.12049  0.78267  0.17465  1.0000
  H   H404      1.0  0.13491  0.74191  0.28477  1.0000
  H   H405      1.0  0.15933  0.75472  0.04019  1.0000
  S   S61       1.0  0.30031  0.80084  0.39651  1.0000
  S   S62       1.0  0.31062  0.82977  0.22354  1.0000
  S   S63       1.0  0.29673  0.73585  0.26081  1.0000
  C   C492      1.0  0.15176  0.74027  0.05258  1.0000
  C   C493      1.0  0.24310  0.74504  0.00361  1.0000
  C   C494      1.0  0.10084  0.73830  0.12667  1.0000
  C   C495      1.0  0.28504  0.76432  0.99938  1.0000
  H   H406      1.0  0.30117  0.77267  0.99755  1.0000
  C   C496      1.0  0.31113  0.80576  0.12433  1.0000
  H   H407      1.0  0.30094  0.85090  0.16591  1.0000
  C   C497      1.0  0.30380  0.83825  0.15436  1.0000
  C   C498      1.0  0.22426  0.73804  0.42888  1.0000
  H   H408      1.0  0.16321  0.73671  0.18461  1.0000
  C   C499      1.0  0.25497  0.73800  0.45748  1.0000
  H   H409      1.0  0.29693  0.84270  0.77455  1.0000
  C   C500      1.0  0.25530  0.78506  0.55612  1.0000
  C   C501      1.0  0.21180  0.74412  0.52062  1.0000
  H   H410      1.0  0.21616  0.75242  0.49632  1.0000
  S   S64       1.0  0.30400  0.90122  0.96516  1.0000
  Fe  Fe31      1.0  0.29806  0.82882  0.92733  1.0000
  S   S65       1.0  0.27653  0.84502  0.92051  1.0000
  H   H411      1.0  0.17029  0.75317  0.85794  1.0000
  C   C502      1.0  0.24835  0.88802  0.51420  1.0000
  C   C503      1.0  0.30276  0.83009  0.82346  1.0000
  C   C504      1.0  0.31069  0.81682  0.83894  1.0000
  C   C505      1.0  0.25515  0.75651  0.70572  1.0000
  H   H412      1.0  0.23387  0.78151  0.79113  1.0000
  C   C506      1.0  0.26046  0.79884  0.58475  1.0000
  H   H413      1.0  0.22728  0.80112  0.84118  1.0000
  S   S66       1.0  0.30421  0.80029  0.62357  1.0000
  H   H414      1.0  0.30036  0.94017  0.95922  1.0000
  C   C507      1.0  0.13707  0.73801  0.80863  1.0000
  C   C508      1.0  0.30448  0.88031  0.59553  1.0000
  C   C509      1.0  0.16425  0.76596  0.95181  1.0000
  H   H415      1.0  0.26502  0.76906  0.69057  1.0000
  P   P18       1.0  0.29004  0.85315  0.53748  1.0000
  C   C510      1.0  0.26111  0.75315  0.73989  1.0000
  C   C511      1.0  0.23688  0.74330  0.69056  1.0000
  H   H416      1.0  0.21655  0.76166  0.96402  1.0000
  H   H417      1.0  0.19604  0.74985  0.60367  1.0000
  H   H418      1.0  0.27802  0.77275  0.82848  1.0000
  C   C512      1.0  0.22743  0.74909  0.87766  1.0000
  H   H419      1.0  0.25763  0.79340  0.61168  1.0000
  C   C513      1.0  0.25102  0.74579  0.83423  1.0000
  C   C514      1.0  0.20200  0.76290  0.96060  1.0000
  C   C515      1.0  0.27340  0.75608  0.96865  1.0000
  C   C516      1.0  0.25244  0.74641  0.97079  1.0000
  Fe  Fe32      1.0  0.30230  0.76839  0.62935  1.0000
  C   C517      1.0  0.19822  0.77835  0.85218  1.0000
  C   C518      1.0  0.18380  0.75937  0.84238  1.0000
  H   H420      1.0  0.19575  0.78665  0.87490  1.0000
  S   S67       1.0  0.31094  0.82460  0.71734  1.0000
  C   C519      1.0  0.18210  0.78339  0.95177  1.0000
  C   C520      1.0  0.18702  0.74851  0.81313  1.0000
  C   C521      1.0  0.20603  0.75318  0.54951  1.0000
  H   H421      1.0  0.17725  0.74363  0.67388  1.0000
  C   C522      1.0  0.25894  0.79205  0.52142  1.0000
  H   H422      1.0  0.29075  0.74629  0.85568  1.0000
  H   H423      1.0  0.14981  0.76753  0.94841  1.0000
  C   C523      1.0  0.27540  0.82658  0.54429  1.0000
  C   C524      1.0  0.26886  0.81275  0.51547  1.0000
  C   C525      1.0  0.28135  0.88569  0.51276  1.0000
  C   C526      1.0  0.16475  0.74664  0.95632  1.0000
  C   C527      1.0  0.27356  0.86662  0.52847  1.0000
  C   C528      1.0  0.25307  0.85840  0.53717  1.0000
  C   C529      1.0  0.24051  0.86909  0.52997  1.0000
  H   H424      1.0  0.23701  0.77756  0.90689  1.0000
  H   H425      1.0  0.11290  0.74891  0.81556  1.0000
  C   C530      1.0  0.20539  0.75642  0.79527  1.0000
  C   C531      1.0  0.20033  0.74276  0.58123  1.0000
  H   H426      1.0  0.21303  0.74290  0.89070  1.0000
  H   H427      1.0  0.29690  0.83900  0.84022  1.0000
  H   H428      1.0  0.23861  0.89628  0.50867  1.0000
  C   C532      1.0  0.21970  0.77546  0.80497  1.0000
  C   C533      1.0  0.30280  0.83216  0.78621  1.0000
  H   H429      1.0  0.24882  0.76897  0.56100  1.0000
  Fe  Fe33      1.0  0.29462  0.86586  0.96602  1.0000
  H   H430      1.0  0.29572  0.88858  0.58498  1.0000
  H   H431      1.0  0.18104  0.79802  0.94829  1.0000
  H   H432      1.0  0.17978  0.75072  0.73842  1.0000
  C   C534      1.0  0.21603  0.78651  0.83320  1.0000
  C   C535      1.0  0.31057  0.82087  0.76400  1.0000
  H   H433      1.0  0.20874  0.74785  0.77398  1.0000
  Fe  Fe34      1.0  0.25764  0.82369  0.96202  1.0000
  C   C536      1.0  0.27029  0.81952  0.57892  1.0000
  H   H434      1.0  0.26913  0.79242  0.87508  1.0000
  H   H435      1.0  0.24676  0.84381  0.54953  1.0000
  H   H436      1.0  0.29718  0.89235  0.50612  1.0000
  C   C537      1.0  0.25899  0.77705  0.86871  1.0000
  C   C538      1.0  0.26399  0.76578  0.84235  1.0000
  S   S68       1.0  0.27840  0.80687  0.96618  1.0000
  C   C539      1.0  0.29720  0.74439  0.83068  1.0000
  C   C540      1.0  0.24087  0.76864  0.88670  1.0000
  H   H437      1.0  0.27546  0.76345  0.75097  1.0000
  C   C541      1.0  0.20119  0.78224  0.95627  1.0000
  H   H438      1.0  0.22469  0.86269  0.53667  1.0000
  C   C542      1.0  0.18389  0.74518  0.96047  1.0000
  H   H439      1.0  0.27456  0.82982  0.60173  1.0000
  S   S69       1.0  0.22291  0.80568  0.95639  1.0000
  H   H440      1.0  0.14723  0.75217  0.79817  1.0000
  H   H441      1.0  0.20614  0.76837  0.54738  1.0000
  C   C543      1.0  0.30502  0.86307  0.57764  1.0000
  H   H442      1.0  0.23273  0.74549  0.66352  1.0000
  H   H443      1.0  0.30367  0.80048  0.52699  1.0000
  H   H444      1.0  0.28056  0.75788  0.94304  1.0000
  C   C544      1.0  0.30634  0.85653  0.49971  1.0000
  S   S70       1.0  0.27264  0.74495  0.60995  1.0000
  C   C545      1.0  0.30088  0.73712  0.51450  1.0000
  H   H445      1.0  0.25480  0.78134  0.49918  1.0000
  C   C546      1.0  0.26876  0.89633  0.50565  1.0000
  H   H446      1.0  0.27487  0.91103  0.49351  1.0000
  H   H447      1.0  0.24337  0.74054  0.94683  1.0000
  C   C547      1.0  0.23237  0.73777  0.85128  1.0000
  H   H448      1.0  0.31140  0.76853  0.53038  1.0000
  C   C548      1.0  0.28489  0.73715  0.80006  1.0000
  C   C549      1.0  0.11761  0.73619  0.81827  1.0000
  C   C550      1.0  0.24901  0.73624  0.75886  1.0000
  H   H449      1.0  0.58856  0.19141  0.29541  1.0000
  Fe  Fe35      1.0  0.50343  0.14254  0.31877  1.0000
  S   S71       1.0  0.47070  0.12268  0.32128  1.0000
  S   S72       1.0  0.51158  0.17390  0.34255  1.0000
  Fe  Fe36      1.0  0.51534  0.10737  0.29891  1.0000
  S   S73       1.0  0.48320  0.08493  0.30106  1.0000
  S   S74       1.0  0.53825  0.09310  0.28812  1.0000
  Fe  Fe37      1.0  0.47536  0.10802  0.27026  1.0000
  S   S75       1.0  0.45011  0.10124  0.22719  1.0000
  Fe  Fe38      1.0  0.48156  0.10168  0.35160  1.0000
  S   S76       1.0  0.46605  0.08711  0.40247  1.0000
  S   S77       1.0  0.50769  0.12980  0.26554  1.0000
  S   S78       1.0  0.51409  0.12212  0.35138  1.0000
  Fe  Fe39      1.0  0.41902  0.06266  0.01945  1.0000
  S   S79       1.0  0.38500  0.05024  0.02044  1.0000
  S   S80       1.0  0.44223  0.06805  0.06568  1.0000
  H   H450      1.0  0.47523  0.01107  0.02683  1.0000
  C   C551      1.0  0.54787  0.09393  0.16617  1.0000
  C   C552      1.0  0.45913  0.23030  0.43206  1.0000
  H   H451      1.0  0.46811  0.16008  0.37244  1.0000
  H   H452      1.0  0.60277  0.12311  0.20070  1.0000
  C   C553      1.0  0.52617  0.21821  0.43471  1.0000
  C   C554      1.0  0.44809  0.09117  0.18282  1.0000
  C   C555      1.0  0.42936  0.08515  0.16428  1.0000
  C   C556      1.0  0.42725  0.07827  0.12841  1.0000
  C   C557      1.0  0.44385  0.07700  0.11068  1.0000
  C   C558      1.0  0.46249  0.08267  0.12943  1.0000
  C   C559      1.0  0.46463  0.08973  0.16517  1.0000
  H   H453      1.0  0.41633  0.08554  0.17795  1.0000
  H   H454      1.0  0.41276  0.07380  0.11460  1.0000
  H   H455      1.0  0.47541  0.08163  0.11613  1.0000
  H   H456      1.0  0.47911  0.09414  0.17899  1.0000
  C   C560      1.0  0.47553  0.09593  0.44621  1.0000
  H   H457      1.0  0.41093  0.19996  0.05265  1.0000
  C   C561      1.0  0.63656  0.11581  0.19262  1.0000
  H   H458      1.0  0.50225  0.12028  0.42984  1.0000
  H   H459      1.0  0.58937  0.04490  0.02756  1.0000
  C   C562      1.0  0.60726  0.12379  0.28384  1.0000
  C   C563      1.0  0.59551  0.13575  0.28714  1.0000
  C   C564      1.0  0.57430  0.12669  0.28949  1.0000
  C   C565      1.0  0.56476  0.10560  0.28755  1.0000
  C   C566      1.0  0.57654  0.09375  0.28416  1.0000
  C   C567      1.0  0.59767  0.10276  0.28247  1.0000
  H   H460      1.0  0.60285  0.15203  0.28771  1.0000
  H   H461      1.0  0.56535  0.13598  0.29206  1.0000
  H   H462      1.0  0.56924  0.07746  0.28293  1.0000
  H   H463      1.0  0.60645  0.09338  0.27949  1.0000
  H   H464      1.0  0.56154  0.16842  0.47719  1.0000
  C   C568      1.0  0.62803  0.11431  0.40066  1.0000
  C   C569      1.0  0.52294  0.19578  0.28116  1.0000
  C   C570      1.0  0.51661  0.19534  0.31625  1.0000
  C   C571      1.0  0.51487  0.21264  0.33158  1.0000
  H   H465      1.0  0.53612  0.17513  0.43096  1.0000
  H   H466      1.0  0.54696  0.09715  0.37265  1.0000
  H   H467      1.0  0.52456  0.18255  0.26937  1.0000
  H   H468      1.0  0.51017  0.21245  0.35876  1.0000
  H   H469      1.0  0.54086  0.11701  0.19422  1.0000
  C   C572      1.0  0.46040  0.18537  0.03244  1.0000
  H   H470      1.0  0.44577  0.14677  0.31023  1.0000
  C   C573      1.0  0.42576  0.99617  0.04970  1.0000
  H   H471      1.0  0.40591  0.14480  0.40162  1.0000
  C   C574      1.0  0.46913  0.20364  0.08921  1.0000
  C   C575      1.0  0.46847  0.18731  0.06713  1.0000
  P   P19       1.0  0.47991  0.20696  0.13370  1.0000
  C   C576      1.0  0.48057  0.18326  0.14893  1.0000
  P   P20       1.0  0.60205  0.08644  0.16192  1.0000
  H   H472      1.0  0.51352  0.21695  0.18506  1.0000
  H   H473      1.0  0.56959  0.04244  0.26189  1.0000
  C   C577      1.0  0.46450  0.16989  0.16805  1.0000
  C   C578      1.0  0.46537  0.15180  0.18038  1.0000
  C   C579      1.0  0.48216  0.14684  0.17357  1.0000
  C   C580      1.0  0.49804  0.15985  0.15397  1.0000
  C   C581      1.0  0.49724  0.17796  0.14154  1.0000
  C   C582      1.0  0.46416  0.21487  0.16276  1.0000
  C   C583      1.0  0.41712  0.99464  0.01549  1.0000
  C   C584      1.0  0.60111  0.06952  0.19783  1.0000
  H   H474      1.0  0.45988  0.17284  0.01532  1.0000
  H   H475      1.0  0.45384  0.00243  0.07951  1.0000
  P   P21       1.0  0.61542  0.16568  0.39856  1.0000
  H   H476      1.0  0.50967  0.18783  0.12630  1.0000
  H   H477      1.0  0.47406  0.17603  0.07652  1.0000
  H   H478      1.0  0.48873  0.23113  0.41948  1.0000
  C   C585      1.0  0.45340  0.16197  0.30089  1.0000
  H   H479      1.0  0.45141  0.17348  0.17386  1.0000
  H   H480      1.0  0.45307  0.14152  0.19539  1.0000
  H   H481      1.0  0.48282  0.13288  0.18353  1.0000
  H   H482      1.0  0.51100  0.15589  0.14857  1.0000
  C   C586      1.0  0.54056  0.09028  0.46222  1.0000
  H   H483      1.0  0.42792  0.22547  0.44042  1.0000
  H   H484      1.0  0.44637  0.19797  0.99304  1.0000
  H   H485      1.0  0.61056  0.08453  0.37964  1.0000
  H   H486      1.0  0.53859  0.20461  0.39453  1.0000
  H   H487      1.0  0.57575  0.07953  0.45756  1.0000
  C   C587      1.0  0.37931  0.18314  0.06017  1.0000
  C   C588      1.0  0.58517  0.18374  0.32055  1.0000
  C   C589      1.0  0.44335  0.20885  0.15510  1.0000
  C   C590      1.0  0.42073  0.12582  0.42211  1.0000
  C   C591      1.0  0.41066  0.17019  0.33779  1.0000
  C   C592      1.0  0.59604  0.17024  0.37257  1.0000
  C   C593      1.0  0.60043  0.18034  0.34015  1.0000
  H   H488      1.0  0.51325  0.22810  0.47870  1.0000
  C   C594      1.0  0.53952  0.09177  0.39750  1.0000
  C   C595      1.0  0.61289  0.13954  0.39445  1.0000
  C   C596      1.0  0.63157  0.99751  0.15349  1.0000
  H   H489      1.0  0.47600  0.20083  0.38000  1.0000
  C   C597      1.0  0.61103  0.09978  0.38415  1.0000
  C   C598      1.0  0.59483  0.10499  0.37316  1.0000
  C   C599      1.0  0.59579  0.12484  0.37797  1.0000
  C   C600      1.0  0.51812  0.21636  0.46872  1.0000
  C   C601      1.0  0.57257  0.12230  0.19822  1.0000
  H   H490      1.0  0.56603  0.10694  0.42996  1.0000
  C   C602      1.0  0.51901  0.07952  0.39690  1.0000
  H   H491      1.0  0.48027  0.21601  0.26525  1.0000
  C   C603      1.0  0.59920  0.04229  0.25228  1.0000
  C   C604      1.0  0.61304  0.17266  0.44413  1.0000
  C   C605      1.0  0.60960  0.19049  0.45159  1.0000
  C   C606      1.0  0.52737  0.21353  0.26148  1.0000
  H   H492      1.0  0.57238  0.15547  0.40959  1.0000
  C   C607      1.0  0.59145  0.05258  0.05327  1.0000
  C   C608      1.0  0.43118  0.21546  0.17673  1.0000
  C   C609      1.0  0.53143  0.18679  0.44180  1.0000
  C   C610      1.0  0.62494  0.01867  0.01969  1.0000
  H   H493      1.0  0.54568  0.16184  0.37481  1.0000
  H   H494      1.0  0.61551  0.18547  0.32971  1.0000
  C   C611      1.0  0.60680  0.09193  0.47506  1.0000
  C   C612      1.0  0.41974  0.14186  0.40208  1.0000
  C   C613      1.0  0.61642  0.04994  0.23174  1.0000
  H   H495      1.0  0.58177  0.09373  0.35994  1.0000
  H   H496      1.0  0.58337  0.12863  0.36793  1.0000
  C   C614      1.0  0.58287  0.04814  0.24564  1.0000
  C   C615      1.0  0.45561  0.13455  0.40600  1.0000
  H   H497      1.0  0.40129  0.13755  0.33423  1.0000
  C   C616      1.0  0.58769  0.11502  0.18995  1.0000
  H   H498      1.0  0.37460  0.19427  0.04749  1.0000
  H   H499      1.0  0.60276  0.03199  0.07910  1.0000
  H   H500      1.0  0.62823  0.10770  0.10312  1.0000
  H   H501      1.0  0.58132  0.07573  0.03465  1.0000
  C   C617      1.0  0.50922  0.07266  0.42871  1.0000
  C   C618      1.0  0.63871  0.02650  0.04803  1.0000
  C   C619      1.0  0.34764  0.08621  0.13129  1.0000
  C   C620      1.0  0.34538  0.07385  0.10106  1.0000
  C   C621      1.0  0.35965  0.07986  0.07436  1.0000
  C   C622      1.0  0.37627  0.09811  0.07791  1.0000
  C   C623      1.0  0.37875  0.11058  0.10825  1.0000
  C   C624      1.0  0.36415  0.10458  0.13478  1.0000
  P   P22       1.0  0.39928  0.13497  0.11156  1.0000
  C   C625      1.0  0.40550  0.14128  0.15819  1.0000
  C   C626      1.0  0.42065  0.13333  0.08827  1.0000
  C   C627      1.0  0.43561  0.12841  0.10610  1.0000
  C   C628      1.0  0.45124  0.12585  0.08722  1.0000
  C   C629      1.0  0.45188  0.12780  0.05033  1.0000
  C   C630      1.0  0.43716  0.13282  0.03238  1.0000
  C   C631      1.0  0.42170  0.13571  0.05126  1.0000
  C   C632      1.0  0.40744  0.16029  0.17233  1.0000
  C   C633      1.0  0.41199  0.16482  0.20858  1.0000
  C   C634      1.0  0.41452  0.15040  0.23093  1.0000
  C   C635      1.0  0.41235  0.13136  0.21717  1.0000
  C   C636      1.0  0.40764  0.12677  0.18105  1.0000
  C   C637      1.0  0.39141  0.15372  0.09112  1.0000
  C   C638      1.0  0.37082  0.15066  0.08798  1.0000
  C   C639      1.0  0.36482  0.16533  0.07256  1.0000
  H   H502      1.0  0.63741  0.16035  0.33779  1.0000
  H   H503      1.0  0.33644  0.08165  0.15182  1.0000
  C   C640      1.0  0.40589  0.17171  0.07864  1.0000
  H   H504      1.0  0.33246  0.05976  0.09802  1.0000
  H   H505      1.0  0.35769  0.07059  0.05042  1.0000
  H   H506      1.0  0.38692  0.10248  0.05656  1.0000
  H   H507      1.0  0.36535  0.11418  0.15796  1.0000
  H   H508      1.0  0.43505  0.12588  0.13430  1.0000
  H   H509      1.0  0.46241  0.12153  0.10108  1.0000
  H   H510      1.0  0.46347  0.12487  0.03559  1.0000
  H   H511      1.0  0.34288  0.01379  0.07079  1.0000
  H   H512      1.0  0.41015  0.13913  0.03680  1.0000
  H   H513      1.0  0.40533  0.17158  0.15558  1.0000
  H   H514      1.0  0.41361  0.17952  0.21945  1.0000
  H   H515      1.0  0.41811  0.15397  0.25890  1.0000
  H   H516      1.0  0.41449  0.12017  0.23437  1.0000
  H   H517      1.0  0.40567  0.11187  0.17083  1.0000
  H   H518      1.0  0.35931  0.13690  0.09702  1.0000
  H   H519      1.0  0.34892  0.16277  0.06961  1.0000
  H   H520      1.0  0.42184  0.17434  0.08042  1.0000
  H   H521      1.0  0.52718  0.23108  0.41866  1.0000
  H   H522      1.0  0.48467  0.18681  0.23523  1.0000
  C   C641      1.0  0.47493  0.18440  0.25787  1.0000
  C   C642      1.0  0.45467  0.15053  0.38587  1.0000
  C   C643      1.0  0.47247  0.20087  0.27482  1.0000
  C   C644      1.0  0.37843  0.14730  0.31281  1.0000
  H   H523      1.0  0.58667  0.09370  0.09281  1.0000
  H   H524      1.0  0.36803  0.13205  0.30638  1.0000
  C   C645      1.0  0.59899  0.04530  0.08229  1.0000
  C   C646      1.0  0.58654  0.08992  0.47617  1.0000
  C   C647      1.0  0.35472  0.99075  0.05913  1.0000
  H   H525      1.0  0.55365  0.17973  0.31798  1.0000
  C   C648      1.0  0.56101  0.16705  0.36534  1.0000
  C   C649      1.0  0.49364  0.11249  0.45218  1.0000
  H   H526      1.0  0.59868  0.03210  0.27369  1.0000
  H   H527      1.0  0.38272  0.19629  0.30547  1.0000
  H   H528      1.0  0.57622  0.13584  0.21472  1.0000
  H   H529      1.0  0.60826  0.04966  0.13714  1.0000
  C   C650      1.0  0.62897  0.13407  0.40587  1.0000
  C   C651      1.0  0.58309  0.09723  0.16921  1.0000
  H   H530      1.0  0.63118  0.06969  0.18965  1.0000
  C   C652      1.0  0.58374  0.06161  0.21846  1.0000
  C   C653      1.0  0.45898  0.00641  0.02368  1.0000
  C   C654      1.0  0.53272  0.20338  0.42119  1.0000
  C   C655      1.0  0.39982  0.18632  0.06313  1.0000
  C   C656      1.0  0.61507  0.99774  0.01513  1.0000
  C   C657      1.0  0.46188  0.21803  0.07596  1.0000
  C   C658      1.0  0.47248  0.22726  0.19286  1.0000
  S   S81       1.0  0.63377  0.13548  0.28019  1.0000
  C   C659      1.0  0.62657  0.10673  0.16075  1.0000
  H   H531      1.0  0.46746  0.15214  0.25810  1.0000
  H   H532      1.0  0.41533  0.21148  0.16988  1.0000
  C   C660      1.0  0.46065  0.19797  0.30502  1.0000
  C   C661      1.0  0.51988  0.07800  0.46122  1.0000
  H   H533      1.0  0.45896  0.21096  0.31778  1.0000
  C   C662      1.0  0.51889  0.23016  0.31177  1.0000
  C   C663      1.0  0.46534  0.20614  0.39280  1.0000
  C   C664      1.0  0.55024  0.09719  0.42998  1.0000
  C   C665      1.0  0.44680  0.00177  0.05356  1.0000
  C   C666      1.0  0.45370  0.21590  0.04154  1.0000
  C   C667      1.0  0.58985  0.08001  0.09035  1.0000
  C   C668      1.0  0.52365  0.18503  0.47601  1.0000
  H   H534      1.0  0.43741  0.13398  0.00367  1.0000
  H   H535      1.0  0.51062  0.07556  0.37178  1.0000
  H   H536      1.0  0.35855  0.16132  0.29216  1.0000
  C   C669      1.0  0.39721  0.15047  0.32902  1.0000
  H   H537      1.0  0.51172  0.07271  0.48529  1.0000
  C   C670      1.0  0.38670  0.18347  0.31225  1.0000
  H   H538      1.0  0.53253  0.21391  0.23460  1.0000
  H   H539      1.0  0.43654  0.19937  0.13205  1.0000
  C   C671      1.0  0.59734  0.07275  0.11971  1.0000
  H   H540      1.0  0.55888  0.07247  0.14287  1.0000
  C   C672      1.0  0.40549  0.18669  0.32840  1.0000
  H   H541      1.0  0.43918  0.02949  0.10527  1.0000
  C   C673      1.0  0.61431  0.16045  0.47230  1.0000
  C   C674      1.0  0.37312  0.16379  0.30465  1.0000
  C   C675      1.0  0.45288  0.19958  0.01973  1.0000
  C   C676      1.0  0.44448  0.19621  0.38648  1.0000
  H   H542      1.0  0.49316  0.06357  0.42820  1.0000
  H   H543      1.0  0.62915  0.04558  0.23734  1.0000
  C   C677      1.0  0.52499  0.23063  0.27657  1.0000
  C   C678      1.0  0.55265  0.11171  0.18661  1.0000
  H   H544      1.0  0.53235  0.08554  0.15775  1.0000
  H   H545      1.0  0.64246  0.14515  0.41820  1.0000
  H   H546      1.0  0.46948  0.13164  0.40743  1.0000
  H   H547      1.0  0.63020  0.11005  0.21802  1.0000
  P   P23       1.0  0.43539  0.17451  0.35667  1.0000
  C   C679      1.0  0.58689  0.06993  0.05728  1.0000
  C   C680      1.0  0.43858  0.12201  0.42368  1.0000
  C   C681      1.0  0.45147  0.17854  0.31881  1.0000
  C   C682      1.0  0.43652  0.15391  0.38285  1.0000
  C   C683      1.0  0.61754  0.06369  0.20491  1.0000
  C   C684      1.0  0.56299  0.08666  0.15761  1.0000
  C   C685      1.0  0.42371  0.00007  0.12823  1.0000
  H   H548      1.0  0.41603  0.20207  0.33328  1.0000
  C   C686      1.0  0.43096  0.20286  0.40463  1.0000
  C   C687      1.0  0.43831  0.22002  0.42705  1.0000
  H   H549      1.0  0.48497  0.16156  0.48541  1.0000
  C   C688      1.0  0.60201  0.05537  0.11536  1.0000
  C   C689      1.0  0.46536  0.16494  0.27085  1.0000
  H   H550      1.0  0.57091  0.06597  0.21416  1.0000
  C   C690      1.0  0.63527  0.11451  0.12821  1.0000
  C   C691      1.0  0.57617  0.16353  0.38493  1.0000
  H   H551      1.0  0.41480  0.19492  0.40145  1.0000
  C   C692      1.0  0.56549  0.17714  0.33317  1.0000
  H   H552      1.0  0.63682  0.06279  0.47123  1.0000
  H   H553      1.0  0.45059  0.07314  0.47148  1.0000
  C   C693      1.0  0.42063  0.98908  0.15976  1.0000
  P   P24       1.0  0.40970  0.98883  0.08773  1.0000
  H   H554      1.0  0.64062  0.11029  0.40906  1.0000
  C   C694      1.0  0.43956  0.22766  0.20670  1.0000
  S   S82       1.0  0.64069  0.08315  0.29666  1.0000
  C   C695      1.0  0.63305  0.99233  0.06709  1.0000
  H   H555      1.0  0.61660  0.14645  0.46749  1.0000
  C   C696      1.0  0.51862  0.22687  0.16275  1.0000
  C   C697      1.0  0.38934  0.01539  0.09737  1.0000
  C   C698      1.0  0.38861  0.99694  0.08231  1.0000
  H   H556      1.0  0.43032  0.23327  0.22307  1.0000
  C   C699      1.0  0.46460  0.08599  0.47576  1.0000
  C   C700      1.0  0.63602  0.00808  0.18612  1.0000
  H   H557      1.0  0.43929  0.10934  0.43854  1.0000
  H   H558      1.0  0.45682  0.04544  0.16121  1.0000
  C   C701      1.0  0.43689  0.02050  0.12903  1.0000
  H   H559      1.0  0.40765  0.11628  0.43637  1.0000
  H   H560      1.0  0.61157  0.08337  0.45554  1.0000
  H   H561      1.0  0.60840  0.20005  0.43018  1.0000
  C   C702      1.0  0.47261  0.22317  0.41540  1.0000
  H   H562      1.0  0.55989  0.13417  0.46183  1.0000
  C   C703      1.0  0.44373  0.01860  0.19191  1.0000
  H   H563      1.0  0.62672  0.01611  0.19532  1.0000
  H   H564      1.0  0.40265  0.02547  0.11157  1.0000
  H   H565      1.0  0.48845  0.23246  0.19945  1.0000
  C   C704      1.0  0.35549  0.00899  0.07450  1.0000
  H   H566      1.0  0.37359  0.03567  0.10487  1.0000
  C   C705      1.0  0.37277  0.02128  0.09366  1.0000
  C   C706      1.0  0.43064  0.99831  0.19142  1.0000
  H   H567      1.0  0.61863  0.99731  0.13776  1.0000
  H   H568      1.0  0.62224  0.02884  0.00090  1.0000
  H   H569      1.0  0.45132  0.02585  0.21652  1.0000
  C   C707      1.0  0.44686  0.02965  0.16072  1.0000
  C   C708      1.0  0.64038  0.18040  0.38285  1.0000
  C   C709      1.0  0.45024  0.00509  0.98974  1.0000
  C   C710      1.0  0.50534  0.22578  0.13413  1.0000
  H   H570      1.0  0.46247  0.23097  0.09222  1.0000
  H   H571      1.0  0.60468  0.99165  0.99276  1.0000
  C   C711      1.0  0.46016  0.23352  0.21471  1.0000
  C   C712      1.0  0.64274  0.01342  0.07160  1.0000
  H   H572      1.0  0.44789  0.22695  0.03204  1.0000
  H   H573      1.0  0.42811  0.98982  0.21573  1.0000
  H   H574      1.0  0.40095  0.98997  0.01174  1.0000
  C   C713      1.0  0.50080  0.11883  0.48720  1.0000
  S   S83       1.0  0.39230  0.23558  0.02000  1.0000
  C   C714      1.0  0.64411  0.98779  0.14081  1.0000
  H   H575      1.0  0.35455  0.12714  0.99813  1.0000
  H   H576      1.0  0.36802  0.16437  0.98978  1.0000
  C   C715      1.0  0.60773  0.19612  0.48676  1.0000
  S   S84       1.0  0.60583  0.10333  0.62157  1.0000
  Fe  Fe40      1.0  0.49079  0.11270  0.61813  1.0000
  S   S85       1.0  0.51096  0.14220  0.64385  1.0000
  S   S86       1.0  0.50021  0.11748  0.56001  1.0000
  Fe  Fe41      1.0  0.47137  0.09731  0.69151  1.0000
  S   S87       1.0  0.49071  0.12593  0.72009  1.0000
  S   S88       1.0  0.44596  0.07440  0.72301  1.0000
  Fe  Fe42      1.0  0.48387  0.14135  0.67307  1.0000
  S   S89       1.0  0.47204  0.16626  0.67793  1.0000
  Fe  Fe43      1.0  0.51589  0.12364  0.68762  1.0000
  S   S90       1.0  0.54711  0.13226  0.71212  1.0000
  S   S91       1.0  0.46307  0.11307  0.64550  1.0000
  S   S92       1.0  0.49733  0.09383  0.66128  1.0000
  C   C716      1.0  0.41365  0.01777  0.74430  1.0000
  C   C717      1.0  0.39831  0.01464  0.71872  1.0000
  Fe  Fe44      1.0  0.41850  0.06537  0.93660  1.0000
  S   S93       1.0  0.38450  0.05283  0.93313  1.0000
  S   S94       1.0  0.44124  0.07946  0.89294  1.0000
  H   H577      1.0  0.58715  0.16878  0.66272  1.0000
  H   H578      1.0  0.64148  0.16620  0.71414  1.0000
  C   C718      1.0  0.39876  0.12463  0.86003  1.0000
  C   C719      1.0  0.45530  0.19943  0.75648  1.0000
  C   C720      1.0  0.52427  0.08001  0.55326  1.0000
  H   H579      1.0  0.41188  0.10335  0.84129  1.0000
  C   C721      1.0  0.41946  0.12142  0.74578  1.0000
  C   C722      1.0  0.40425  0.19164  0.79966  1.0000
  P   P25       1.0  0.38211  0.99217  0.83303  1.0000
  H   H580      1.0  0.50766  0.17192  0.85010  1.0000
  C   C723      1.0  0.47945  0.15831  0.51208  1.0000
  P   P26       1.0  0.62029  0.19476  0.71080  1.0000
  H   H581      1.0  0.49863  0.20437  0.73888  1.0000
  C   C724      1.0  0.44428  0.07660  0.77016  1.0000
  C   C725      1.0  0.46080  0.08891  0.79113  1.0000
  C   C726      1.0  0.45940  0.08963  0.82846  1.0000
  C   C727      1.0  0.44151  0.07810  0.84555  1.0000
  C   C728      1.0  0.42480  0.06602  0.82465  1.0000
  C   C729      1.0  0.42621  0.06527  0.78719  1.0000
  H   H582      1.0  0.47487  0.09750  0.77871  1.0000
  H   H583      1.0  0.47245  0.09900  0.84424  1.0000
  H   H584      1.0  0.41087  0.05721  0.83729  1.0000
  H   H585      1.0  0.41327  0.05584  0.77130  1.0000
  H   H586      1.0  0.46476  0.13098  0.92904  1.0000
  C   C730      1.0  0.36949  0.13451  0.98766  1.0000
  C   C731      1.0  0.57927  0.18441  0.72337  1.0000
  H   H587      1.0  0.63989  0.22612  0.65934  1.0000
  C   C732      1.0  0.52958  0.18662  0.58503  1.0000
  C   C733      1.0  0.58985  0.11116  0.64798  1.0000
  C   C734      1.0  0.59645  0.12164  0.68040  1.0000
  C   C735      1.0  0.58320  0.12796  0.70021  1.0000
  C   C736      1.0  0.56343  0.12395  0.68748  1.0000
  C   C737      1.0  0.55696  0.11364  0.65494  1.0000
  C   C738      1.0  0.57010  0.10716  0.63543  1.0000
  H   H588      1.0  0.61169  0.12483  0.69020  1.0000
  H   H589      1.0  0.58827  0.13590  0.72542  1.0000
  H   H590      1.0  0.54180  0.11055  0.64483  1.0000
  H   H591      1.0  0.56497  0.09905  0.61046  1.0000
  C   C739      1.0  0.40920  0.17453  0.80396  1.0000
  C   C740      1.0  0.52169  0.21738  0.66548  1.0000
  C   C741      1.0  0.50922  0.19679  0.66791  1.0000
  C   C742      1.0  0.48830  0.19124  0.67089  1.0000
  C   C743      1.0  0.48001  0.20614  0.67093  1.0000
  H   H592      1.0  0.33484  0.00543  0.91572  1.0000
  H   H593      1.0  0.45903  0.01606  0.90249  1.0000
  H   H594      1.0  0.51576  0.18533  0.66810  1.0000
  H   H595      1.0  0.46388  0.20189  0.67266  1.0000
  H   H596      1.0  0.50964  0.17545  0.73622  1.0000
  C   C744      1.0  0.56165  0.20759  0.72162  1.0000
  H   H597      1.0  0.49662  0.20071  0.85309  1.0000
  C   C745      1.0  0.56142  0.18809  0.72618  1.0000
  H   H598      1.0  0.60394  0.18580  0.78283  1.0000
  C   C746      1.0  0.38257  0.12655  0.87848  1.0000
  C   C747      1.0  0.36764  0.02371  0.83259  1.0000
  H   H599      1.0  0.48487  0.16707  0.94471  1.0000
  C   C748      1.0  0.56077  0.21041  0.61156  1.0000
  H   H600      1.0  0.61144  0.23218  0.70505  1.0000
  C   C749      1.0  0.54290  0.22140  0.56610  1.0000
  H   H601      1.0  0.61337  0.15665  0.52889  1.0000
  H   H602      1.0  0.57320  0.21377  0.63066  1.0000
  H   H603      1.0  0.55726  0.17756  0.53955  1.0000
  C   C750      1.0  0.40522  0.99878  0.85911  1.0000
  C   C751      1.0  0.36727  0.00612  0.84965  1.0000
  C   C752      1.0  0.61251  0.17640  0.77720  1.0000
  C   C753      1.0  0.43954  0.19468  0.73120  1.0000
  H   H604      1.0  0.51988  0.04726  0.62046  1.0000
  H   H605      1.0  0.61949  0.14863  0.58636  1.0000
  C   C754      1.0  0.61364  0.16280  0.80286  1.0000
  H   H606      1.0  0.43076  0.17900  0.72417  1.0000
  H   H607      1.0  0.37715  0.02951  0.81001  1.0000
  C   C755      1.0  0.46106  0.14296  0.91700  1.0000
  C   C756      1.0  0.47238  0.16324  0.92565  1.0000
  C   C757      1.0  0.46768  0.17852  0.90940  1.0000
  C   C758      1.0  0.45166  0.17354  0.88456  1.0000
  C   C759      1.0  0.43979  0.15317  0.87653  1.0000
  C   C760      1.0  0.44490  0.13794  0.89251  1.0000
  P   P27       1.0  0.41914  0.14655  0.84420  1.0000
  C   C761      1.0  0.40097  0.20188  0.82942  1.0000
  C   C762      1.0  0.61244  0.16616  0.50738  1.0000
  S   S95       1.0  0.40686  0.19224  0.96233  1.0000
  H   H608      1.0  0.61520  0.99858  0.80732  1.0000
  C   C763      1.0  0.42733  0.13983  0.80248  1.0000
  C   C764      1.0  0.44782  0.14780  0.79384  1.0000
  C   C765      1.0  0.45398  0.14271  0.76126  1.0000
  C   C766      1.0  0.43988  0.12940  0.73741  1.0000
  H   H609      1.0  0.40609  0.02829  0.87628  1.0000
  C   C767      1.0  0.43320  0.02395  0.89179  1.0000
  H   H610      1.0  0.47645  0.19426  0.91594  1.0000
  H   H611      1.0  0.44857  0.18562  0.87181  1.0000
  H   H612      1.0  0.40210  0.02074  0.69238  1.0000
  C   C768      1.0  0.41123  0.16772  0.83816  1.0000
  C   C769      1.0  0.49983  0.19578  0.82746  1.0000
  H   H613      1.0  0.40952  0.17330  0.89444  1.0000
  H   H614      1.0  0.45904  0.15803  0.81199  1.0000
  H   H615      1.0  0.46971  0.14912  0.75430  1.0000
  H   H616      1.0  0.44481  0.12530  0.71236  1.0000
  H   H617      1.0  0.41160  0.16682  0.78054  1.0000
  H   H618      1.0  0.45469  0.22598  0.50787  1.0000
  C   C770      1.0  0.62469  0.15055  0.79641  1.0000
  H   H619      1.0  0.35557  0.11109  0.90759  1.0000
  C   C771      1.0  0.50605  0.17932  0.82590  1.0000
  C   C772      1.0  0.35574  0.03417  0.84465  1.0000
  H   H620      1.0  0.35495  0.98663  0.89420  1.0000
  S   S96       1.0  0.37021  0.09595  0.98387  1.0000
  C   C773      1.0  0.54270  0.08091  0.53933  1.0000
  C   C774      1.0  0.58037  0.10088  0.50170  1.0000
  H   H621      1.0  0.38564  0.07367  0.86565  1.0000
  C   C775      1.0  0.35531  0.99970  0.87973  1.0000
  C   C776      1.0  0.34370  0.01038  0.89208  1.0000
  P   P28       1.0  0.55430  0.09836  0.50429  1.0000
  C   C777      1.0  0.40786  0.15382  0.96048  1.0000
  H   H622      1.0  0.50197  0.06765  0.59318  1.0000
  H   H623      1.0  0.35760  0.98940  0.76851  1.0000
  H   H624      1.0  0.60767  0.18822  0.54196  1.0000
  H   H625      1.0  0.39726  0.21521  0.82612  1.0000
  H   H626      1.0  0.55139  0.15197  0.58675  1.0000
  S   S97       1.0  0.41957  0.04152  0.97450  1.0000
  C   C778      1.0  0.37716  0.15570  0.98317  1.0000
  C   C779      1.0  0.34377  0.02751  0.87440  1.0000
  H   H627      1.0  0.52276  0.17211  0.49177  1.0000
  C   C780      1.0  0.39645  0.16556  0.96962  1.0000
  H   H628      1.0  0.58976  0.12012  0.54899  1.0000
  Fe  Fe45      1.0  0.38534  0.02972  0.97372  1.0000
  C   C781      1.0  0.48994  0.10886  0.51673  1.0000
  C   C782      1.0  0.61988  0.18277  0.66795  1.0000
  C   C783      1.0  0.55453  0.12324  0.51555  1.0000
  H   H629      1.0  0.54741  0.17568  0.73175  1.0000
  C   C784      1.0  0.64224  0.21800  0.71406  1.0000
  H   H630      1.0  0.43658  0.12211  0.88611  1.0000
  H   H631      1.0  0.48388  0.17885  0.59582  1.0000
  H   H632      1.0  0.38163  0.14113  0.88334  1.0000
  C   C785      1.0  0.36758  0.10945  0.89214  1.0000
  C   C786      1.0  0.50108  0.19775  0.76334  1.0000
  C   C787      1.0  0.47760  0.21367  0.51869  1.0000
  C   C788      1.0  0.49914  0.22793  0.57053  1.0000
  H   H633      1.0  0.46325  0.08456  0.53331  1.0000
  C   C789      1.0  0.40259  0.19499  0.86348  1.0000
  C   C790      1.0  0.46726  0.22663  0.52500  1.0000
  C   C791      1.0  0.51601  0.06785  0.58225  1.0000
  H   H634      1.0  0.40861  0.11102  0.72724  1.0000
  C   C792      1.0  0.62091  0.10467  0.49957  1.0000
  C   C793      1.0  0.50983  0.17213  0.79308  1.0000
  C   C794      1.0  0.62216  0.17761  0.74457  1.0000
  C   C795      1.0  0.40892  0.01039  0.77860  1.0000
  C   C796      1.0  0.55358  0.14823  0.55951  1.0000
  H   H635      1.0  0.42275  0.16114  0.94974  1.0000
  C   C797      1.0  0.54601  0.19090  0.60891  1.0000
  H   H636      1.0  0.57882  0.16920  0.72704  1.0000
  C   C798      1.0  0.55671  0.16252  0.53294  1.0000
  C   C799      1.0  0.55803  0.13784  0.48914  1.0000
  C   C800      1.0  0.43561  0.21014  0.71407  1.0000
  C   C801      1.0  0.41388  0.01785  0.87606  1.0000
  C   C802      1.0  0.52767  0.20198  0.56403  1.0000
  H   H637      1.0  0.42115  0.01366  0.79802  1.0000
  C   C803      1.0  0.60142  0.15872  0.62123  1.0000
  C   C804      1.0  0.46763  0.21969  0.76415  1.0000
  C   C805      1.0  0.48711  0.17249  0.54023  1.0000
  C   C806      1.0  0.43514  0.99182  0.87504  1.0000
  C   C807      1.0  0.46338  0.14920  0.57985  1.0000
  H   H638      1.0  0.58720  0.14835  0.60989  1.0000
  H   H639      1.0  0.33479  0.03577  0.88414  1.0000
  C   C808      1.0  0.41313  0.12678  0.77804  1.0000
  C   C809      1.0  0.38869  0.99973  0.78764  1.0000
  C   C810      1.0  0.61962  0.15903  0.60765  1.0000
  C   C811      1.0  0.40787  0.17812  0.86784  1.0000
  C   C812      1.0  0.49378  0.21440  0.54125  1.0000
  H   H640      1.0  0.45901  0.12832  0.49678  1.0000
  H   H641      1.0  0.45810  0.18725  0.76937  1.0000
  C   C813      1.0  0.50733  0.18136  0.76181  1.0000
  C   C814      1.0  0.47172  0.09242  0.51086  1.0000
  C   C815      1.0  0.54429  0.05690  0.58356  1.0000
  C   C816      1.0  0.49742  0.20525  0.79609  1.0000
  C   C817      1.0  0.49245  0.22655  0.66944  1.0000
  P   P29       1.0  0.50643  0.19707  0.53350  1.0000
  C   C818      1.0  0.63812  0.18362  0.65307  1.0000
  H   H642      1.0  0.45707  0.14583  0.60607  1.0000
  H   H643      1.0  0.40306  0.19705  0.77325  1.0000
  C   C819      1.0  0.38450  0.08832  0.86878  1.0000
  H   H644      1.0  0.51434  0.15918  0.79176  1.0000
  H   H645      1.0  0.53784  0.22178  0.66322  1.0000
  H   H646      1.0  0.55230  0.04827  0.59577  1.0000
  C   C820      1.0  0.55257  0.06905  0.55452  1.0000
  H   H647      1.0  0.64277  0.98833  0.96532  1.0000
  C   C821      1.0  0.46433  0.13948  0.51821  1.0000
  H   H648      1.0  0.39720  0.12063  0.78398  1.0000
  H   H649      1.0  0.51485  0.13158  0.49148  1.0000
  H   H650      1.0  0.39999  0.20284  0.88669  1.0000
  C   C822      1.0  0.36862  0.09038  0.88757  1.0000
  H   H651      1.0  0.35742  0.07733  0.89948  1.0000
  C   C823      1.0  0.45645  0.13483  0.55215  1.0000
  H   H652      1.0  0.54779  0.21044  0.72395  1.0000
  C   C824      1.0  0.39946  0.10531  0.85505  1.0000
  H   H653      1.0  0.42361  0.20653  0.69405  1.0000
  C   C825      1.0  0.44388  0.01103  0.89104  1.0000
  C   C826      1.0  0.47864  0.16793  0.57396  1.0000
  H   H654      1.0  0.44801  0.22153  0.82443  1.0000
  H   H655      1.0  0.44009  0.03892  0.90390  1.0000
  H   H656      1.0  0.54712  0.17916  0.62584  1.0000
  C   C827      1.0  0.59447  0.11281  0.52736  1.0000
  C   C828      1.0  0.59752  0.20011  0.71553  1.0000
  H   H657      1.0  0.62540  0.13985  0.81611  1.0000
  H   H658      1.0  0.35594  0.04755  0.83109  1.0000
  H   H659      1.0  0.55033  0.11806  0.57213  1.0000
  C   C829      1.0  0.60149  0.17040  0.65145  1.0000
  H   H660      1.0  0.51842  0.17133  0.58318  1.0000
  S   S98       1.0  0.36910  0.99428  0.97140  1.0000
  C   C830      1.0  0.55272  0.12877  0.55097  1.0000
  C   C831      1.0  0.59764  0.21971  0.71094  1.0000
  H   H661      1.0  0.63659  0.10632  0.49867  1.0000
  H   H662      1.0  0.51649  0.08906  0.54214  1.0000
  C   C832      1.0  0.51326  0.23230  0.66628  1.0000
  C   C833      1.0  0.63796  0.17185  0.62301  1.0000
  C   C834      1.0  0.61468  0.11475  0.52614  1.0000
  C   C835      1.0  0.57975  0.22340  0.71405  1.0000
  C   C836      1.0  0.63357  0.16550  0.73866  1.0000
  H   H663      1.0  0.42923  0.02655  0.73784  1.0000
  H   H664      1.0  0.60578  0.16158  0.82764  1.0000
  H   H665      1.0  0.56693  0.06949  0.54482  1.0000
  C   C837      1.0  0.40011  0.13261  0.96458  1.0000
  C   C838      1.0  0.55923  0.22565  0.59010  1.0000
  H   H666      1.0  0.62541  0.12349  0.54652  1.0000
  H   H667      1.0  0.44509  0.12006  0.55706  1.0000
  C   C839      1.0  0.52608  0.05638  0.59754  1.0000
  H   H668      1.0  0.47291  0.20301  0.49640  1.0000
  Fe  Fe46      1.0  0.40278  0.22257  0.97254  1.0000
  C   C840      1.0  0.42928  0.99900  0.98563  1.0000
  H   H669      1.0  0.40892  0.12384  0.95658  1.0000
  C   C841      1.0  0.38087  0.12278  0.97845  1.0000
  C   C842      1.0  0.37816  0.00413  0.72741  1.0000
  C   C843      1.0  0.63475  0.15201  0.76443  1.0000
  C   C844      1.0  0.60922  0.18398  0.51468  1.0000
  H   H670      1.0  0.45970  0.00881  0.96668  1.0000
  C   C845      1.0  0.62365  0.99370  0.82690  1.0000
  H   H671      1.0  0.36627  0.00195  0.70763  1.0000
  C   C846      1.0  0.55903  0.15734  0.49778  1.0000
  Fe  Fe47      1.0  0.63857  0.11135  0.63771  1.0000
  S   S99       1.0  0.42092  0.08742  0.98157  1.0000
  H   H672      1.0  0.51085  0.22832  0.58946  1.0000
  C   C847      1.0  0.37333  0.99688  0.76180  1.0000
  P   P30       1.0  0.48798  0.22563  0.79682  1.0000
  H   H673      1.0  0.42236  0.99796  0.95940  1.0000
  C   C848      1.0  0.44754  0.23033  0.72206  1.0000
  C   C849      1.0  0.45916  0.22638  0.84595  1.0000
  Fe  Fe48      1.0  0.38719  0.07424  0.97979  1.0000
  C   C850      1.0  0.63383  0.00679  0.85503  1.0000
  H   H674      1.0  0.64330  0.14249  0.75938  1.0000
  C   C851      1.0  0.47942  0.22906  0.84042  1.0000
  C   C852      1.0  0.45327  0.23074  0.87937  1.0000
  H   H675      1.0  0.60506  0.20987  0.49234  1.0000
  H   H676      1.0  0.43783  0.22944  0.88345  1.0000
  H   H677      1.0  0.63342  0.02184  0.85717  1.0000
  C   C853      1.0  0.46346  0.23515  0.74710  1.0000
  C   C854      1.0  0.64460  0.00047  0.88046  1.0000
  H   H678      1.0  0.54179  0.23342  0.54987  1.0000
  C   C855      1.0  0.51650  0.19956  0.48938  1.0000
  C   C856      1.0  0.51402  0.35736  0.38029  1.0000
  C   C857      1.0  0.53848  0.24098  0.16309  1.0000
  C   C858      1.0  0.47494  0.29523  0.48234  1.0000
  S   S100      1.0  0.36353  0.45147  0.32725  1.0000
  Fe  Fe49      1.0  0.33410  0.43384  0.29723  1.0000
  H   H679      1.0  0.36975  0.33669  0.99862  1.0000
  Fe  Fe50      1.0  0.34587  0.44224  0.37781  1.0000
  S   S101      1.0  0.35662  0.43277  0.42958  1.0000
  S   S102      1.0  0.32390  0.46013  0.29439  1.0000
  S   S103      1.0  0.33678  0.46897  0.37940  1.0000
  H   H680      1.0  0.60804  0.42135  0.43347  1.0000
  C   C859      1.0  0.47644  0.33781  0.41068  1.0000
  Fe  Fe51      1.0  0.51992  0.31644  0.29617  1.0000
  S   S104      1.0  0.48965  0.30573  0.32202  1.0000
  S   S105      1.0  0.53624  0.35034  0.29416  1.0000
  Fe  Fe52      1.0  0.51623  0.27327  0.27830  1.0000
  S   S106      1.0  0.48603  0.25978  0.30351  1.0000
  S   S107      1.0  0.52895  0.25229  0.25112  1.0000
  Fe  Fe53      1.0  0.47921  0.28414  0.27457  1.0000
  S   S108      1.0  0.45078  0.27885  0.24031  1.0000
  Fe  Fe54      1.0  0.49984  0.28273  0.34805  1.0000
  S   S109      1.0  0.50249  0.27396  0.40579  1.0000
  S   S110      1.0  0.50880  0.29648  0.24756  1.0000
  S   S111      1.0  0.53068  0.29461  0.32395  1.0000
  Fe  Fe55      1.0  0.42383  0.25903  0.02504  1.0000
  S   S112      1.0  0.44675  0.26423  0.07128  1.0000
  H   H681      1.0  0.31399  0.31383  0.05313  1.0000
  C   C860      1.0  0.57120  0.35795  0.41810  1.0000
  H   H682      1.0  0.35350  0.35841  0.17639  1.0000
  C   C861      1.0  0.35924  0.38685  0.15170  1.0000
  H   H683      1.0  0.54846  0.24193  0.18572  1.0000
  H   H684      1.0  0.46193  0.32966  0.42234  1.0000
  C   C862      1.0  0.62771  0.38490  0.44169  1.0000
  C   C863      1.0  0.45003  0.27575  0.19301  1.0000
  C   C864      1.0  0.46687  0.27586  0.17428  1.0000
  C   C865      1.0  0.46552  0.27246  0.13714  1.0000
  C   C866      1.0  0.44736  0.26894  0.11801  1.0000
  C   C867      1.0  0.43051  0.26897  0.13656  1.0000
  C   C868      1.0  0.43187  0.27235  0.17384  1.0000
  H   H685      1.0  0.48087  0.27818  0.18845  1.0000
  H   H686      1.0  0.47863  0.27244  0.12312  1.0000
  H   H687      1.0  0.41642  0.26625  0.12226  1.0000
  H   H688      1.0  0.41871  0.27215  0.18796  1.0000
  C   C869      1.0  0.49591  0.28231  0.44683  1.0000
  C   C870      1.0  0.48125  0.29092  0.44886  1.0000
  C   C871      1.0  0.62165  0.37262  0.15047  1.0000
  H   H689      1.0  0.47425  0.29358  0.42470  1.0000
  P   P31       1.0  0.53617  0.36187  0.44409  1.0000
  C   C872      1.0  0.60453  0.37997  0.31426  1.0000
  C   C873      1.0  0.59565  0.35911  0.30663  1.0000
  C   C874      1.0  0.57455  0.34956  0.30198  1.0000
  C   C875      1.0  0.56231  0.36094  0.30444  1.0000
  C   C876      1.0  0.57112  0.38162  0.31313  1.0000
  C   C877      1.0  0.59212  0.39104  0.31840  1.0000
  H   H690      1.0  0.60514  0.35038  0.30383  1.0000
  H   H691      1.0  0.56781  0.33354  0.29561  1.0000
  H   H692      1.0  0.56172  0.39048  0.31520  1.0000
  H   H693      1.0  0.59865  0.40695  0.32499  1.0000
  H   H694      1.0  0.40141  0.46439  0.38273  1.0000
  H   H695      1.0  0.54494  0.30015  0.40042  1.0000
  H   H696      1.0  0.34057  0.27153  0.06730  1.0000
  C   C878      1.0  0.40884  0.47083  0.40790  1.0000
  H   H697      1.0  0.59751  0.35492  0.39541  1.0000
  H   H698      1.0  0.51736  0.24335  0.32391  1.0000
  C   C879      1.0  0.34446  0.38548  0.09289  1.0000
  H   H699      1.0  0.63593  0.37758  0.42646  1.0000
  C   C880      1.0  0.34531  0.43484  0.47049  1.0000
  C   C881      1.0  0.31555  0.39293  0.18609  1.0000
  S   S113      1.0  0.62695  0.44595  0.32279  1.0000
  C   C882      1.0  0.49958  0.31034  0.05047  1.0000
  C   C883      1.0  0.47964  0.30933  0.04954  1.0000
  C   C884      1.0  0.47258  0.31801  0.07722  1.0000
  C   C885      1.0  0.48548  0.32785  0.10580  1.0000
  C   C886      1.0  0.50548  0.32869  0.10719  1.0000
  C   C887      1.0  0.51251  0.32011  0.07906  1.0000
  P   P32       1.0  0.52294  0.34274  0.14214  1.0000
  C   C888      1.0  0.51014  0.34877  0.17894  1.0000
  C   C889      1.0  0.53595  0.32811  0.16249  1.0000
  C   C890      1.0  0.52868  0.30698  0.15776  1.0000
  C   C891      1.0  0.53734  0.29554  0.17723  1.0000
  C   C892      1.0  0.55320  0.30505  0.20160  1.0000
  C   C893      1.0  0.56037  0.32605  0.20670  1.0000
  C   C894      1.0  0.55165  0.33751  0.18748  1.0000
  C   C895      1.0  0.51739  0.36823  0.19471  1.0000
  C   C896      1.0  0.50839  0.37217  0.22522  1.0000
  C   C897      1.0  0.49227  0.35671  0.24033  1.0000
  C   C898      1.0  0.48513  0.33727  0.22499  1.0000
  C   C899      1.0  0.49411  0.33327  0.19457  1.0000
  C   C900      1.0  0.53958  0.36541  0.12149  1.0000
  C   C901      1.0  0.56012  0.36898  0.11672  1.0000
  C   C902      1.0  0.57242  0.38627  0.09912  1.0000
  C   C903      1.0  0.56428  0.39989  0.08580  1.0000
  C   C904      1.0  0.54381  0.39627  0.09005  1.0000
  C   C905      1.0  0.53149  0.37907  0.10773  1.0000
  C   C906      1.0  0.54527  0.25413  0.13480  1.0000
  C   C907      1.0  0.61433  0.35438  0.16892  1.0000
  H   H700      1.0  0.45698  0.31680  0.07666  1.0000
  H   H701      1.0  0.47972  0.33477  0.12652  1.0000
  H   H702      1.0  0.52802  0.32106  0.07917  1.0000
  H   H703      1.0  0.51566  0.29915  0.14063  1.0000
  H   H704      1.0  0.53091  0.27918  0.17516  1.0000
  H   H705      1.0  0.55919  0.29600  0.21781  1.0000
  H   H706      1.0  0.57202  0.33335  0.22675  1.0000
  H   H707      1.0  0.55652  0.35358  0.19326  1.0000
  H   H708      1.0  0.53030  0.38024  0.18422  1.0000
  H   H709      1.0  0.51425  0.38709  0.23774  1.0000
  H   H710      1.0  0.48557  0.35968  0.26434  1.0000
  H   H711      1.0  0.47290  0.32513  0.23708  1.0000
  H   H712      1.0  0.48878  0.31799  0.18366  1.0000
  H   H713      1.0  0.56662  0.35840  0.12603  1.0000
  H   H714      1.0  0.58823  0.38907  0.09544  1.0000
  H   H715      1.0  0.57379  0.41318  0.07191  1.0000
  H   H716      1.0  0.53744  0.40671  0.07937  1.0000
  H   H717      1.0  0.51557  0.37631  0.11041  1.0000
  H   H718      1.0  0.60288  0.35423  0.06761  1.0000
  H   H719      1.0  0.37720  0.29114  0.06324  1.0000
  H   H720      1.0  0.50234  0.23898  0.08368  1.0000
  H   H721      1.0  0.52833  0.36361  0.36729  1.0000
  H   H722      1.0  0.32455  0.44721  0.44810  1.0000
  H   H723      1.0  0.50490  0.30349  0.02897  1.0000
  C   C908      1.0  0.40942  0.45810  0.43545  1.0000
  C   C909      1.0  0.32400  0.30186  0.18457  1.0000
  H   H724      1.0  0.59457  0.37480  0.20121  1.0000
  C   C910      1.0  0.56856  0.41874  0.40742  1.0000
  C   C911      1.0  0.32193  0.41079  0.20723  1.0000
  C   C912      1.0  0.33010  0.44276  0.47221  1.0000
  H   H725      1.0  0.58328  0.42227  0.25636  1.0000
  H   H726      1.0  0.57888  0.37397  0.42315  1.0000
  C   C913      1.0  0.31597  0.33143  0.19714  1.0000
  C   C914      1.0  0.58195  0.34711  0.40285  1.0000
  H   H727      1.0  0.46394  0.33683  0.35782  1.0000
  H   H728      1.0  0.58159  0.44693  0.43690  1.0000
  C   C915      1.0  0.31877  0.42911  0.15466  1.0000
  C   C916      1.0  0.58682  0.39710  0.22890  1.0000
  H   H729      1.0  0.49744  0.35375  0.33073  1.0000
  C   C917      1.0  0.47757  0.34181  0.37438  1.0000
  H   H730      1.0  0.57449  0.42543  0.38227  1.0000
  H   H731      1.0  0.31406  0.34510  0.18870  1.0000
  C   C918      1.0  0.61759  0.37242  0.11376  1.0000
  C   C919      1.0  0.32043  0.29615  0.22004  1.0000
  H   H732      1.0  0.34182  0.39324  0.06992  1.0000
  H   H733      1.0  0.36802  0.39563  0.17423  1.0000
  C   C920      1.0  0.59307  0.41730  0.24022  1.0000
  C   C921      1.0  0.56592  0.42218  0.47096  1.0000
  S   S114      1.0  0.32187  0.38988  0.99834  1.0000
  S   S115      1.0  0.62480  0.46597  0.41735  1.0000
  C   C922      1.0  0.55071  0.34811  0.42598  1.0000
  P   P33       1.0  0.32632  0.32715  0.12700  1.0000
  H   H734      1.0  0.52551  0.31933  0.42506  1.0000
  C   C923      1.0  0.63667  0.45877  0.48635  1.0000
  C   C924      1.0  0.55014  0.38903  0.44181  1.0000
  H   H735      1.0  0.46949  0.30144  0.02770  1.0000
  C   C925      1.0  0.59971  0.39056  0.20898  1.0000
  H   H736      1.0  0.31843  0.28668  0.09585  1.0000
  C   C926      1.0  0.55744  0.39795  0.40916  1.0000
  C   C927      1.0  0.63950  0.42766  0.12825  1.0000
  H   H737      1.0  0.60744  0.48541  0.46472  1.0000
  S   S116      1.0  0.63112  0.39186  0.31757  1.0000
  C   C928      1.0  0.62629  0.46785  0.46468  1.0000
  C   C929      1.0  0.62339  0.38014  0.47736  1.0000
  H   H738      1.0  0.64002  0.43541  0.20574  1.0000
  C   C930      1.0  0.41908  0.46635  0.46786  1.0000
  C   C931      1.0  0.31476  0.30812  0.24407  1.0000
  H   H739      1.0  0.61703  0.44665  0.24046  1.0000
  H   H740      1.0  0.57216  0.38639  0.23638  1.0000
  H   H741      1.0  0.31450  0.37891  0.19810  1.0000
  H   H742      1.0  0.62324  0.38620  0.09879  1.0000
  H   H743      1.0  0.39191  0.32641  0.08712  1.0000
  H   H744      1.0  0.32674  0.35596  0.07160  1.0000
  C   C932      1.0  0.60270  0.33632  0.15106  1.0000
  C   C933      1.0  0.59849  0.33628  0.11462  1.0000
  C   C934      1.0  0.60602  0.35430  0.09594  1.0000
  H   H745      1.0  0.40221  0.44183  0.43166  1.0000
  C   C935      1.0  0.61898  0.40425  0.20005  1.0000
  H   H746      1.0  0.49260  0.33966  0.45954  1.0000
  C   C936      1.0  0.57252  0.32629  0.39648  1.0000
  H   H747      1.0  0.55533  0.38887  0.38513  1.0000
  C   C937      1.0  0.61216  0.43101  0.23146  1.0000
  C   C938      1.0  0.35850  0.32174  0.99366  1.0000
  C   C939      1.0  0.49406  0.34380  0.43192  1.0000
  H   H748      1.0  0.62463  0.42641  0.13656  1.0000
  C   C940      1.0  0.49638  0.35148  0.35918  1.0000
  C   C941      1.0  0.62513  0.42454  0.21166  1.0000
  H   H749      1.0  0.59690  0.32234  0.16556  1.0000
  H   H750      1.0  0.58946  0.32226  0.10082  1.0000
  H   H751      1.0  0.58077  0.31791  0.38438  1.0000
  H   H752      1.0  0.53727  0.26368  0.08460  1.0000
  H   H753      1.0  0.32792  0.44269  0.20723  1.0000
  C   C942      1.0  0.54133  0.32722  0.41935  1.0000
  C   C943      1.0  0.55231  0.31632  0.40524  1.0000
  C   C944      1.0  0.61181  0.40944  0.44552  1.0000
  C   C945      1.0  0.62172  0.39940  0.42568  1.0000
  C   C946      1.0  0.57266  0.43087  0.43825  1.0000
  C   C947      1.0  0.35603  0.39672  0.12174  1.0000
  H   H754      1.0  0.32030  0.44328  0.14257  1.0000
  C   C948      1.0  0.51307  0.35423  0.41712  1.0000
  C   C949      1.0  0.32189  0.31962  0.17284  1.0000
  C   C950      1.0  0.55483  0.40138  0.47281  1.0000
  C   C951      1.0  0.31300  0.41138  0.13327  1.0000
  C   C952      1.0  0.32310  0.42883  0.19141  1.0000
  H   H755      1.0  0.51411  0.48469  0.27714  1.0000
  H   H756      1.0  0.37009  0.34214  0.11465  1.0000
  C   C953      1.0  0.34254  0.31563  0.10726  1.0000
  C   C954      1.0  0.33444  0.29554  0.09424  1.0000
  C   C955      1.0  0.34693  0.28679  0.07843  1.0000
  C   C956      1.0  0.36764  0.29788  0.07606  1.0000
  C   C957      1.0  0.37588  0.31777  0.08933  1.0000
  C   C958      1.0  0.36340  0.32665  0.10485  1.0000
  H   H757      1.0  0.61738  0.35422  0.19726  1.0000
  S   S117      1.0  0.31790  0.42224  0.34815  1.0000
  P   P34       1.0  0.63583  0.39601  0.17418  1.0000
  S   S118      1.0  0.32892  0.40980  0.25275  1.0000
  C   C959      1.0  0.33793  0.31917  0.99140  1.0000
  C   C960      1.0  0.33835  0.35436  0.12466  1.0000
  C   C961      1.0  0.35067  0.36574  0.15302  1.0000
  C   C962      1.0  0.53210  0.25334  0.10637  1.0000
  H   H758      1.0  0.56063  0.26513  0.13529  1.0000
  S   S119      1.0  0.33095  0.34088  0.99602  1.0000
  C   C963      1.0  0.33569  0.36437  0.09423  1.0000
  C   C964      1.0  0.60717  0.40450  0.48105  1.0000
  H   H759      1.0  0.46671  0.24367  0.23711  1.0000
  C   C965      1.0  0.51220  0.23925  0.10599  1.0000
  H   H760      1.0  0.36212  0.41311  0.12112  1.0000
  C   C966      1.0  0.61575  0.47859  0.48097  1.0000
  H   H761      1.0  0.46486  0.24382  0.44888  1.0000
  H   H762      1.0  0.51599  0.27205  0.47735  1.0000
  Fe  Fe56      1.0  0.35227  0.47713  0.32723  1.0000
  H   H763      1.0  0.32842  0.29237  0.16655  1.0000
  C   C967      1.0  0.50471  0.27879  0.47858  1.0000
  H   H764      1.0  0.62499  0.40304  0.39798  1.0000
  S   S120      1.0  0.41807  0.28153  0.98886  1.0000
  H   H765      1.0  0.46312  0.30127  0.48369  1.0000
  H   H766      1.0  0.32216  0.28248  0.22895  1.0000
  H   H767      1.0  0.64432  0.44985  0.47417  1.0000
  H   H768      1.0  0.38060  0.30749  0.99194  1.0000
  Fe  Fe57      1.0  0.64486  0.42599  0.32507  1.0000
  H   H769      1.0  0.64227  0.45197  0.09249  1.0000
  Fe  Fe58      1.0  0.64376  0.45977  0.37384  1.0000
  H   H770      1.0  0.31213  0.30376  0.27159  1.0000
  C   C968      1.0  0.31253  0.32575  0.23260  1.0000
  C   C969      1.0  0.36473  0.30512  0.99001  1.0000
  H   H771      1.0  0.38199  0.46863  0.48750  1.0000
  C   C970      1.0  0.51207  0.35720  0.54332  1.0000
  C   C971      1.0  0.43955  0.37675  0.86093  1.0000
  H   H772      1.0  0.39852  0.32841  0.81930  1.0000
  S   S121      1.0  0.35440  0.44171  0.66465  1.0000
  Fe  Fe59      1.0  0.32958  0.44670  0.63303  1.0000
  Fe  Fe60      1.0  0.36387  0.47455  0.68154  1.0000
  Fe  Fe61      1.0  0.33401  0.43555  0.71223  1.0000
  C   C972      1.0  0.33401  0.29427  0.86831  1.0000
  C   C973      1.0  0.38030  0.37357  0.95834  1.0000
  S   S122      1.0  0.34496  0.46808  0.73067  1.0000
  H   H773      1.0  0.50248  0.36329  0.55765  1.0000
  H   H774      1.0  0.34885  0.42583  0.55927  1.0000
  Fe  Fe62      1.0  0.48729  0.29519  0.61098  1.0000
  S   S123      1.0  0.52049  0.30314  0.61946  1.0000
  S   S124      1.0  0.47361  0.29530  0.55552  1.0000
  Fe  Fe63      1.0  0.47966  0.29245  0.69340  1.0000
  S   S125      1.0  0.51277  0.30092  0.70626  1.0000
  S   S126      1.0  0.45375  0.28239  0.73312  1.0000
  Fe  Fe64      1.0  0.51815  0.32387  0.66306  1.0000
  S   S127      1.0  0.53656  0.35742  0.66170  1.0000
  Fe  Fe65      1.0  0.51176  0.27933  0.66114  1.0000
  S   S128      1.0  0.52875  0.25800  0.66283  1.0000
  S   S129      1.0  0.48504  0.31697  0.65309  1.0000
  S   S130      1.0  0.47835  0.26984  0.64989  1.0000
  C   C974      1.0  0.36476  0.29407  0.89609  1.0000
  H   H775      1.0  0.33573  0.32226  0.84531  1.0000
  H   H776      1.0  0.34444  0.33929  0.73736  1.0000
  H   H777      1.0  0.39090  0.46076  0.54820  1.0000
  Fe  Fe66      1.0  0.42624  0.26558  0.94257  1.0000
  S   S131      1.0  0.45125  0.28169  0.90352  1.0000
  H   H778      1.0  0.37261  0.28633  0.91144  1.0000
  H   H779      1.0  0.32501  0.38196  0.80837  1.0000
  C   C975      1.0  0.51757  0.36296  0.50846  1.0000
  S   S132      1.0  0.43432  0.24537  0.97930  1.0000
  C   C976      1.0  0.37495  0.31410  0.88621  1.0000
  H   H780      1.0  0.57044  0.24089  0.59258  1.0000
  C   C977      1.0  0.52317  0.25013  0.76264  1.0000
  S   S133      1.0  0.63093  0.40125  0.69089  1.0000
  C   C978      1.0  0.57826  0.32266  0.53190  1.0000
  H   H781      1.0  0.56228  0.30137  0.57162  1.0000
  C   C979      1.0  0.34431  0.28415  0.88717  1.0000
  C   C980      1.0  0.45391  0.28119  0.78052  1.0000
  C   C981      1.0  0.47103  0.29197  0.80155  1.0000
  C   C982      1.0  0.47000  0.29167  0.83906  1.0000
  C   C983      1.0  0.45190  0.28051  0.85611  1.0000
  C   C984      1.0  0.43492  0.26926  0.83509  1.0000
  C   C985      1.0  0.43592  0.26970  0.79758  1.0000
  H   H782      1.0  0.48491  0.30100  0.78889  1.0000
  H   H783      1.0  0.48322  0.30046  0.85498  1.0000
  H   H784      1.0  0.42092  0.26058  0.84771  1.0000
  H   H785      1.0  0.42259  0.26129  0.78162  1.0000
  C   C986      1.0  0.56287  0.36884  0.66967  1.0000
  C   C987      1.0  0.57458  0.35779  0.68010  1.0000
  C   C988      1.0  0.59554  0.36781  0.68639  1.0000
  C   C989      1.0  0.60480  0.38883  0.68212  1.0000
  C   C990      1.0  0.59308  0.39972  0.67132  1.0000
  C   C991      1.0  0.57219  0.38977  0.66546  1.0000
  H   H786      1.0  0.56747  0.34165  0.68372  1.0000
  H   H787      1.0  0.60457  0.35933  0.69484  1.0000
  H   H788      1.0  0.60005  0.41587  0.66801  1.0000
  H   H789      1.0  0.56314  0.39839  0.65798  1.0000
  C   C992      1.0  0.35219  0.35031  0.75809  1.0000
  C   C993      1.0  0.57545  0.33172  0.59323  1.0000
  H   H790      1.0  0.53538  0.32386  0.55379  1.0000
  C   C994      1.0  0.35502  0.37064  0.75383  1.0000
  H   H791      1.0  0.56951  0.32752  0.61956  1.0000
  S   S134      1.0  0.39491  0.24240  0.93294  1.0000
  H   H792      1.0  0.31603  0.38292  0.87206  1.0000
  H   H793      1.0  0.49538  0.26768  0.81739  1.0000
  S   S135      1.0  0.32940  0.40949  0.75063  1.0000
  H   H794      1.0  0.34686  0.39245  0.92332  1.0000
  H   H795      1.0  0.31962  0.31682  0.92033  1.0000
  H   H796      1.0  0.49866  0.24645  0.92347  1.0000
  S   S136      1.0  0.35710  0.26359  0.98108  1.0000
  C   C995      1.0  0.34373  0.43076  0.53519  1.0000
  C   C996      1.0  0.53838  0.26866  0.75495  1.0000
  H   H797      1.0  0.45110  0.39028  0.87225  1.0000
  H   H798      1.0  0.54990  0.26917  0.73614  1.0000
  H   H799      1.0  0.34917  0.37542  0.73024  1.0000
  C   C997      1.0  0.32849  0.43865  0.53682  1.0000
  C   C998      1.0  0.48349  0.29140  0.51412  1.0000
  H   H800      1.0  0.62748  0.48337  0.93810  1.0000
  H   H801      1.0  0.38406  0.47842  0.60094  1.0000
  C   C999      1.0  0.35936  0.34421  0.78901  1.0000
  S   S137      1.0  0.31578  0.43916  0.57679  1.0000
  C   C1000     1.0  0.53066  0.33497  0.54125  1.0000
  C   C1001     1.0  0.32285  0.41056  0.79595  1.0000
  C   C1002     1.0  0.50751  0.26761  0.80049  1.0000
  H   H802      1.0  0.52232  0.30005  0.80383  1.0000
  C   C1003     1.0  0.31227  0.41135  0.86840  1.0000
  H   H803      1.0  0.46098  0.36531  0.83856  1.0000
  C   C1004     1.0  0.32982  0.28289  0.98243  1.0000
  C   C1005     1.0  0.57133  0.31702  0.56616  1.0000
  H   H804      1.0  0.61912  0.42441  0.57883  1.0000
  C   C1006     1.0  0.51870  0.34329  0.55978  1.0000
  H   H805      1.0  0.51212  0.37360  0.49590  1.0000
  C   C1007     1.0  0.59448  0.35775  0.55222  1.0000
  C   C1008     1.0  0.53830  0.28660  0.77028  1.0000
  H   H806      1.0  0.62385  0.37538  0.61313  1.0000
  H   H807      1.0  0.46531  0.25072  0.55829  1.0000
  H   H808      1.0  0.47251  0.25093  0.75276  1.0000
  C   C1009     1.0  0.32173  0.39462  0.81868  1.0000
  P   P35       1.0  0.60853  0.38432  0.54389  1.0000
  H   H809      1.0  0.31806  0.28666  0.86198  1.0000
  H   H810      1.0  0.35735  0.32847  0.79151  1.0000
  H   H811      1.0  0.36784  0.40078  0.77638  1.0000
  C   C1010     1.0  0.36721  0.38403  0.95655  1.0000
  C   C1011     1.0  0.35197  0.42872  0.50214  1.0000
  C   C1012     1.0  0.37293  0.37899  0.81067  1.0000
  H   H812      1.0  0.58919  0.36320  0.60737  1.0000
  C   C1013     1.0  0.58682  0.35196  0.58627  1.0000
  C   C1014     1.0  0.49877  0.28358  0.51202  1.0000
  H   H813      1.0  0.39329  0.35514  0.93020  1.0000
  C   C1015     1.0  0.53621  0.34066  0.50639  1.0000
  H   H814      1.0  0.54984  0.30098  0.76361  1.0000
  C   C1016     1.0  0.59358  0.39771  0.56184  1.0000
  C   C1017     1.0  0.60285  0.41700  0.57763  1.0000
  C   C1018     1.0  0.59106  0.42682  0.59261  1.0000
  C   C1019     1.0  0.57001  0.41763  0.59149  1.0000
  C   C1020     1.0  0.56067  0.39850  0.57558  1.0000
  C   C1021     1.0  0.57237  0.38863  0.56055  1.0000
  C   C1022     1.0  0.36559  0.38499  0.77993  1.0000
  H   H815      1.0  0.62877  0.36940  0.48979  1.0000
  S   S138      1.0  0.34032  0.47978  0.64745  1.0000
  H   H816      1.0  0.52344  0.23662  0.74973  1.0000
  Fe  Fe67      1.0  0.32024  0.46991  0.69430  1.0000
  C   C1023     1.0  0.38423  0.47202  0.54470  1.0000
  H   H817      1.0  0.51434  0.33880  0.58679  1.0000
  H   H818      1.0  0.49382  0.25185  0.59825  1.0000
  C   C1024     1.0  0.63330  0.39325  0.56572  1.0000
  H   H819      1.0  0.50553  0.28061  0.53618  1.0000
  C   C1025     1.0  0.58964  0.34294  0.52483  1.0000
  H   H820      1.0  0.59826  0.44137  0.60594  1.0000
  H   H821      1.0  0.56100  0.42509  0.60392  1.0000
  H   H822      1.0  0.54438  0.39104  0.57591  1.0000
  H   H823      1.0  0.56483  0.37374  0.54865  1.0000
  C   C1026     1.0  0.32164  0.44448  0.50513  1.0000
  C   C1027     1.0  0.62703  0.47282  0.53987  1.0000
  H   H824      1.0  0.43464  0.33452  0.81202  1.0000
  C   C1028     1.0  0.48912  0.24114  0.57617  1.0000
  H   H825      1.0  0.56251  0.48016  0.60215  1.0000
  C   C1029     1.0  0.52280  0.28608  0.79290  1.0000
  C   C1030     1.0  0.61255  0.38946  0.49705  1.0000
  H   H826      1.0  0.41506  0.38443  0.87992  1.0000
  H   H827      1.0  0.32117  0.34778  0.88994  1.0000
  H   H828      1.0  0.38130  0.39041  0.83039  1.0000
  H   H829      1.0  0.35217  0.37496  0.86996  1.0000
  S   S139      1.0  0.63042  0.45794  0.68477  1.0000
  C   C1031     1.0  0.36482  0.32432  0.86673  1.0000
  C   C1032     1.0  0.34413  0.31439  0.85859  1.0000
  P   P36       1.0  0.37766  0.35079  0.85710  1.0000
  C   C1033     1.0  0.37392  0.36443  0.89552  1.0000
  C   C1034     1.0  0.40410  0.35570  0.85103  1.0000
  C   C1035     1.0  0.40983  0.34192  0.83121  1.0000
  C   C1036     1.0  0.43028  0.34536  0.82691  1.0000
  C   C1037     1.0  0.44514  0.36272  0.84188  1.0000
  C   C1038     1.0  0.49362  0.23629  0.86861  1.0000
  C   C1039     1.0  0.41910  0.37332  0.86536  1.0000
  C   C1040     1.0  0.36054  0.37476  0.89410  1.0000
  C   C1041     1.0  0.35731  0.38461  0.92447  1.0000
  C   C1042     1.0  0.47311  0.24047  0.55361  1.0000
  H   H830      1.0  0.36366  0.42249  0.50112  1.0000
  C   C1043     1.0  0.38353  0.36365  0.92806  1.0000
  C   C1044     1.0  0.36911  0.35842  0.81618  1.0000
  C   C1045     1.0  0.48762  0.24047  0.90198  1.0000
  H   H831      1.0  0.39066  0.32161  0.89435  1.0000
  H   H832      1.0  0.59414  0.34687  0.49784  1.0000
  H   H833      1.0  0.63046  0.48315  0.87262  1.0000
  H   H834      1.0  0.38753  0.37273  0.98351  1.0000
  H   H835      1.0  0.33644  0.26875  0.89560  1.0000
  C   C1046     1.0  0.46747  0.23773  0.90730  1.0000
  C   C1047     1.0  0.50771  0.24940  0.78589  1.0000
  H   H836      1.0  0.50945  0.23918  0.86444  1.0000
  C   C1048     1.0  0.63628  0.38594  0.59901  1.0000
  C   C1049     1.0  0.38021  0.48182  0.57436  1.0000
  H   H837      1.0  0.57450  0.31134  0.51064  1.0000
  H   H838      1.0  0.46299  0.24166  0.93276  1.0000
  H   H839      1.0  0.31927  0.43916  0.79262  1.0000
  Fe  Fe68      1.0  0.38682  0.25746  0.98111  1.0000
  C   C1050     1.0  0.31857  0.42683  0.80970  1.0000
  C   C1051     1.0  0.37917  0.47641  0.51055  1.0000
  H   H840      1.0  0.32554  0.48287  0.56047  1.0000
  C   C1052     1.0  0.52973  0.35475  0.48966  1.0000
  C   C1053     1.0  0.31333  0.42721  0.84564  1.0000
  H   H841      1.0  0.36435  0.39126  0.98028  1.0000
  S   S140      1.0  0.62708  0.47768  0.58644  1.0000
  H   H842      1.0  0.57988  0.23854  0.71054  1.0000
  C   C1054     1.0  0.31658  0.39506  0.85475  1.0000
  H   H843      1.0  0.44462  0.24231  0.70848  1.0000
  C   C1055     1.0  0.63716  0.46136  0.52399  1.0000
  C   C1056     1.0  0.61615  0.48108  0.51802  1.0000
  C   C1057     1.0  0.35040  0.28548  0.98464  1.0000
  H   H844      1.0  0.31855  0.26783  0.97824  1.0000
  H   H845      1.0  0.55041  0.39514  0.49867  1.0000
  H   H846      1.0  0.48581  0.23776  0.67122  1.0000
  C   C1058     1.0  0.32363  0.29953  0.98573  1.0000
  H   H847      1.0  0.54538  0.33386  0.49274  1.0000
  Fe  Fe69      1.0  0.64359  0.46832  0.63087  1.0000
  H   H848      1.0  0.59996  0.41288  0.49607  1.0000
  Fe  Fe70      1.0  0.64461  0.43464  0.67869  1.0000
  H   H849      1.0  0.56971  0.43154  0.49503  1.0000
  H   H850      1.0  0.32771  0.48465  0.48996  1.0000
  H   H851      1.0  0.41958  0.45639  0.48905  1.0000
  Fe  Fe71      1.0  0.51414  0.61619  0.35478  1.0000
  S   S141      1.0  0.48038  0.60637  0.35234  1.0000
  S   S142      1.0  0.53406  0.62434  0.40491  1.0000
  Fe  Fe72      1.0  0.51776  0.62031  0.27230  1.0000
  S   S143      1.0  0.48407  0.61034  0.26410  1.0000
  S   S144      1.0  0.54296  0.63222  0.23176  1.0000
  Fe  Fe73      1.0  0.48576  0.63070  0.31163  1.0000
  S   S145      1.0  0.46924  0.65240  0.31425  1.0000
  Fe  Fe74      1.0  0.48168  0.58688  0.30550  1.0000
  S   S146      1.0  0.46472  0.55280  0.30207  1.0000
  S   S147      1.0  0.51945  0.64181  0.31757  1.0000
  S   S148      1.0  0.51538  0.59538  0.31033  1.0000
  S   S149      1.0  0.36962  0.51086  0.32102  1.0000
  Fe  Fe75      1.0  0.55850  0.64225  0.01922  1.0000
  S   S150      1.0  0.59110  0.66354  0.02353  1.0000
  S   S151      1.0  0.53498  0.62964  0.06221  1.0000
  C   C1059     1.0  0.35048  0.67640  0.43894  1.0000
  H   H852      1.0  0.55925  0.60167  0.24431  1.0000
  C   C1060     1.0  0.54031  0.63272  0.18473  1.0000
  C   C1061     1.0  0.52143  0.62492  0.16729  1.0000
  C   C1062     1.0  0.52011  0.62464  0.12980  1.0000
  C   C1063     1.0  0.53759  0.63212  0.10931  1.0000
  C   C1064     1.0  0.55645  0.64045  0.12676  1.0000
  C   C1065     1.0  0.55777  0.64078  0.16427  1.0000
  H   H853      1.0  0.50787  0.61873  0.18263  1.0000
  H   H854      1.0  0.50544  0.61824  0.11654  1.0000
  H   H855      1.0  0.56999  0.64650  0.11136  1.0000
  H   H856      1.0  0.57241  0.64730  0.17748  1.0000
  C   C1066     1.0  0.48442  0.67827  0.30987  1.0000
  C   C1067     1.0  0.47601  0.69303  0.31489  1.0000
  C   C1068     1.0  0.48806  0.71369  0.31255  1.0000
  C   C1069     1.0  0.50480  0.68437  0.30128  1.0000
  H   H857      1.0  0.46014  0.68854  0.32025  1.0000
  C   C1070     1.0  0.33513  0.53209  0.43419  1.0000
  H   H858      1.0  0.51120  0.67332  0.29511  1.0000
  C   C1071     1.0  0.43838  0.54143  0.30867  1.0000
  C   C1072     1.0  0.42945  0.52035  0.31255  1.0000
  C   C1073     1.0  0.40843  0.51074  0.31670  1.0000
  C   C1074     1.0  0.39616  0.52216  0.31667  1.0000
  C   C1075     1.0  0.40514  0.54323  0.31305  1.0000
  C   C1076     1.0  0.42617  0.55287  0.30940  1.0000
  H   H859      1.0  0.43880  0.51139  0.31195  1.0000
  C   C1077     1.0  0.33143  0.69819  0.44704  1.0000
  H   H860      1.0  0.39574  0.55214  0.31277  1.0000
  H   H861      1.0  0.43286  0.56909  0.30632  1.0000
  C   C1078     1.0  0.42766  0.48737  0.47311  1.0000
  C   C1079     1.0  0.52534  0.61397  0.44672  1.0000
  C   C1080     1.0  0.51294  0.59359  0.44973  1.0000
  C   C1081     1.0  0.62138  0.61937  0.16738  1.0000
  H   H862      1.0  0.50747  0.58433  0.42595  1.0000
  H   H863      1.0  0.36656  0.49377  0.47922  1.0000
  H   H864      1.0  0.44786  0.56841  0.42532  1.0000
  C   C1082     1.0  0.43821  0.67184  0.38332  1.0000
  C   C1083     1.0  0.42212  0.67661  0.39559  1.0000
  C   C1084     1.0  0.42349  0.68582  0.42913  1.0000
  C   C1085     1.0  0.55997  0.59787  0.27185  1.0000
  C   C1086     1.0  0.45713  0.68528  0.43840  1.0000
  C   C1087     1.0  0.45579  0.67651  0.40428  1.0000
  H   H865      1.0  0.57209  0.55656  0.06748  1.0000
  C   C1088     1.0  0.57753  0.57272  0.07267  1.0000
  H   H866      1.0  0.39455  0.51370  0.43073  1.0000
  H   H867      1.0  0.54983  0.53777  0.18304  1.0000
  C   C1089     1.0  0.50037  0.70429  0.43687  1.0000
  H   H868      1.0  0.53660  0.67452  0.23211  1.0000
  H   H869      1.0  0.35372  0.54931  0.47775  1.0000
  C   C1090     1.0  0.51544  0.69670  0.42901  1.0000
  H   H870      1.0  0.43719  0.66458  0.35739  1.0000
  C   C1091     1.0  0.51311  0.49942  0.28049  1.0000
  P   P37       1.0  0.62689  0.61619  0.12137  1.0000
  C   C1092     1.0  0.61349  0.62570  0.23862  1.0000
  H   H871      1.0  0.46830  0.67312  0.39379  1.0000
  H   H872      1.0  0.57739  0.58012  0.43412  1.0000
  H   H873      1.0  0.41841  0.72442  0.39424  1.0000
  H   H874      1.0  0.57646  0.71110  0.15900  1.0000
  C   C1093     1.0  0.56670  0.61346  0.29760  1.0000
  H   H875      1.0  0.56480  0.61337  0.05723  1.0000
  C   C1094     1.0  0.53043  0.72400  0.38818  1.0000
  C   C1095     1.0  0.55597  0.68889  0.07968  1.0000
  C   C1096     1.0  0.53568  0.68535  0.08566  1.0000
  C   C1097     1.0  0.52995  0.69116  0.11813  1.0000
  C   C1098     1.0  0.54450  0.70011  0.14524  1.0000
  C   C1099     1.0  0.56490  0.70379  0.13889  1.0000
  P   P38       1.0  0.53734  0.70845  0.18664  1.0000
  C   C1100     1.0  0.56528  0.55190  0.23220  1.0000
  C   C1101     1.0  0.51174  0.69238  0.19710  1.0000
  C   C1102     1.0  0.49867  0.70053  0.21297  1.0000
  C   C1103     1.0  0.47937  0.68784  0.22301  1.0000
  C   C1104     1.0  0.47304  0.66693  0.21775  1.0000
  C   C1105     1.0  0.48580  0.65870  0.20153  1.0000
  C   C1106     1.0  0.50501  0.67135  0.19096  1.0000
  H   H876      1.0  0.50339  0.71657  0.21864  1.0000
  H   H877      1.0  0.60398  0.59624  0.01004  1.0000
  C   C1107     1.0  0.60326  0.60352  0.09724  1.0000
  P   P39       1.0  0.43770  0.52739  0.45196  1.0000
  C   C1108     1.0  0.39077  0.53867  0.40505  1.0000
  C   C1109     1.0  0.55398  0.70617  0.22184  1.0000
  C   C1110     1.0  0.51538  0.73151  0.39563  1.0000
  H   H878      1.0  0.58487  0.56447  0.27831  1.0000
  H   H879      1.0  0.50786  0.58125  0.12984  1.0000
  H   H880      1.0  0.62939  0.58195  0.16134  1.0000
  C   C1111     1.0  0.57160  0.72276  0.23168  1.0000
  H   H881      1.0  0.49027  0.55262  0.36103  1.0000
  H   H882      1.0  0.56038  0.68456  0.05433  1.0000
  H   H883      1.0  0.52441  0.67808  0.06499  1.0000
  C   C1112     1.0  0.33064  0.72562  0.32417  1.0000
  H   H884      1.0  0.40866  0.67324  0.37894  1.0000
  H   H885      1.0  0.51421  0.68869  0.12196  1.0000
  H   H886      1.0  0.46961  0.69420  0.23616  1.0000
  H   H887      1.0  0.45842  0.65707  0.22703  1.0000
  H   H888      1.0  0.48099  0.64245  0.19786  1.0000
  H   H889      1.0  0.51482  0.66465  0.17899  1.0000
  C   C1113     1.0  0.57984  0.53754  0.18620  1.0000
  C   C1114     1.0  0.59596  0.58249  0.09093  1.0000
  C   C1115     1.0  0.46725  0.54150  0.40020  1.0000
  H   H890      1.0  0.58951  0.70156  0.29817  1.0000
  H   H891      1.0  0.46673  0.61716  0.46145  1.0000
  C   C1116     1.0  0.59769  0.54268  0.20657  1.0000
  H   H892      1.0  0.48392  0.52194  0.31944  1.0000
  C   C1117     1.0  0.53947  0.73450  0.18345  1.0000
  C   C1118     1.0  0.55472  0.73225  0.48361  1.0000
  C   C1119     1.0  0.48235  0.66776  0.48066  1.0000
  P   P40       1.0  0.54421  0.55751  0.24857  1.0000
  C   C1120     1.0  0.49756  0.50144  0.30038  1.0000
  H   H893      1.0  0.57849  0.52992  0.16058  1.0000
  C   C1121     1.0  0.57972  0.70285  0.27681  1.0000
  C   C1122     1.0  0.58431  0.72113  0.25923  1.0000
  C   C1123     1.0  0.63539  0.62006  0.19462  1.0000
  C   C1124     1.0  0.49623  0.52040  0.30468  1.0000
  C   C1125     1.0  0.51050  0.53737  0.28930  1.0000
  H   H894      1.0  0.54154  0.70022  0.39772  1.0000
  C   C1126     1.0  0.58327  0.55702  0.25251  1.0000
  C   C1127     1.0  0.54972  0.68777  0.23931  1.0000
  C   C1128     1.0  0.53250  0.56542  0.21150  1.0000
  C   C1129     1.0  0.51141  0.55988  0.20881  1.0000
  C   C1130     1.0  0.50261  0.56553  0.17943  1.0000
  C   C1131     1.0  0.51471  0.57674  0.15245  1.0000
  C   C1132     1.0  0.53569  0.58266  0.15513  1.0000
  C   C1133     1.0  0.54458  0.57709  0.18453  1.0000
  H   H895      1.0  0.61043  0.62823  0.26605  1.0000
  H   H896      1.0  0.60450  0.57358  0.09964  1.0000
  C   C1134     1.0  0.40209  0.52921  0.42284  1.0000
  H   H897      1.0  0.54243  0.64155  0.47573  1.0000
  H   H898      1.0  0.50912  0.55193  0.29285  1.0000
  C   C1135     1.0  0.56627  0.58385  0.06062  1.0000
  C   C1136     1.0  0.42628  0.50025  0.44608  1.0000
  H   H899      1.0  0.33715  0.54527  0.41837  1.0000
  H   H900      1.0  0.50156  0.55127  0.22916  1.0000
  H   H901      1.0  0.48636  0.56139  0.17777  1.0000
  C   C1137     1.0  0.56366  0.54205  0.19898  1.0000
  C   C1138     1.0  0.41758  0.49182  0.41292  1.0000
  H   H902      1.0  0.56088  0.58203  0.18626  1.0000
  H   H903      1.0  0.51550  0.68295  0.44085  1.0000
  H   H904      1.0  0.39133  0.56576  0.37973  1.0000
  H   H905      1.0  0.42776  0.58482  0.39346  1.0000
  C   C1139     1.0  0.31428  0.72959  0.45933  1.0000
  P   P41       1.0  0.31624  0.71108  0.42787  1.0000
  H   H906      1.0  0.41729  0.50143  0.39098  1.0000
  C   C1140     1.0  0.35704  0.67974  0.47454  1.0000
  H   H907      1.0  0.62905  0.63203  0.04933  1.0000
  H   H908      1.0  0.59591  0.56037  0.46154  1.0000
  H   H909      1.0  0.61590  0.56841  0.02405  1.0000
  C   C1141     1.0  0.59182  0.61456  0.08501  1.0000
  H   H910      1.0  0.50883  0.53322  0.45857  1.0000
  H   H911      1.0  0.54818  0.58343  0.46465  1.0000
  C   C1142     1.0  0.52599  0.53546  0.26875  1.0000
  C   C1143     1.0  0.47210  0.64902  0.46321  1.0000
  H   H912      1.0  0.41112  0.68973  0.43852  1.0000
  H   H913      1.0  0.54171  0.73135  0.36868  1.0000
  H   H914      1.0  0.44162  0.69731  0.47632  1.0000
  H   H915      1.0  0.59705  0.63078  0.08948  1.0000
  C   C1144     1.0  0.55323  0.57760  0.28189  1.0000
  H   H916      1.0  0.45579  0.54347  0.38304  1.0000
  C   C1145     1.0  0.33779  0.68564  0.42521  1.0000
  C   C1146     1.0  0.48674  0.54635  0.38727  1.0000
  H   H917      1.0  0.46240  0.64774  0.44023  1.0000
  H   H918      1.0  0.51679  0.54722  0.39808  1.0000
  C   C1147     1.0  0.50170  0.54329  0.40818  1.0000
  H   H919      1.0  0.55203  0.57639  0.04628  1.0000
  H   H920      1.0  0.54939  0.55762  0.32645  1.0000
  C   C1148     1.0  0.53033  0.70648  0.40456  1.0000
  P   P42       1.0  0.47984  0.69073  0.46543  1.0000
  C   C1149     1.0  0.62542  0.58116  0.00913  1.0000
  C   C1150     1.0  0.46279  0.53416  0.43475  1.0000
  H   H921      1.0  0.38648  0.54427  0.48313  1.0000
  C   C1151     1.0  0.43193  0.55995  0.41988  1.0000
  H   H922      1.0  0.59269  0.62241  0.15590  1.0000
  H   H923      1.0  0.61318  0.55622  0.25563  1.0000
  C   C1152     1.0  0.32306  0.51286  0.42086  1.0000
  C   C1153     1.0  0.42053  0.56940  0.40221  1.0000
  C   C1154     1.0  0.49720  0.53543  0.44219  1.0000
  C   C1155     1.0  0.44089  0.69008  0.45057  1.0000
  C   C1156     1.0  0.51693  0.70496  0.29958  1.0000
  C   C1157     1.0  0.52725  0.51633  0.26461  1.0000
  C   C1158     1.0  0.55416  0.57313  0.31803  1.0000
  C   C1159     1.0  0.57345  0.60473  0.06678  1.0000
  C   C1160     1.0  0.39999  0.55872  0.39462  1.0000
  C   C1161     1.0  0.64000  0.64095  0.10340  1.0000
  C   C1162     1.0  0.42290  0.53962  0.42952  1.0000
  C   C1163     1.0  0.64441  0.58167  0.99801  1.0000
  H   H924      1.0  0.48148  0.72496  0.31659  1.0000
  H   H925      1.0  0.56056  0.58529  0.37175  1.0000
  H   H926      1.0  0.53274  0.70948  0.29343  1.0000
  C   C1164     1.0  0.59940  0.55241  0.23971  1.0000
  C   C1165     1.0  0.53268  0.62581  0.47783  1.0000
  C   C1166     1.0  0.50862  0.71965  0.30537  1.0000
  C   C1167     1.0  0.47781  0.53085  0.45542  1.0000
  H   H927      1.0  0.37498  0.53019  0.39818  1.0000
  H   H928      1.0  0.55359  0.71861  0.46915  1.0000
  H   H929      1.0  0.57090  0.62904  0.28968  1.0000
  H   H930      1.0  0.48818  0.72705  0.42358  1.0000
  C   C1168     1.0  0.55632  0.57486  0.47664  1.0000
  H   H931      1.0  0.58633  0.70106  0.10128  1.0000
  C   C1169     1.0  0.57058  0.69815  0.10622  1.0000
  H   H932      1.0  0.58612  0.62816  0.21807  1.0000
  C   C1170     1.0  0.60356  0.62227  0.17620  1.0000
  H   H933      1.0  0.32315  0.72201  0.29827  1.0000
  H   H934      1.0  0.57112  0.62096  0.35365  1.0000
  C   C1171     1.0  0.31966  0.71840  0.35483  1.0000
  H   H935      1.0  0.40168  0.49451  0.31935  1.0000
  C   C1172     1.0  0.47443  0.63151  0.47527  1.0000
  C   C1173     1.0  0.56072  0.58875  0.34379  1.0000
  C   C1174     1.0  0.64022  0.58530  0.14024  1.0000
  C   C1175     1.0  0.56250  0.68617  0.26667  1.0000
  H   H936      1.0  0.33311  0.68319  0.39737  1.0000
  H   H937      1.0  0.53906  0.51434  0.24919  1.0000
  H   H938      1.0  0.54504  0.59193  0.13466  1.0000
  C   C1176     1.0  0.56684  0.60891  0.33359  1.0000
  C   C1177     1.0  0.64243  0.60125  0.11700  1.0000
  H   H939      1.0  0.55896  0.67186  0.27989  1.0000
  C   C1178     1.0  0.34472  0.53428  0.46766  1.0000
  H   H940      1.0  0.35534  0.66678  0.42187  1.0000
  C   C1179     1.0  0.50023  0.72153  0.41938  1.0000
  C   C1180     1.0  0.63134  0.62302  0.23011  1.0000
  C   C1181     1.0  0.32940  0.72269  0.38843  1.0000
  H   H941      1.0  0.61014  0.53894  0.19686  1.0000
  C   C1182     1.0  0.59971  0.62550  0.21164  1.0000
  H   H942      1.0  0.47459  0.52492  0.48191  1.0000
  C   C1183     1.0  0.32026  0.49584  0.44129  1.0000
  C   C1184     1.0  0.32992  0.49799  0.47459  1.0000
  C   C1185     1.0  0.50864  0.58498  0.48354  1.0000
  C   C1186     1.0  0.33818  0.70154  0.48279  1.0000
  C   C1187     1.0  0.57278  0.57302  0.45948  1.0000
  H   H943      1.0  0.31595  0.51108  0.39462  1.0000
  H   H944      1.0  0.48642  0.48831  0.31223  1.0000
  C   C1188     1.0  0.58327  0.56201  0.47504  1.0000
  C   C1189     1.0  0.63843  0.64416  0.06691  1.0000
  C   C1190     1.0  0.61859  0.59699  0.00125  1.0000
  H   H945      1.0  0.64220  0.62353  0.25099  1.0000
  H   H946      1.0  0.53907  0.73498  0.12576  1.0000
  H   H947      1.0  0.45523  0.73299  0.38910  1.0000
  H   H948      1.0  0.50002  0.56903  0.48574  1.0000
  C   C1191     1.0  0.34267  0.51714  0.48762  1.0000
  C   C1192     1.0  0.35020  0.73452  0.39080  1.0000
  H   H949      1.0  0.59771  0.73406  0.26693  1.0000
  H   H950      1.0  0.36696  0.67266  0.48515  1.0000
  H   H951      1.0  0.49849  0.73480  0.48506  1.0000
  Fe  Fe76      1.0  0.51639  0.61617  0.68237  1.0000
  S   S152      1.0  0.49363  0.63100  0.68462  1.0000
  S   S153      1.0  0.53865  0.61620  0.72665  1.0000
  Fe  Fe77      1.0  0.50604  0.60313  0.60351  1.0000
  S   S154      1.0  0.48240  0.61676  0.60033  1.0000
  S   S155      1.0  0.51063  0.58518  0.55641  1.0000
  Fe  Fe78      1.0  0.50493  0.64300  0.63091  1.0000
  S   S156      1.0  0.51451  0.67508  0.61200  1.0000
  Fe  Fe79      1.0  0.47309  0.60322  0.65391  1.0000
  S   S157      1.0  0.43961  0.58837  0.66500  1.0000
  S   S158      1.0  0.52933  0.63020  0.63056  1.0000
  S   S159      1.0  0.49514  0.58757  0.65509  1.0000
  H   H952      1.0  0.50711  0.65188  0.54491  1.0000
  Fe  Fe80      1.0  0.55780  0.64344  0.93657  1.0000
  S   S160      1.0  0.59029  0.66461  0.93574  1.0000
  S   S161      1.0  0.53400  0.63593  0.89147  1.0000
  H   H953      1.0  0.62676  0.51403  0.96970  1.0000
  H   H954      1.0  0.43878  0.51911  0.67268  1.0000
  H   H955      1.0  0.56327  0.61123  0.61964  1.0000
  C   C1193     1.0  0.63934  0.53800  0.75723  1.0000
  H   H956      1.0  0.48863  0.61895  0.51424  1.0000
  C   C1194     1.0  0.52643  0.52878  0.56136  1.0000
  H   H957      1.0  0.53751  0.56728  0.52228  1.0000
  C   C1195     1.0  0.53737  0.62251  0.77213  1.0000
  C   C1196     1.0  0.55350  0.62394  0.79544  1.0000
  C   C1197     1.0  0.55298  0.62856  0.83190  1.0000
  C   C1198     1.0  0.53623  0.63171  0.84542  1.0000
  C   C1199     1.0  0.52021  0.63058  0.82200  1.0000
  C   C1200     1.0  0.52072  0.62592  0.78556  1.0000
  H   H958      1.0  0.56645  0.62133  0.78529  1.0000
  H   H959      1.0  0.56537  0.62934  0.84963  1.0000
  H   H960      1.0  0.50718  0.63299  0.83224  1.0000
  H   H961      1.0  0.50816  0.62478  0.76796  1.0000
  C   C1201     1.0  0.50246  0.69080  0.62845  1.0000
  C   C1202     1.0  0.48503  0.68319  0.64860  1.0000
  C   C1203     1.0  0.47586  0.69630  0.66129  1.0000
  C   C1204     1.0  0.51058  0.71145  0.62095  1.0000
  H   H962      1.0  0.47856  0.66722  0.65407  1.0000
  H   H963      1.0  0.46223  0.69043  0.67635  1.0000
  H   H964      1.0  0.52394  0.71738  0.60506  1.0000
  C   C1205     1.0  0.51577  0.59683  0.51459  1.0000
  C   C1206     1.0  0.37003  0.49049  0.50598  1.0000
  H   H965      1.0  0.49047  0.52608  0.89328  1.0000
  H   H966      1.0  0.53338  0.62665  0.53541  1.0000
  C   C1207     1.0  0.33185  0.53210  0.57717  1.0000
  C   C1208     1.0  0.40873  0.51941  0.67461  1.0000
  C   C1209     1.0  0.39725  0.53161  0.67407  1.0000
  C   C1210     1.0  0.40691  0.55275  0.67139  1.0000
  C   C1211     1.0  0.42804  0.56180  0.66888  1.0000
  C   C1212     1.0  0.43946  0.54955  0.66941  1.0000
  C   C1213     1.0  0.42983  0.52847  0.67216  1.0000
  H   H967      1.0  0.38100  0.52479  0.67620  1.0000
  H   H968      1.0  0.39798  0.56213  0.67138  1.0000
  H   H969      1.0  0.45571  0.55628  0.66785  1.0000
  C   C1214     1.0  0.53889  0.67127  0.72799  1.0000
  C   C1215     1.0  0.54574  0.68334  0.69842  1.0000
  C   C1216     1.0  0.53996  0.69977  0.69288  1.0000
  C   C1217     1.0  0.52722  0.70409  0.71675  1.0000
  C   C1218     1.0  0.52033  0.69211  0.74676  1.0000
  C   C1219     1.0  0.52606  0.67546  0.75185  1.0000
  P   P43       1.0  0.50223  0.69638  0.77576  1.0000
  C   C1220     1.0  0.47727  0.68383  0.75607  1.0000
  C   C1221     1.0  0.50320  0.68596  0.81904  1.0000
  C   C1222     1.0  0.48531  0.67552  0.83706  1.0000
  C   C1223     1.0  0.48612  0.66692  0.87000  1.0000
  C   C1224     1.0  0.50474  0.66867  0.88515  1.0000
  H   H970      1.0  0.48436  0.66004  0.73021  1.0000
  C   C1225     1.0  0.45566  0.56060  0.54476  1.0000
  C   C1226     1.0  0.43898  0.54142  0.80254  1.0000
  C   C1227     1.0  0.42421  0.52517  0.52184  1.0000
  C   C1228     1.0  0.43819  0.66355  0.72709  1.0000
  C   C1229     1.0  0.44248  0.68121  0.74773  1.0000
  C   C1230     1.0  0.46192  0.69128  0.76231  1.0000
  H   H971      1.0  0.53691  0.68041  0.87957  1.0000
  C   C1231     1.0  0.58279  0.72243  0.81350  1.0000
  C   C1232     1.0  0.36554  0.50005  0.53573  1.0000
  S   S162      1.0  0.56327  0.62223  0.97586  1.0000
  H   H972      1.0  0.54311  0.65832  0.73185  1.0000
  H   H973      1.0  0.55507  0.67962  0.67924  1.0000
  C   C1233     1.0  0.49580  0.57677  0.84981  1.0000
  C   C1234     1.0  0.49181  0.54025  0.88134  1.0000
  H   H974      1.0  0.52029  0.66536  0.77371  1.0000
  H   H975      1.0  0.47072  0.67388  0.82578  1.0000
  S   S163      1.0  0.39762  0.49292  0.67942  1.0000
  C   C1235     1.0  0.55944  0.58203  0.59695  1.0000
  C   C1236     1.0  0.45336  0.65602  0.72085  1.0000
  H   H976      1.0  0.49472  0.48842  0.51227  1.0000
  H   H977      1.0  0.54194  0.49982  0.58472  1.0000
  H   H978      1.0  0.53113  0.50747  0.52440  1.0000
  C   C1237     1.0  0.48422  0.71703  0.65440  1.0000
  H   H979      1.0  0.46495  0.70488  0.77836  1.0000
  C   C1238     1.0  0.59059  0.50580  0.60320  1.0000
  C   C1239     1.0  0.48061  0.55873  0.83729  1.0000
  H   H980      1.0  0.53586  0.69616  0.82169  1.0000
  H   H981      1.0  0.36837  0.50363  0.59312  1.0000
  C   C1240     1.0  0.57669  0.69248  0.84851  1.0000
  C   C1241     1.0  0.59796  0.55154  0.88783  1.0000
  H   H982      1.0  0.41383  0.52365  0.57579  1.0000
  C   C1242     1.0  0.42532  0.53192  0.55724  1.0000
  C   C1243     1.0  0.63199  0.51373  0.86718  1.0000
  C   C1244     1.0  0.47502  0.72792  0.56407  1.0000
  C   C1245     1.0  0.50157  0.72452  0.63404  1.0000
  H   H983      1.0  0.34078  0.54739  0.56961  1.0000
  H   H984      1.0  0.46915  0.49944  0.54042  1.0000
  C   C1246     1.0  0.54449  0.73084  0.51544  1.0000
  C   C1247     1.0  0.56969  0.49629  0.59808  1.0000
  H   H985      1.0  0.39671  0.51839  0.75030  1.0000
  C   C1248     1.0  0.59993  0.52663  0.59863  1.0000
  C   C1249     1.0  0.61025  0.59313  0.90125  1.0000
  H   H986      1.0  0.56106  0.59988  0.68189  1.0000
  H   H987      1.0  0.45670  0.69927  0.58554  1.0000
  C   C1250     1.0  0.50245  0.73340  0.75264  1.0000
  C   C1251     1.0  0.38246  0.55085  0.57223  1.0000
  C   C1252     1.0  0.40019  0.56789  0.57809  1.0000
  C   C1253     1.0  0.41260  0.57662  0.54969  1.0000
  C   C1254     1.0  0.61111  0.54679  0.79818  1.0000
  C   C1255     1.0  0.46165  0.59071  0.76072  1.0000
  H   H988      1.0  0.48021  0.52993  0.58016  1.0000
  C   C1256     1.0  0.43101  0.53362  0.83549  1.0000
  P   P44       1.0  0.55308  0.54342  0.56816  1.0000
  H   H989      1.0  0.37354  0.54380  0.59488  1.0000
  C   C1257     1.0  0.55811  0.50752  0.58777  1.0000
  H   H990      1.0  0.40462  0.57406  0.60484  1.0000
  H   H991      1.0  0.42652  0.58958  0.55453  1.0000
  H   H992      1.0  0.43175  0.54291  0.74668  1.0000
  H   H993      1.0  0.54471  0.70867  0.66921  1.0000
  C   C1258     1.0  0.46536  0.70690  0.56300  1.0000
  C   C1259     1.0  0.62366  0.58532  0.88617  1.0000
  H   H994      1.0  0.44187  0.55501  0.59598  1.0000
  C   C1260     1.0  0.50790  0.72328  0.78028  1.0000
  H   H995      1.0  0.45778  0.61462  0.73112  1.0000
  P   P45       1.0  0.46487  0.55880  0.79914  1.0000
  H   H996      1.0  0.45629  0.63462  0.78508  1.0000
  C   C1261     1.0  0.46298  0.58320  0.79458  1.0000
  H   H997      1.0  0.46841  0.52615  0.84188  1.0000
  C   C1262     1.0  0.45920  0.60918  0.75737  1.0000
  C   C1263     1.0  0.45821  0.62034  0.78768  1.0000
  C   C1264     1.0  0.45928  0.61283  0.82144  1.0000
  C   C1265     1.0  0.46132  0.59417  0.82491  1.0000
  H   H998      1.0  0.61615  0.53395  0.60284  1.0000
  H   H999      1.0  0.55543  0.56419  0.69458  1.0000
  C   C1266     1.0  0.40746  0.56816  0.51544  1.0000
  C   C1267     1.0  0.62954  0.54799  0.81393  1.0000
  H   H1000     1.0  0.59589  0.55410  0.58521  1.0000
  C   C1268     1.0  0.47711  0.55291  0.76136  1.0000
  C   C1269     1.0  0.49576  0.56699  0.75077  1.0000
  C   C1270     1.0  0.50592  0.56234  0.72254  1.0000
  C   C1271     1.0  0.49743  0.54374  0.70439  1.0000
  C   C1272     1.0  0.47899  0.52953  0.71506  1.0000
  C   C1273     1.0  0.46897  0.53396  0.74373  1.0000
  H   H1001     1.0  0.49812  0.59099  0.83727  1.0000
  C   C1274     1.0  0.55043  0.56583  0.50950  1.0000
  C   C1275     1.0  0.52762  0.61738  0.51166  1.0000
  H   H1002     1.0  0.60816  0.48979  0.52984  1.0000
  H   H1003     1.0  0.45835  0.62136  0.84497  1.0000
  H   H1004     1.0  0.46160  0.58833  0.85127  1.0000
  H   H1005     1.0  0.41166  0.51182  0.51311  1.0000
  C   C1276     1.0  0.57828  0.70158  0.81541  1.0000
  C   C1277     1.0  0.51186  0.53523  0.57638  1.0000
  H   H1006     1.0  0.57603  0.69243  0.79125  1.0000
  H   H1007     1.0  0.50253  0.58156  0.76438  1.0000
  H   H1008     1.0  0.52025  0.57334  0.71441  1.0000
  H   H1009     1.0  0.50515  0.54039  0.68205  1.0000
  H   H1010     1.0  0.47242  0.51504  0.70117  1.0000
  H   H1011     1.0  0.45497  0.52250  0.75198  1.0000
  H   H1012     1.0  0.33398  0.71147  0.50019  1.0000
  C   C1278     1.0  0.42623  0.53638  0.77211  1.0000
  H   H1013     1.0  0.44011  0.53810  0.85971  1.0000
  H   H1014     1.0  0.59958  0.49704  0.61083  1.0000
  H   H1015     1.0  0.31443  0.54167  0.61470  1.0000
  H   H1016     1.0  0.59992  0.55000  0.81351  1.0000
  H   H1017     1.0  0.43079  0.68721  0.75209  1.0000
  S   S164      1.0  0.62324  0.63466  0.97203  1.0000
  C   C1279     1.0  0.56127  0.55527  0.52594  1.0000
  H   H1018     1.0  0.49460  0.72517  0.72902  1.0000
  S   S165      1.0  0.58406  0.71474  0.98052  1.0000
  C   C1280     1.0  0.56748  0.52838  0.58197  1.0000
  C   C1281     1.0  0.45463  0.55381  0.50943  1.0000
  C   C1282     1.0  0.62799  0.51381  0.94102  1.0000
  H   H1019     1.0  0.56039  0.58747  0.57014  1.0000
  H   H1020     1.0  0.47232  0.65878  0.88378  1.0000
  P   P46       1.0  0.63491  0.55392  0.86087  1.0000
  H   H1021     1.0  0.40346  0.73292  0.61113  1.0000
  H   H1022     1.0  0.50321  0.68285  0.52414  1.0000
  H   H1023     1.0  0.42321  0.65587  0.71544  1.0000
  C   C1283     1.0  0.46716  0.69576  0.53325  1.0000
  H   H1024     1.0  0.51974  0.59075  0.88857  1.0000
  H   H1025     1.0  0.51596  0.55841  0.91714  1.0000
  H   H1026     1.0  0.61761  0.53220  0.71401  1.0000
  H   H1027     1.0  0.56957  0.54941  0.90999  1.0000
  H   H1028     1.0  0.59302  0.53538  0.88291  1.0000
  C   C1284     1.0  0.50833  0.57664  0.87871  1.0000
  C   C1285     1.0  0.49728  0.65108  0.52214  1.0000
  P   P47       1.0  0.35518  0.51940  0.53056  1.0000
  H   H1029     1.0  0.46770  0.57450  0.55357  1.0000
  C   C1286     1.0  0.58462  0.55943  0.90313  1.0000
  H   H1030     1.0  0.57300  0.67629  0.85011  1.0000
  C   C1287     1.0  0.50623  0.55842  0.89469  1.0000
  C   C1288     1.0  0.55481  0.55539  0.63924  1.0000
  H   H1031     1.0  0.46210  0.58219  0.73684  1.0000
  C   C1289     1.0  0.33554  0.51561  0.56247  1.0000
  H   H1032     1.0  0.45014  0.64256  0.70423  1.0000
  H   H1033     1.0  0.53528  0.71616  0.52552  1.0000
  C   C1290     1.0  0.37106  0.49591  0.56988  1.0000
  H   H1034     1.0  0.63377  0.51324  0.83874  1.0000
  H   H1035     1.0  0.59265  0.54030  0.75014  1.0000
  H   H1036     1.0  0.55216  0.53979  0.64521  1.0000
  H   H1037     1.0  0.51625  0.54870  0.59325  1.0000
  C   C1291     1.0  0.47282  0.66608  0.73537  1.0000
  C   C1292     1.0  0.58841  0.53792  0.58845  1.0000
  H   H1038     1.0  0.45944  0.67947  0.53282  1.0000
  C   C1293     1.0  0.37683  0.54264  0.53768  1.0000
  Fe  Fe81      1.0  0.59567  0.64432  0.97792  1.0000
  C   C1294     1.0  0.47921  0.54037  0.85244  1.0000
  C   C1295     1.0  0.44112  0.54958  0.56872  1.0000
  C   C1296     1.0  0.49505  0.66864  0.51016  1.0000
  C   C1297     1.0  0.55975  0.58924  0.66019  1.0000
  C   C1298     1.0  0.48510  0.50763  0.54610  1.0000
  C   C1299     1.0  0.49130  0.52466  0.56878  1.0000
  H   H1039     1.0  0.62995  0.54442  0.93637  1.0000
  C   C1300     1.0  0.52257  0.67932  0.86771  1.0000
  C   C1301     1.0  0.56111  0.59567  0.62508  1.0000
  C   C1302     1.0  0.60691  0.54129  0.76215  1.0000
  C   C1303     1.0  0.52010  0.51212  0.53753  1.0000
  H   H1040     1.0  0.52238  0.71640  0.71086  1.0000
  C   C1304     1.0  0.49951  0.50143  0.53032  1.0000
  C   C1305     1.0  0.55659  0.56912  0.66729  1.0000
  C   C1306     1.0  0.62098  0.53680  0.74175  1.0000
  H   H1041     1.0  0.52233  0.72708  0.83267  1.0000
  H   H1042     1.0  0.50544  0.66166  0.91032  1.0000
  C   C1307     1.0  0.57752  0.55308  0.50805  1.0000
  C   C1308     1.0  0.55628  0.56175  0.60382  1.0000
  C   C1309     1.0  0.62999  0.49645  0.88634  1.0000
  H   H1043     1.0  0.58570  0.54436  0.51905  1.0000
  C   C1310     1.0  0.52187  0.68805  0.83489  1.0000
  H   H1044     1.0  0.58064  0.58640  0.92224  1.0000
  H   H1045     1.0  0.38323  0.50363  0.80810  1.0000
  C   C1311     1.0  0.58456  0.72509  0.87787  1.0000
  C   C1312     1.0  0.57999  0.70429  0.87968  1.0000
  H   H1046     1.0  0.40494  0.51378  0.86281  1.0000
  Fe  Fe82      1.0  0.58310  0.68191  0.98102  1.0000
  H   H1047     1.0  0.35615  0.69504  0.52395  1.0000
  C   C1313     1.0  0.62823  0.49655  0.92327  1.0000
  C   C1314     1.0  0.63207  0.53126  0.88490  1.0000
  C   C1315     1.0  0.64366  0.54370  0.79308  1.0000
  H   H1048     1.0  0.57897  0.69738  0.90545  1.0000
  C   C1316     1.0  0.38977  0.55111  0.50951  1.0000
  H   H1049     1.0  0.58447  0.72922  0.78762  1.0000
  C   C1317     1.0  0.59080  0.58022  0.90995  1.0000
  H   H1050     1.0  0.45129  0.73306  0.74776  1.0000
  C   C1318     1.0  0.41098  0.51998  0.83745  1.0000
  C   C1319     1.0  0.51794  0.73437  0.81079  1.0000
  C   C1320     1.0  0.48690  0.63252  0.50484  1.0000
  C   C1321     1.0  0.47883  0.70556  0.50437  1.0000
  C   C1322     1.0  0.39869  0.51434  0.80671  1.0000
  C   C1323     1.0  0.61761  0.56443  0.87932  1.0000
  C   C1324     1.0  0.31679  0.52892  0.60239  1.0000
  H   H1051     1.0  0.61506  0.60925  0.90686  1.0000
  C   C1325     1.0  0.63072  0.61379  0.98225  1.0000
  H   H1052     1.0  0.63876  0.59566  0.88045  1.0000
  C   C1326     1.0  0.43915  0.53576  0.49789  1.0000
  H   H1053     1.0  0.46576  0.56280  0.49108  1.0000
  C   C1327     1.0  0.32324  0.49590  0.57181  1.0000
  C   C1328     1.0  0.62985  0.53108  0.92197  1.0000
  C   C1329     1.0  0.48892  0.72669  0.50612  1.0000
  S   S166      1.0  0.55046  0.66137  0.97977  1.0000
  C   C1330     1.0  0.40628  0.52266  0.77412  1.0000
  C   C1331     1.0  0.35091  0.69231  0.49641  1.0000
  H   H1054     1.0  0.43519  0.49347  0.49826  1.0000
  H   H1055     1.0  0.41745  0.57451  0.49363  1.0000
  H   H1056     1.0  0.58732  0.73401  0.90242  1.0000
  S   S167      1.0  0.47270  0.73321  0.67140  1.0000
  C   C1332     1.0  0.58525  0.73422  0.84481  1.0000
  Fe  Fe83      1.0  0.35184  0.80147  0.30406  1.0000
  S   S168      1.0  0.33654  0.82339  0.31472  1.0000
  S   S169      1.0  0.38554  0.81407  0.31461  1.0000
  H   H1057     1.0  0.54239  0.77468  0.23694  1.0000
  C   C1333     1.0  0.35521  0.76729  0.18756  1.0000
  H   H1058     1.0  0.42177  0.95756  0.05332  1.0000
  H   H1059     1.0  0.56171  0.81743  0.43869  1.0000
  C   C1334     1.0  0.38405  0.83588  0.18720  1.0000
  Fe  Fe84      1.0  0.50904  0.76754  0.30322  1.0000
  S   S170      1.0  0.52844  0.79998  0.31530  1.0000
  C   C1335     1.0  0.59274  0.92504  0.12995  1.0000
  Fe  Fe85      1.0  0.47161  0.77666  0.28999  1.0000
  S   S171      1.0  0.48822  0.80989  0.30013  1.0000
  S   S172      1.0  0.43806  0.76208  0.27705  1.0000
  Fe  Fe86      1.0  0.51296  0.80660  0.26706  1.0000
  S   S173      1.0  0.53347  0.83085  0.23062  1.0000
  Fe  Fe87      1.0  0.50227  0.80031  0.34720  1.0000
  S   S174      1.0  0.50401  0.81643  0.40062  1.0000
  S   S175      1.0  0.49518  0.77392  0.25312  1.0000
  S   S176      1.0  0.48409  0.76724  0.33889  1.0000
  Fe  Fe88      1.0  0.56512  0.84492  0.01985  1.0000
  S   S177      1.0  0.59924  0.85674  0.02354  1.0000
  S   S178      1.0  0.54017  0.83471  0.06145  1.0000
  H   H1060     1.0  0.59898  0.90753  0.04813  1.0000
  H   H1061     1.0  0.35671  0.75996  0.21193  1.0000
  C   C1336     1.0  0.33438  0.81753  0.44087  1.0000
  C   C1337     1.0  0.36135  0.84752  0.11936  1.0000
  H   H1062     1.0  0.35599  0.87062  0.47860  1.0000
  C   C1338     1.0  0.36785  0.84406  0.23819  1.0000
  C   C1339     1.0  0.59789  0.80320  0.40361  1.0000
  C   C1340     1.0  0.50695  0.81778  0.47336  1.0000
  H   H1063     1.0  0.35960  0.85137  0.14660  1.0000
  H   H1064     1.0  0.38655  0.79014  0.38328  1.0000
  C   C1341     1.0  0.53609  0.83004  0.18365  1.0000
  C   C1342     1.0  0.55338  0.84413  0.16818  1.0000
  C   C1343     1.0  0.55550  0.84497  0.13087  1.0000
  C   C1344     1.0  0.54007  0.83203  0.10850  1.0000
  C   C1345     1.0  0.52287  0.81783  0.12402  1.0000
  C   C1346     1.0  0.52101  0.81660  0.16132  1.0000
  H   H1065     1.0  0.56512  0.85463  0.18517  1.0000
  H   H1066     1.0  0.56872  0.85610  0.11942  1.0000
  H   H1067     1.0  0.51079  0.80782  0.10700  1.0000
  H   H1068     1.0  0.50768  0.80560  0.17269  1.0000
  H   H1069     1.0  0.36420  0.80047  0.42196  1.0000
  C   C1347     1.0  0.39962  0.79909  0.30470  1.0000
  C   C1348     1.0  0.41977  0.80555  0.31682  1.0000
  C   C1349     1.0  0.43152  0.79408  0.30904  1.0000
  C   C1350     1.0  0.42325  0.77614  0.28884  1.0000
  C   C1351     1.0  0.40299  0.76956  0.27696  1.0000
  C   C1352     1.0  0.39120  0.78106  0.28479  1.0000
  H   H1070     1.0  0.42631  0.81945  0.33238  1.0000
  H   H1071     1.0  0.44698  0.79914  0.31874  1.0000
  H   H1072     1.0  0.39655  0.75573  0.26119  1.0000
  H   H1073     1.0  0.37571  0.77616  0.27509  1.0000
  C   C1353     1.0  0.36651  0.83492  0.20468  1.0000
  C   C1354     1.0  0.50910  0.80774  0.44223  1.0000
  C   C1355     1.0  0.51572  0.79162  0.44505  1.0000
  H   H1074     1.0  0.41327  0.78021  0.40965  1.0000
  H   H1075     1.0  0.51765  0.78392  0.42123  1.0000
  H   H1076     1.0  0.44909  0.85870  0.09349  1.0000
  H   H1077     1.0  0.34087  0.86492  0.41759  1.0000
  H   H1078     1.0  0.41489  0.85556  0.11163  1.0000
  C   C1356     1.0  0.32520  0.75033  0.45521  1.0000
  C   C1357     1.0  0.37411  0.93003  0.10820  1.0000
  H   H1079     1.0  0.35421  0.84359  0.25101  1.0000
  S   S179      1.0  0.33556  0.79040  0.25165  1.0000
  H   H1080     1.0  0.37703  0.75125  0.36185  1.0000
  H   H1081     1.0  0.54014  0.73933  0.24032  1.0000
  C   C1358     1.0  0.40667  0.82501  0.13041  1.0000
  C   C1359     1.0  0.41334  0.80896  0.13515  1.0000
  C   C1360     1.0  0.36449  0.83792  0.04789  1.0000
  C   C1361     1.0  0.54052  0.74600  0.21457  1.0000
  C   C1362     1.0  0.43256  0.80666  0.21809  1.0000
  C   C1363     1.0  0.44084  0.79251  0.20787  1.0000
  C   C1364     1.0  0.46176  0.79838  0.20532  1.0000
  C   C1365     1.0  0.47440  0.81848  0.21243  1.0000
  C   C1366     1.0  0.46614  0.83295  0.22120  1.0000
  C   C1367     1.0  0.44518  0.82675  0.22517  1.0000
  P   P48       1.0  0.48255  0.85867  0.23171  1.0000
  C   C1368     1.0  0.46872  0.87514  0.22631  1.0000
  C   C1369     1.0  0.49091  0.85870  0.27730  1.0000
  C   C1370     1.0  0.47679  0.85462  0.30458  1.0000
  C   C1371     1.0  0.48288  0.85405  0.33998  1.0000
  C   C1372     1.0  0.50303  0.85726  0.34832  1.0000
  C   C1373     1.0  0.51703  0.86074  0.32125  1.0000
  C   C1374     1.0  0.51099  0.86128  0.28581  1.0000
  C   C1375     1.0  0.45810  0.87440  0.19423  1.0000
  C   C1376     1.0  0.44745  0.88719  0.18928  1.0000
  C   C1377     1.0  0.44742  0.90085  0.21630  1.0000
  C   C1378     1.0  0.45826  0.90192  0.24809  1.0000
  C   C1379     1.0  0.46903  0.88924  0.25302  1.0000
  C   C1380     1.0  0.50301  0.86801  0.20095  1.0000
  C   C1381     1.0  0.50198  0.85846  0.16759  1.0000
  C   C1382     1.0  0.51770  0.86619  0.14372  1.0000
  C   C1383     1.0  0.53442  0.88361  0.15269  1.0000
  C   C1384     1.0  0.53530  0.89358  0.18533  1.0000
  C   C1385     1.0  0.51955  0.88594  0.20922  1.0000
  H   H1082     1.0  0.41645  0.80185  0.22199  1.0000
  H   H1083     1.0  0.43114  0.77674  0.20377  1.0000
  H   H1084     1.0  0.46821  0.78719  0.19910  1.0000
  H   H1085     1.0  0.49063  0.82267  0.21175  1.0000
  H   H1086     1.0  0.43859  0.83722  0.23481  1.0000
  H   H1087     1.0  0.46100  0.85150  0.29845  1.0000
  H   H1088     1.0  0.47190  0.85051  0.36087  1.0000
  H   H1089     1.0  0.50764  0.85629  0.37564  1.0000
  H   H1090     1.0  0.53241  0.86224  0.32759  1.0000
  H   H1091     1.0  0.52187  0.86293  0.26521  1.0000
  H   H1092     1.0  0.45807  0.86388  0.17312  1.0000
  H   H1093     1.0  0.43919  0.88648  0.16453  1.0000
  H   H1094     1.0  0.43910  0.91071  0.21255  1.0000
  H   H1095     1.0  0.45843  0.91268  0.26891  1.0000
  H   H1096     1.0  0.47767  0.89065  0.27753  1.0000
  H   H1097     1.0  0.48920  0.84500  0.15985  1.0000
  H   H1098     1.0  0.51716  0.85842  0.11846  1.0000
  H   H1099     1.0  0.54671  0.88925  0.13435  1.0000
  H   H1100     1.0  0.54826  0.90711  0.19227  1.0000
  H   H1101     1.0  0.52037  0.89390  0.23430  1.0000
  C   C1386     1.0  0.40417  0.85396  0.23861  1.0000
  C   C1387     1.0  0.40292  0.84538  0.20452  1.0000
  C   C1388     1.0  0.60122  0.91794  0.07058  1.0000
  C   C1389     1.0  0.44967  0.74140  0.40763  1.0000
  C   C1390     1.0  0.37565  0.79576  0.43382  1.0000
  C   C1391     1.0  0.38817  0.78975  0.41200  1.0000
  C   C1392     1.0  0.38259  0.95120  0.10883  1.0000
  H   H1102     1.0  0.54587  0.77359  0.35778  1.0000
  H   H1103     1.0  0.41866  0.86075  0.25241  1.0000
  H   H1104     1.0  0.41660  0.84574  0.19224  1.0000
  H   H1105     1.0  0.54930  0.77390  0.42308  1.0000
  H   H1106     1.0  0.31370  0.79297  0.11284  1.0000
  H   H1107     1.0  0.36926  0.80166  0.48787  1.0000
  C   C1393     1.0  0.54234  0.77487  0.17961  1.0000
  H   H1108     1.0  0.41041  0.97344  0.16017  1.0000
  H   H1109     1.0  0.35171  0.82702  0.19252  1.0000
  C   C1394     1.0  0.56043  0.78166  0.37057  1.0000
  H   H1110     1.0  0.47486  0.84533  0.45417  1.0000
  H   H1111     1.0  0.52615  0.77390  0.48076  1.0000
  H   H1112     1.0  0.35809  0.73784  0.41639  1.0000
  C   C1395     1.0  0.58129  0.79238  0.42438  1.0000
  C   C1396     1.0  0.56248  0.78180  0.40757  1.0000
  H   H1113     1.0  0.37595  0.90256  0.08684  1.0000
  H   H1114     1.0  0.38751  0.85956  0.28214  1.0000
  C   C1397     1.0  0.59575  0.80304  0.36652  1.0000
  C   C1398     1.0  0.54186  0.76604  0.21268  1.0000
  H   H1115     1.0  0.62500  0.94189  0.04592  1.0000
  H   H1116     1.0  0.34454  0.86496  0.09956  1.0000
  C   C1399     1.0  0.38663  0.85334  0.25541  1.0000
  C   C1400     1.0  0.40320  0.78396  0.42714  1.0000
  H   H1117     1.0  0.37892  0.79539  0.20253  1.0000
  H   H1118     1.0  0.45148  0.81045  0.44034  1.0000
  H   H1119     1.0  0.43791  0.79854  0.12893  1.0000
  S   S180      1.0  0.33030  0.77642  0.33588  1.0000
  C   C1401     1.0  0.35440  0.85070  0.05692  1.0000
  C   C1402     1.0  0.39983  0.96145  0.08909  1.0000
  H   H1120     1.0  0.34884  0.79349  0.10098  1.0000
  H   H1121     1.0  0.57866  0.89633  0.10190  1.0000
  C   C1403     1.0  0.31358  0.80640  0.43809  1.0000
  H   H1122     1.0  0.46072  0.83028  0.10239  1.0000
  H   H1123     1.0  0.57523  0.79220  0.32127  1.0000
  C   C1404     1.0  0.45621  0.76856  0.45141  1.0000
  C   C1405     1.0  0.35293  0.85556  0.09259  1.0000
  C   C1406     1.0  0.35095  0.78640  0.12515  1.0000
  C   C1407     1.0  0.35126  0.73743  0.32675  1.0000
  C   C1408     1.0  0.33832  0.76632  0.13083  1.0000
  C   C1409     1.0  0.56524  0.82230  0.46619  1.0000
  C   C1410     1.0  0.34398  0.82282  0.47470  1.0000
  H   H1124     1.0  0.60964  0.95467  0.15167  1.0000
  C   C1411     1.0  0.42174  0.74761  0.43412  1.0000
  C   C1412     1.0  0.44567  0.82885  0.11020  1.0000
  H   H1125     1.0  0.60854  0.81148  0.35053  1.0000
  P   P49       1.0  0.58330  0.79357  0.47235  1.0000
  H   H1126     1.0  0.57406  0.75201  0.44558  1.0000
  S   S181      1.0  0.52448  0.74529  0.30429  1.0000
  H   H1127     1.0  0.50259  0.83068  0.47132  1.0000
  P   P50       1.0  0.38196  0.82322  0.14453  1.0000
  H   H1128     1.0  0.35964  0.74299  0.30288  1.0000
  H   H1129     1.0  0.33288  0.78014  0.47780  1.0000
  H   H1130     1.0  0.57555  0.73698  0.21813  1.0000
  C   C1413     1.0  0.54138  0.76359  0.14841  1.0000
  C   C1414     1.0  0.43536  0.76395  0.45414  1.0000
  C   C1415     1.0  0.34041  0.75679  0.16206  1.0000
  H   H1131     1.0  0.61153  0.96849  0.03416  1.0000
  H   H1132     1.0  0.33450  0.75598  0.43239  1.0000
  H   H1133     1.0  0.61243  0.81193  0.41588  1.0000
  C   C1416     1.0  0.32421  0.76422  0.48089  1.0000
  H   H1134     1.0  0.55095  0.84402  0.46183  1.0000
  H   H1135     1.0  0.36521  0.83386  0.02020  1.0000
  C   C1417     1.0  0.46743  0.83550  0.47559  1.0000
  C   C1418     1.0  0.37135  0.83444  0.11060  1.0000
  Fe  Fe89      1.0  0.31838  0.81022  0.26437  1.0000
  H   H1136     1.0  0.38050  0.81975  0.06708  1.0000
  H   H1137     1.0  0.40370  0.79495  0.14675  1.0000
  C   C1419     1.0  0.36777  0.78740  0.18210  1.0000
  C   C1420     1.0  0.36568  0.79716  0.15091  1.0000
  C   C1421     1.0  0.41972  0.84298  0.11541  1.0000
  H   H1138     1.0  0.36061  0.92223  0.12304  1.0000
  C   C1422     1.0  0.37301  0.82989  0.07456  1.0000
  C   C1423     1.0  0.42890  0.73657  0.41058  1.0000
  C   C1424     1.0  0.33130  0.86302  0.44041  1.0000
  C   C1425     1.0  0.60732  0.94471  0.12867  1.0000
  C   C1426     1.0  0.43912  0.84485  0.10524  1.0000
  H   H1139     1.0  0.32678  0.75825  0.11109  1.0000
  H   H1140     1.0  0.34715  0.85632  0.03633  1.0000
  H   H1141     1.0  0.54343  0.79044  0.17818  1.0000
  C   C1427     1.0  0.40563  0.78389  0.46436  1.0000
  C   C1428     1.0  0.43278  0.81093  0.12508  1.0000
  C   C1429     1.0  0.57702  0.79223  0.34999  1.0000
  C   C1430     1.0  0.31248  0.80880  0.16154  1.0000
  Fe  Fe90      1.0  0.31412  0.79778  0.34361  1.0000
  H   H1142     1.0  0.37548  0.95959  0.12421  1.0000
  H   H1143     1.0  0.46706  0.78086  0.46702  1.0000
  C   C1431     1.0  0.61904  0.95109  0.09826  1.0000
  C   C1432     1.0  0.39999  0.92900  0.06834  1.0000
  H   H1144     1.0  0.34293  0.82265  0.41704  1.0000
  H   H1145     1.0  0.34160  0.98148  0.04330  1.0000
  H   H1146     1.0  0.54177  0.77051  0.12278  1.0000
  H   H1147     1.0  0.61716  0.83232  0.48276  1.0000
  H   H1148     1.0  0.58400  0.92006  0.15366  1.0000
  C   C1433     1.0  0.52046  0.78595  0.47880  1.0000
  H   H1149     1.0  0.35998  0.83188  0.47663  1.0000
  C   C1434     1.0  0.56638  0.75123  0.47044  1.0000
  Fe  Fe91      1.0  0.31230  0.76734  0.28439  1.0000
  C   C1435     1.0  0.58971  0.91166  0.10092  1.0000
  H   H1150     1.0  0.40655  0.92040  0.05221  1.0000
  H   H1151     1.0  0.33050  0.74130  0.16669  1.0000
  C   C1436     1.0  0.61587  0.93750  0.06931  1.0000
  C   C1437     1.0  0.33980  0.86621  0.47476  1.0000
  C   C1438     1.0  0.37843  0.79637  0.47078  1.0000
  H   H1152     1.0  0.37042  0.97080  0.04995  1.0000
  C   C1439     1.0  0.46329  0.75731  0.42817  1.0000
  C   C1440     1.0  0.40857  0.95016  0.06902  1.0000
  C   C1441     1.0  0.38275  0.91895  0.08783  1.0000
  H   H1153     1.0  0.47937  0.76117  0.42560  1.0000
  C   C1442     1.0  0.39351  0.79075  0.48596  1.0000
  P   P51       1.0  0.42596  0.77806  0.48444  1.0000
  C   C1443     1.0  0.55915  0.83757  0.47920  1.0000
  H   H1154     1.0  0.31630  0.79851  0.17837  1.0000
  C   C1444     1.0  0.45428  0.81565  0.46787  1.0000
  C   C1445     1.0  0.36103  0.74202  0.36005  1.0000
  C   C1446     1.0  0.37121  0.98477  0.06292  1.0000
  C   C1447     1.0  0.53989  0.74345  0.15025  1.0000
  H   H1155     1.0  0.40560  0.74361  0.43633  1.0000
  P   P52       1.0  0.63924  0.97575  0.09719  1.0000
  H   H1156     1.0  0.51501  0.74462  0.38182  1.0000
  C   C1448     1.0  0.61907  0.98460  0.03873  1.0000
  C   C1449     1.0  0.60933  0.79996  0.48644  1.0000
  C   C1450     1.0  0.56281  0.84386  0.51485  1.0000
  C   C1451     1.0  0.58793  0.90649  0.89076  1.0000
  C   C1452     1.0  0.51110  0.81177  0.50709  1.0000
  C   C1453     1.0  0.40757  0.74083  0.58632  1.0000
  Fe  Fe92      1.0  0.34597  0.78198  0.65543  1.0000
  S   S182      1.0  0.36960  0.76941  0.67206  1.0000
  S   S183      1.0  0.35096  0.81496  0.65157  1.0000
  Fe  Fe93      1.0  0.48920  0.76628  0.66015  1.0000
  S   S184      1.0  0.52245  0.77999  0.65143  1.0000
  H   H1157     1.0  0.32409  0.79845  0.76269  1.0000
  Fe  Fe94      1.0  0.48379  0.80566  0.64681  1.0000
  S   S185      1.0  0.51688  0.82253  0.63654  1.0000
  S   S186      1.0  0.46154  0.82112  0.64077  1.0000
  Fe  Fe95      1.0  0.51406  0.79467  0.60437  1.0000
  S   S187      1.0  0.52680  0.79035  0.55136  1.0000
  Fe  Fe96      1.0  0.52211  0.80630  0.68479  1.0000
  S   S188      1.0  0.54829  0.81950  0.72530  1.0000
  S   S189      1.0  0.48078  0.77919  0.61130  1.0000
  S   S190      1.0  0.48915  0.79143  0.69704  1.0000
  Fe  Fe97      1.0  0.56509  0.84426  0.93705  1.0000
  S   S191      1.0  0.59904  0.85589  0.93546  1.0000
  S   S192      1.0  0.54160  0.83647  0.89124  1.0000
  S   S193      1.0  0.61395  0.81202  0.97877  1.0000
  C   C1454     1.0  0.62270  0.78351  0.88968  1.0000
  H   H1158     1.0  0.34896  0.91934  0.97543  1.0000
  C   C1455     1.0  0.31823  0.80533  0.81672  1.0000
  C   C1456     1.0  0.33301  0.81659  0.50600  1.0000
  H   H1159     1.0  0.56224  0.74190  0.97704  1.0000
  H   H1160     1.0  0.58693  0.81339  0.54236  1.0000
  H   H1161     1.0  0.32758  0.75540  0.85267  1.0000
  C   C1457     1.0  0.57746  0.89288  0.86354  1.0000
  C   C1458     1.0  0.54626  0.82396  0.77148  1.0000
  C   C1459     1.0  0.56368  0.83001  0.79374  1.0000
  C   C1460     1.0  0.56260  0.83376  0.83051  1.0000
  C   C1461     1.0  0.54403  0.83147  0.84539  1.0000
  C   C1462     1.0  0.52665  0.82528  0.82311  1.0000
  C   C1463     1.0  0.52774  0.82164  0.78641  1.0000
  H   H1162     1.0  0.57809  0.83183  0.78248  1.0000
  H   H1163     1.0  0.57613  0.83856  0.84723  1.0000
  H   H1164     1.0  0.51222  0.82327  0.83434  1.0000
  H   H1165     1.0  0.51427  0.81694  0.76965  1.0000
  H   H1166     1.0  0.64391  0.91017  0.80598  1.0000
  C   C1464     1.0  0.51832  0.79612  0.50993  1.0000
  C   C1465     1.0  0.62247  0.82034  0.48921  1.0000
  H   H1167     1.0  0.50969  0.81992  0.53076  1.0000
  C   C1466     1.0  0.48682  0.73777  0.53574  1.0000
  C   C1467     1.0  0.58619  0.76965  0.80036  1.0000
  H   H1168     1.0  0.62414  0.74734  0.98473  1.0000
  C   C1468     1.0  0.55842  0.76735  0.52193  1.0000
  C   C1469     1.0  0.43598  0.80643  0.64846  1.0000
  C   C1470     1.0  0.42978  0.78589  0.65624  1.0000
  C   C1471     1.0  0.40941  0.77468  0.66362  1.0000
  C   C1472     1.0  0.39502  0.78379  0.66223  1.0000
  C   C1473     1.0  0.40120  0.80422  0.65371  1.0000
  C   C1474     1.0  0.42162  0.81552  0.64707  1.0000
  H   H1169     1.0  0.44075  0.77875  0.65698  1.0000
  H   H1170     1.0  0.40476  0.75889  0.67023  1.0000
  H   H1171     1.0  0.39033  0.81145  0.65273  1.0000
  H   H1172     1.0  0.42633  0.83139  0.64099  1.0000
  C   C1475     1.0  0.55779  0.75438  0.88799  1.0000
  S   S194      1.0  0.33122  0.77359  0.60121  1.0000
  C   C1476     1.0  0.44983  0.75073  0.79411  1.0000
  C   C1477     1.0  0.35753  0.95200  0.97309  1.0000
  C   C1478     1.0  0.58436  0.77257  0.97860  1.0000
  H   H1173     1.0  0.53841  0.78630  0.92756  1.0000
  H   H1174     1.0  0.61181  0.79819  0.80424  1.0000
  C   C1479     1.0  0.57924  0.82005  0.52441  1.0000
  C   C1480     1.0  0.56508  0.79561  0.89603  1.0000
  H   H1175     1.0  0.57165  0.79180  0.71480  1.0000
  C   C1481     1.0  0.56853  0.75852  0.78064  1.0000
  C   C1482     1.0  0.56354  0.76632  0.74952  1.0000
  C   C1483     1.0  0.33022  0.96369  0.96426  1.0000
  C   C1484     1.0  0.63688  0.78992  0.50572  1.0000
  H   H1176     1.0  0.34478  0.92217  0.78617  1.0000
  H   H1177     1.0  0.33411  0.88098  0.66807  1.0000
  C   C1485     1.0  0.63214  0.77276  0.83363  1.0000
  C   C1486     1.0  0.50731  0.75427  0.75497  1.0000
  H   H1178     1.0  0.38612  0.75434  0.51490  1.0000
  C   C1487     1.0  0.34696  0.92329  0.84333  1.0000
  C   C1488     1.0  0.45514  0.85121  0.72699  1.0000
  C   C1489     1.0  0.47397  0.85253  0.71476  1.0000
  C   C1490     1.0  0.48307  0.83971  0.72812  1.0000
  C   C1491     1.0  0.47324  0.82542  0.75342  1.0000
  C   C1492     1.0  0.45427  0.82391  0.76577  1.0000
  C   C1493     1.0  0.44534  0.83705  0.75257  1.0000
  P   P53       1.0  0.44151  0.80483  0.79756  1.0000
  C   C1494     1.0  0.44361  0.78146  0.78239  1.0000
  C   C1495     1.0  0.45317  0.81179  0.84147  1.0000
  C   C1496     1.0  0.44278  0.80211  0.87157  1.0000
  C   C1497     1.0  0.45215  0.80646  0.90533  1.0000
  C   C1498     1.0  0.47199  0.82042  0.90930  1.0000
  C   C1499     1.0  0.48239  0.83023  0.87960  1.0000
  C   C1500     1.0  0.47302  0.82603  0.84584  1.0000
  C   C1501     1.0  0.44718  0.76819  0.80651  1.0000
  S   S195      1.0  0.31172  0.81421  0.88575  1.0000
  C   C1502     1.0  0.63473  0.93800  0.97652  1.0000
  C   C1503     1.0  0.41592  0.98574  0.85893  1.0000
  C   C1504     1.0  0.44258  0.77683  0.74580  1.0000
  C   C1505     1.0  0.41515  0.80182  0.79782  1.0000
  C   C1506     1.0  0.40158  0.79011  0.77118  1.0000
  C   C1507     1.0  0.38156  0.78896  0.76997  1.0000
  C   C1508     1.0  0.37489  0.79949  0.79522  1.0000
  C   C1509     1.0  0.38829  0.81131  0.82163  1.0000
  C   C1510     1.0  0.40839  0.81263  0.82278  1.0000
  H   H1179     1.0  0.44793  0.86086  0.71598  1.0000
  H   H1180     1.0  0.48126  0.86306  0.69414  1.0000
  H   H1181     1.0  0.49750  0.84048  0.71809  1.0000
  H   H1182     1.0  0.48028  0.81530  0.76299  1.0000
  H   H1183     1.0  0.43066  0.83616  0.76125  1.0000
  H   H1184     1.0  0.42755  0.79092  0.86883  1.0000
  H   H1185     1.0  0.44416  0.79880  0.92840  1.0000
  H   H1186     1.0  0.47947  0.82353  0.93530  1.0000
  H   H1187     1.0  0.49792  0.84083  0.88269  1.0000
  H   H1188     1.0  0.48155  0.83376  0.82338  1.0000
  H   H1189     1.0  0.44828  0.77136  0.83481  1.0000
  C   C1511     1.0  0.57291  0.83516  0.53742  1.0000
  H   H1190     1.0  0.33450  0.86501  0.53047  1.0000
  C   C1512     1.0  0.32618  0.87619  0.64268  1.0000
  H   H1191     1.0  0.44021  0.78700  0.72669  1.0000
  H   H1192     1.0  0.40643  0.78227  0.75063  1.0000
  H   H1193     1.0  0.37133  0.78024  0.74882  1.0000
  H   H1194     1.0  0.41870  0.82248  0.84263  1.0000
  H   H1195     1.0  0.31448  0.90000  0.64188  1.0000
  C   C1513     1.0  0.56820  0.76901  0.48943  1.0000
  C   C1514     1.0  0.31227  0.80528  0.50313  1.0000
  C   C1515     1.0  0.61404  0.92474  0.84951  1.0000
  C   C1516     1.0  0.57467  0.76870  0.87204  1.0000
  P   P54       1.0  0.63859  0.94414  0.84221  1.0000
  C   C1517     1.0  0.61707  0.77350  0.85652  1.0000
  C   C1518     1.0  0.39263  0.74263  0.56366  1.0000
  C   C1519     1.0  0.44887  0.74634  0.75761  1.0000
  S   S196      1.0  0.61424  0.91359  0.97644  1.0000
  H   H1196     1.0  0.35945  0.79883  0.79386  1.0000
  H   H1197     1.0  0.60700  0.76895  0.49259  1.0000
  H   H1198     1.0  0.45289  0.74074  0.81279  1.0000
  C   C1520     1.0  0.43332  0.76041  0.54595  1.0000
  C   C1521     1.0  0.41845  0.76298  0.52374  1.0000
  H   H1199     1.0  0.37175  0.96530  0.89419  1.0000
  H   H1200     1.0  0.32435  0.79500  0.82846  1.0000
  C   C1522     1.0  0.59860  0.78886  0.78872  1.0000
  H   H1201     1.0  0.55437  0.73835  0.88480  1.0000
  H   H1202     1.0  0.44457  0.75599  0.70521  1.0000
  H   H1203     1.0  0.50331  0.76195  0.73317  1.0000
  C   C1523     1.0  0.47145  0.84246  0.51092  1.0000
  C   C1524     1.0  0.46195  0.82971  0.53850  1.0000
  C   C1525     1.0  0.44840  0.81001  0.53085  1.0000
  H   H1204     1.0  0.56788  0.81158  0.89911  1.0000
  C   C1526     1.0  0.39798  0.75336  0.53215  1.0000
  Fe  Fe98      1.0  0.59643  0.83349  0.97945  1.0000
  C   C1527     1.0  0.57815  0.78936  0.87614  1.0000
  H   H1205     1.0  0.60276  0.81173  0.74936  1.0000
  C   C1528     1.0  0.44508  0.75930  0.73353  1.0000
  C   C1529     1.0  0.42787  0.74945  0.57720  1.0000
  H   H1206     1.0  0.32472  0.97583  0.96142  1.0000
  H   H1207     1.0  0.34300  0.75087  0.79605  1.0000
  H   H1208     1.0  0.31699  0.83926  0.57921  1.0000
  H   H1209     1.0  0.50783  0.74028  0.62752  1.0000
  H   H1210     1.0  0.33542  0.85081  0.63643  1.0000
  H   H1211     1.0  0.44918  0.76733  0.53958  1.0000
  C   C1530     1.0  0.63060  0.95564  0.97070  1.0000
  H   H1212     1.0  0.55744  0.85518  0.52517  1.0000
  C   C1531     1.0  0.32692  0.85916  0.62488  1.0000
  H   H1213     1.0  0.48191  0.85773  0.51697  1.0000
  H   H1214     1.0  0.46492  0.83511  0.56594  1.0000
  S   S197      1.0  0.56262  0.82097  0.97832  1.0000
  C   C1532     1.0  0.59349  0.79667  0.75772  1.0000
  S   S198      1.0  0.31645  0.77349  0.68420  1.0000
  H   H1215     1.0  0.39595  0.79211  0.51459  1.0000
  C   C1533     1.0  0.34357  0.93155  0.97221  1.0000
  C   C1534     1.0  0.35462  0.93550  0.87360  1.0000
  H   H1216     1.0  0.40969  0.97112  0.84540  1.0000
  H   H1217     1.0  0.43943  0.74798  0.59480  1.0000
  C   C1535     1.0  0.31809  0.80725  0.77944  1.0000
  H   H1218     1.0  0.61418  0.93262  0.90529  1.0000
  H   H1219     1.0  0.63505  0.78478  0.98486  1.0000
  H   H1220     1.0  0.38317  0.81978  0.84075  1.0000
  C   C1536     1.0  0.36124  0.95255  0.80623  1.0000
  C   C1537     1.0  0.32680  0.74689  0.79729  1.0000
  C   C1538     1.0  0.57594  0.78544  0.73820  1.0000
  C   C1539     1.0  0.35046  0.93176  0.80965  1.0000
  H   H1221     1.0  0.56363  0.88026  0.86923  1.0000
  H   H1222     1.0  0.58226  0.90444  0.91758  1.0000
  H   H1223     1.0  0.60834  0.91321  0.79497  1.0000
  C   C1540     1.0  0.60301  0.91147  0.82191  1.0000
  S   S199      1.0  0.31692  0.85023  0.97054  1.0000
  H   H1224     1.0  0.59094  0.80072  0.86390  1.0000
  C   C1541     1.0  0.32271  0.92689  0.96703  1.0000
  H   H1225     1.0  0.61676  0.96454  0.80171  1.0000
  H   H1226     1.0  0.52162  0.78146  0.78661  1.0000
  P   P55       1.0  0.59081  0.76111  0.84344  1.0000
  C   C1542     1.0  0.54487  0.76073  0.90824  1.0000
  S   S200      1.0  0.34564  0.82347  0.54801  1.0000
  C   C1543     1.0  0.36852  0.96510  0.83662  1.0000
  C   C1544     1.0  0.31632  0.94329  0.96313  1.0000
  C   C1545     1.0  0.63608  0.96833  0.84844  1.0000
  C   C1546     1.0  0.52275  0.75529  0.81307  1.0000
  C   C1547     1.0  0.59241  0.74183  0.98094  1.0000
  S   S201      1.0  0.56503  0.86741  0.97834  1.0000
  H   H1227     1.0  0.61511  0.95426  0.96631  1.0000
  H   H1228     1.0  0.61141  0.78394  0.90820  1.0000
  C   C1548     1.0  0.36559  0.95624  0.87031  1.0000
  C   C1549     1.0  0.32742  0.86285  0.50431  1.0000
  Fe  Fe99      1.0  0.59920  0.87827  0.97928  1.0000
  H   H1229     1.0  0.33841  0.90722  0.84603  1.0000
  H   H1230     1.0  0.57538  0.83976  0.56524  1.0000
  H   H1231     1.0  0.55986  0.78062  0.53758  1.0000
  C   C1550     1.0  0.54633  0.74840  0.53455  1.0000
  Fe  Fe100     1.0  0.33409  0.80595  0.59871  1.0000
  C   C1551     1.0  0.58488  0.89549  0.82905  1.0000
  H   H1232     1.0  0.57664  0.88493  0.80798  1.0000
  C   C1552     1.0  0.31507  0.88684  0.62792  1.0000
  H   H1233     1.0  0.36394  0.95854  0.77981  1.0000
  C   C1553     1.0  0.31810  0.74942  0.82916  1.0000
  H   H1234     1.0  0.35196  0.92887  0.89969  1.0000
  C   C1554     1.0  0.60605  0.92245  0.88372  1.0000
  H   H1235     1.0  0.62807  0.76483  0.80816  1.0000
  C   C1555     1.0  0.62461  0.97447  0.82377  1.0000
  C   C1556     1.0  0.51755  0.76523  0.78508  1.0000
  H   H1236     1.0  0.53077  0.76398  0.83626  1.0000
  H   H1237     1.0  0.54972  0.75785  0.73471  1.0000
  H   H1238     1.0  0.44074  0.80080  0.55276  1.0000
  Fe  Fe101     1.0  0.32047  0.80597  0.67686  1.0000
  C   C1557     1.0  0.54844  0.78132  0.91204  1.0000
  H   H1239     1.0  0.63875  0.91105  0.88908  1.0000
  H   H1240     1.0  0.49450  0.75404  0.53692  1.0000
  H   H1241     1.0  0.37348  0.95515  0.97711  1.0000
  C   C1558     1.0  0.44470  0.80273  0.49543  1.0000
  C   C1559     1.0  0.31209  0.75767  0.51049  1.0000
  C   C1560     1.0  0.35104  0.96835  0.96912  1.0000
  C   C1561     1.0  0.61672  0.78476  0.49461  1.0000
  C   C1562     1.0  0.60494  0.78493  0.98075  1.0000
  C   C1563     1.0  0.61912  0.77551  0.98307  1.0000
  H   H1242     1.0  0.55830  0.74408  0.78985  1.0000
  H   H1243     1.0  0.53836  0.74744  0.55920  1.0000
  H   H1244     1.0  0.64247  0.77813  0.51216  1.0000
  C   C1564     1.0  0.57515  0.81324  0.48883  1.0000
  C   C1565     1.0  0.64260  0.82543  0.50036  1.0000
  C   C1566     1.0  0.31642  0.85263  0.59251  1.0000
  H   H1245     1.0  0.53210  0.74969  0.92106  1.0000
  C   C1567     1.0  0.61296  0.75420  0.98304  1.0000
  C   C1568     1.0  0.57817  0.75120  0.97869  1.0000
  H   H1246     1.0  0.44345  0.98183  0.87431  1.0000
  H   H1247     1.0  0.37690  0.73605  0.57096  1.0000
  C   C1569     1.0  0.64311  0.79304  0.89949  1.0000
  H   H1248     1.0  0.47373  0.73651  0.58728  1.0000
  C   C1570     1.0  0.31458  0.73914  0.76699  1.0000
  H   H1249     1.0  0.32130  0.73711  0.74227  1.0000
  H   H1250     1.0  0.57321  0.77946  0.97678  1.0000
  C   C1571     1.0  0.73883  0.21848  0.40360  1.0000
  Fe  Fe102     1.0  0.69561  0.12032  0.31222  1.0000
  S   S202      1.0  0.68636  0.08685  0.31798  1.0000
  S   S203      1.0  0.72841  0.13887  0.32312  1.0000
  C   C1572     1.0  0.78480  0.22985  0.06186  1.0000
  H   H1251     1.0  0.73298  0.15998  0.38868  1.0000
  Fe  Fe103     1.0  0.65989  0.08892  0.34690  1.0000
  C   C1573     1.0  0.74766  0.20587  0.29947  1.0000
  Fe  Fe104     1.0  0.66852  0.08468  0.26698  1.0000
  S   S204      1.0  0.66988  0.06283  0.22278  1.0000
  S   S205      1.0  0.67040  0.12268  0.34447  1.0000
  S   S206      1.0  0.67958  0.11821  0.25971  1.0000
  H   H1252     1.0  0.74004  0.20344  0.45217  1.0000
  H   H1253     1.0  0.79352  0.20951  0.38734  1.0000
  H   H1254     1.0  0.82925  0.21794  0.25029  1.0000
  Fe  Fe105     1.0  0.69078  0.07192  0.01130  1.0000
  S   S207      1.0  0.71456  0.05824  0.01101  1.0000
  S   S208      1.0  0.68029  0.08565  0.05868  1.0000
  C   C1574     1.0  0.83649  0.18504  0.07089  1.0000
  H   H1255     1.0  0.80486  0.21428  0.06987  1.0000
  H   H1256     1.0  0.81424  0.19088  0.36496  1.0000
  C   C1575     1.0  0.73436  0.09125  0.46977  1.0000
  C   C1576     1.0  0.67369  0.06963  0.17741  1.0000
  C   C1577     1.0  0.67237  0.08756  0.16526  1.0000
  C   C1578     1.0  0.67461  0.09214  0.12890  1.0000
  C   C1579     1.0  0.67849  0.07912  0.10425  1.0000
  C   C1580     1.0  0.68025  0.06137  0.11641  1.0000
  C   C1581     1.0  0.67764  0.05655  0.15279  1.0000
  H   H1257     1.0  0.67719  0.15342  0.15923  1.0000
  H   H1258     1.0  0.67361  0.10601  0.11975  1.0000
  H   H1259     1.0  0.68354  0.05136  0.09781  1.0000
  H   H1260     1.0  0.67884  0.04271  0.16190  1.0000
  C   C1582     1.0  0.67749  0.10095  0.43981  1.0000
  C   C1583     1.0  0.65942  0.08407  0.43911  1.0000
  C   C1584     1.0  0.71528  0.16301  0.47118  1.0000
  H   H1261     1.0  0.68441  0.10730  0.41513  1.0000
  C   C1585     1.0  0.79045  0.21485  0.07687  1.0000
  C   C1586     1.0  0.77779  0.20123  0.10091  1.0000
  C   C1587     1.0  0.73555  0.16457  0.31385  1.0000
  C   C1588     1.0  0.72136  0.17227  0.30123  1.0000
  C   C1589     1.0  0.72744  0.19293  0.29404  1.0000
  H   H1262     1.0  0.78659  0.21721  0.16834  1.0000
  C   C1590     1.0  0.76173  0.19822  0.31280  1.0000
  C   C1591     1.0  0.75566  0.17756  0.31988  1.0000
  H   H1263     1.0  0.70579  0.16226  0.29667  1.0000
  C   C1592     1.0  0.66306  0.14048  0.15956  1.0000
  H   H1264     1.0  0.77730  0.20812  0.31719  1.0000
  H   H1265     1.0  0.76659  0.17155  0.32971  1.0000
  C   C1593     1.0  0.73186  0.13418  0.11031  1.0000
  C   C1594     1.0  0.72907  0.12570  0.14403  1.0000
  C   C1595     1.0  0.74315  0.13469  0.17151  1.0000
  C   C1596     1.0  0.76022  0.15201  0.16523  1.0000
  C   C1597     1.0  0.76325  0.16058  0.13134  1.0000
  C   C1598     1.0  0.74882  0.15163  0.10401  1.0000
  P   P56       1.0  0.78553  0.18265  0.12239  1.0000
  C   C1599     1.0  0.79887  0.19363  0.16351  1.0000
  C   C1600     1.0  0.80287  0.17610  0.09490  1.0000
  C   C1601     1.0  0.82296  0.18976  0.09232  1.0000
  H   H1266     1.0  0.71387  0.08903  0.38674  1.0000
  H   H1267     1.0  0.69501  0.20896  0.34980  1.0000
  C   C1602     1.0  0.81035  0.15274  0.05506  1.0000
  C   C1603     1.0  0.79671  0.15746  0.07622  1.0000
  C   C1604     1.0  0.81195  0.18537  0.17937  1.0000
  Fe  Fe106     1.0  0.65291  0.11693  0.29249  1.0000
  H   H1268     1.0  0.68006  0.17083  0.41746  1.0000
  H   H1269     1.0  0.83305  0.18776  0.22254  1.0000
  C   C1605     1.0  0.79654  0.21048  0.17979  1.0000
  H   H1270     1.0  0.72093  0.12702  0.08901  1.0000
  H   H1271     1.0  0.71604  0.11208  0.14884  1.0000
  H   H1272     1.0  0.74083  0.12813  0.19771  1.0000
  H   H1273     1.0  0.77091  0.15860  0.18696  1.0000
  H   H1274     1.0  0.75085  0.15795  0.07766  1.0000
  C   C1606     1.0  0.68693  0.10940  0.47251  1.0000
  C   C1607     1.0  0.82061  0.21098  0.22639  1.0000
  C   C1608     1.0  0.69815  0.16698  0.46120  1.0000
  H   H1275     1.0  0.74953  0.19280  0.12863  1.0000
  H   H1276     1.0  0.78146  0.14648  0.07766  1.0000
  C   C1609     1.0  0.66682  0.18392  0.34045  1.0000
  H   H1277     1.0  0.82813  0.20426  0.10642  1.0000
  H   H1278     1.0  0.85181  0.19583  0.06835  1.0000
  H   H1279     1.0  0.73407  0.20479  0.38723  1.0000
  C   C1610     1.0  0.80735  0.21904  0.21116  1.0000
  H   H1280     1.0  0.80635  0.15523  0.38205  1.0000
  C   C1611     1.0  0.67311  0.20800  0.38949  1.0000
  H   H1281     1.0  0.65376  0.01980  0.09298  1.0000
  S   S209      1.0  0.64729  0.07305  0.39823  1.0000
  H   H1282     1.0  0.70267  0.16654  0.37133  1.0000
  H   H1283     1.0  0.66944  0.09781  0.18380  1.0000
  H   H1284     1.0  0.71654  0.19885  0.28376  1.0000
  C   C1612     1.0  0.69355  0.16824  0.42527  1.0000
  H   H1285     1.0  0.81461  0.22049  0.45812  1.0000
  C   C1613     1.0  0.69517  0.98635  0.05667  1.0000
  H   H1286     1.0  0.81384  0.17227  0.16743  1.0000
  H   H1287     1.0  0.67189  0.17837  0.31688  1.0000
  C   C1614     1.0  0.74251  0.11226  0.47513  1.0000
  C   C1615     1.0  0.72391  0.08286  0.43806  1.0000
  C   C1616     1.0  0.72988  0.11646  0.41683  1.0000
  H   H1288     1.0  0.70672  0.99859  0.04346  1.0000
  C   C1617     1.0  0.73976  0.12507  0.44913  1.0000
  H   H1289     1.0  0.72797  0.12581  0.39583  1.0000
  P   P57       1.0  0.74871  0.15223  0.45652  1.0000
  C   C1618     1.0  0.72790  0.16003  0.44514  1.0000
  C   C1619     1.0  0.75937  0.20287  0.10962  1.0000
  H   H1290     1.0  0.76490  0.19261  0.42645  1.0000
  H   H1291     1.0  0.67841  0.99978  0.21001  1.0000
  C   C1620     1.0  0.65449  0.13286  0.19195  1.0000
  C   C1621     1.0  0.82282  0.19406  0.21064  1.0000
  S   S210      1.0  0.88078  0.22832  0.01915  1.0000
  C   C1622     1.0  0.72193  0.09549  0.41142  1.0000
  C   C1623     1.0  0.65286  0.00884  0.20649  1.0000
  H   H1292     1.0  0.70114  0.12203  0.47275  1.0000
  C   C1624     1.0  0.70625  0.16580  0.39930  1.0000
  C   C1625     1.0  0.72341  0.16193  0.40921  1.0000
  C   C1626     1.0  0.76937  0.16427  0.42712  1.0000
  C   C1627     1.0  0.77393  0.18439  0.41723  1.0000
  C   C1628     1.0  0.79013  0.19398  0.39508  1.0000
  C   C1629     1.0  0.80184  0.18349  0.38248  1.0000
  C   C1630     1.0  0.79740  0.16343  0.39214  1.0000
  C   C1631     1.0  0.78127  0.15385  0.41451  1.0000
  C   C1632     1.0  0.74239  0.21782  0.44019  1.0000
  H   H1293     1.0  0.71727  0.06659  0.43414  1.0000
  C   C1633     1.0  0.67979  0.20108  0.35904  1.0000
  H   H1294     1.0  0.77806  0.13831  0.42171  1.0000
  H   H1295     1.0  0.65661  0.01752  0.23133  1.0000
  C   C1634     1.0  0.67722  0.98850  0.06627  1.0000
  H   H1296     1.0  0.67541  0.00258  0.06060  1.0000
  C   C1635     1.0  0.78932  0.22627  0.47916  1.0000
  H   H1297     1.0  0.80545  0.13849  0.04020  1.0000
  C   C1636     1.0  0.83019  0.16655  0.05225  1.0000
  S   S211      1.0  0.75500  0.23148  0.28918  1.0000
  C   C1637     1.0  0.65345  0.13129  0.12768  1.0000
  H   H1298     1.0  0.64663  0.04275  0.05133  1.0000
  H   H1299     1.0  0.84059  0.16303  0.03517  1.0000
  H   H1300     1.0  0.73957  0.21911  0.10149  1.0000
  H   H1301     1.0  0.78284  0.22616  0.45296  1.0000
  H   H1302     1.0  0.68812  0.16844  0.48140  1.0000
  H   H1303     1.0  0.66025  0.13696  0.10252  1.0000
  C   C1638     1.0  0.75372  0.21785  0.09444  1.0000
  C   C1639     1.0  0.66088  0.98840  0.16165  1.0000
  H   H1304     1.0  0.66169  0.14026  0.21668  1.0000
  C   C1640     1.0  0.64724  0.17370  0.35228  1.0000
  H   H1305     1.0  0.64872  0.20318  0.42527  1.0000
  C   C1641     1.0  0.66521  0.99892  0.19435  1.0000
  C   C1642     1.0  0.80753  0.22321  0.48193  1.0000
  H   H1306     1.0  0.68322  0.22131  0.40387  1.0000
  C   C1643     1.0  0.76645  0.23136  0.07060  1.0000
  C   C1644     1.0  0.65076  0.07592  0.47149  1.0000
  C   C1645     1.0  0.65347  0.19769  0.40146  1.0000
  H   H1307     1.0  0.80567  0.23217  0.22343  1.0000
  C   C1646     1.0  0.74975  0.23572  0.46100  1.0000
  H   H1308     1.0  0.80297  0.13825  0.87964  1.0000
  S   S212      1.0  0.78587  0.21462  0.63741  1.0000
  Fe  Fe107     1.0  0.67831  0.14632  0.65284  1.0000
  S   S213      1.0  0.69604  0.12648  0.64527  1.0000
  S   S214      1.0  0.69188  0.18027  0.66271  1.0000
  H   H1309     1.0  0.65754  0.09870  0.76549  1.0000
  H   H1310     1.0  0.71336  0.22407  0.50439  1.0000
  Fe  Fe108     1.0  0.67235  0.10416  0.67838  1.0000
  S   S215      1.0  0.68555  0.08888  0.71946  1.0000
  Fe  Fe109     1.0  0.67580  0.11312  0.59763  1.0000
  S   S216      1.0  0.69099  0.11298  0.54506  1.0000
  S   S217      1.0  0.65561  0.12495  0.68876  1.0000
  S   S218      1.0  0.65983  0.13463  0.60296  1.0000
  H   H1311     1.0  0.75234  0.15846  0.93546  1.0000
  C   C1647     1.0  0.82113  0.15724  0.96047  1.0000
  H   H1312     1.0  0.74116  0.08816  0.71643  1.0000
  S   S219      1.0  0.84528  0.17808  0.96053  1.0000
  C   C1648     1.0  0.71821  0.12308  0.88128  1.0000
  C   C1649     1.0  0.73658  0.11629  0.71881  1.0000
  C   C1650     1.0  0.70037  0.19890  0.53880  1.0000
  Fe  Fe110     1.0  0.68647  0.06956  0.92939  1.0000
  S   S220      1.0  0.70996  0.05568  0.92430  1.0000
  S   S221      1.0  0.66814  0.07741  0.88554  1.0000
  C   C1651     1.0  0.70408  0.18529  0.56159  1.0000
  C   C1652     1.0  0.81173  0.20357  0.71359  1.0000
  H   H1313     1.0  0.75925  0.09364  0.77425  1.0000
  H   H1314     1.0  0.80335  0.10607  0.94445  1.0000
  C   C1653     1.0  0.78125  0.07005  0.86227  1.0000
  C   C1654     1.0  0.77022  0.16769  0.57384  1.0000
  H   H1315     1.0  0.72523  0.10950  0.83469  1.0000
  C   C1655     1.0  0.73933  0.13375  0.73896  1.0000
  Fe  Fe111     1.0  0.69400  0.03580  0.96996  1.0000
  H   H1316     1.0  0.71552  0.13844  0.92944  1.0000
  C   C1656     1.0  0.72379  0.18619  0.56713  1.0000
  C   C1657     1.0  0.68107  0.08666  0.76586  1.0000
  C   C1658     1.0  0.69233  0.07842  0.78730  1.0000
  C   C1659     1.0  0.68874  0.07566  0.82402  1.0000
  C   C1660     1.0  0.67378  0.08108  0.83967  1.0000
  C   C1661     1.0  0.66272  0.08958  0.81832  1.0000
  C   C1662     1.0  0.66639  0.09245  0.78166  1.0000
  H   H1317     1.0  0.70373  0.07390  0.77534  1.0000
  H   H1318     1.0  0.69735  0.06909  0.84008  1.0000
  C   C1663     1.0  0.78438  0.12196  0.96032  1.0000
  H   H1319     1.0  0.79829  0.18752  0.55295  1.0000
  C   C1664     1.0  0.75708  0.15873  0.50246  1.0000
  H   H1320     1.0  0.70218  0.11413  0.87908  1.0000
  C   C1665     1.0  0.74645  0.14811  0.91299  1.0000
  C   C1666     1.0  0.71642  0.21349  0.52173  1.0000
  C   C1667     1.0  0.82970  0.18127  0.83662  1.0000
  C   C1668     1.0  0.81711  0.22455  0.51511  1.0000
  C   C1669     1.0  0.75086  0.15364  0.56575  1.0000
  H   H1321     1.0  0.71806  0.16166  0.49911  1.0000
  C   C1670     1.0  0.75968  0.14535  0.88830  1.0000
  C   C1671     1.0  0.76021  0.20626  0.64776  1.0000
  C   C1672     1.0  0.75017  0.18582  0.65512  1.0000
  C   C1673     1.0  0.72944  0.17814  0.66127  1.0000
  C   C1674     1.0  0.71836  0.19063  0.65900  1.0000
  C   C1675     1.0  0.72850  0.21134  0.65294  1.0000
  C   C1676     1.0  0.74949  0.21921  0.64740  1.0000
  H   H1322     1.0  0.75840  0.17580  0.65602  1.0000
  H   H1323     1.0  0.72212  0.16256  0.66805  1.0000
  C   C1677     1.0  0.79003  0.23155  0.54302  1.0000
  H   H1324     1.0  0.65213  0.17197  0.61287  1.0000
  C   C1678     1.0  0.77359  0.10434  0.84195  1.0000
  P   P58       1.0  0.75691  0.23454  0.50709  1.0000
  H   H1325     1.0  0.72807  0.11343  0.69380  1.0000
  H   H1326     1.0  0.75499  0.20123  0.55569  1.0000
  C   C1679     1.0  0.79281  0.08258  0.83604  1.0000
  C   C1680     1.0  0.74435  0.14915  0.53027  1.0000
  C   C1681     1.0  0.78908  0.09973  0.82602  1.0000
  C   C1682     1.0  0.73133  0.12052  0.85617  1.0000
  C   C1683     1.0  0.80843  0.22890  0.54560  1.0000
  Fe  Fe112     1.0  0.72816  0.07942  0.96569  1.0000
  C   C1684     1.0  0.75423  0.10523  0.76458  1.0000
  H   H1327     1.0  0.79725  0.19132  0.89264  1.0000
  H   H1328     1.0  0.77530  0.17135  0.60131  1.0000
  C   C1685     1.0  0.78316  0.17699  0.54644  1.0000
  H   H1329     1.0  0.80477  0.07909  0.82370  1.0000
  C   C1686     1.0  0.73990  0.20081  0.55035  1.0000
  C   C1687     1.0  0.74397  0.10202  0.73164  1.0000
  C   C1688     1.0  0.80669  0.14951  0.85909  1.0000
  C   C1689     1.0  0.72573  0.13687  0.90963  1.0000
  C   C1690     1.0  0.75221  0.13163  0.85949  1.0000
  H   H1330     1.0  0.79823  0.10941  0.80583  1.0000
  C   C1691     1.0  0.75720  0.12285  0.78497  1.0000
  C   C1692     1.0  0.76590  0.07461  0.87835  1.0000
  H   H1331     1.0  0.73587  0.08145  0.49045  1.0000
  H   H1332     1.0  0.83494  0.16784  0.88489  1.0000
  H   H1333     1.0  0.75719  0.06520  0.89931  1.0000
  H   H1334     1.0  0.78426  0.05690  0.87045  1.0000
  H   H1335     1.0  0.68507  0.19821  0.53465  1.0000
  C   C1693     1.0  0.65343  0.22386  0.74615  1.0000
  H   H1336     1.0  0.92611  0.21699  0.84031  1.0000
  H   H1337     1.0  0.83160  0.23171  0.73769  1.0000
  H   H1338     1.0  0.69178  0.17414  0.57532  1.0000
  S   S222      1.0  0.76237  0.09877  0.95994  1.0000
  H   H1339     1.0  0.72946  0.13792  0.52447  1.0000
  C   C1694     1.0  0.77663  0.17265  0.51088  1.0000
  H   H1340     1.0  0.65239  0.01054  0.90247  1.0000
  H   H1341     1.0  0.73306  0.14442  0.72919  1.0000
  P   P59       1.0  0.76909  0.12660  0.82880  1.0000
  H   H1342     1.0  0.72657  0.17569  0.58503  1.0000
  C   C1695     1.0  0.74948  0.13698  0.77201  1.0000
  H   H1343     1.0  0.82055  0.19082  0.78753  1.0000
  H   H1344     1.0  0.64900  0.21464  0.76948  1.0000
  S   S223      1.0  0.68748  0.00126  0.97212  1.0000
  H   H1345     1.0  0.78868  0.16126  0.78136  1.0000
  C   C1696     1.0  0.76201  0.09163  0.86819  1.0000
  C   C1697     1.0  0.75777  0.23037  0.77481  1.0000
  C   C1698     1.0  0.80058  0.22256  0.89529  1.0000
  C   C1699     1.0  0.77662  0.21418  0.83264  1.0000
  C   C1700     1.0  0.78019  0.23004  0.50983  1.0000
  P   P60       1.0  0.76394  0.20929  0.78950  1.0000
  H   H1346     1.0  0.83488  0.13627  0.94486  1.0000
  C   C1701     1.0  0.74035  0.18761  0.78770  1.0000
  C   C1702     1.0  0.73297  0.17568  0.81761  1.0000
  C   C1703     1.0  0.71470  0.15895  0.81515  1.0000
  C   C1704     1.0  0.70353  0.15417  0.78316  1.0000
  C   C1705     1.0  0.71030  0.16648  0.75382  1.0000
  C   C1706     1.0  0.72857  0.18317  0.75611  1.0000
  H   H1347     1.0  0.75066  0.11825  0.49980  1.0000
  Fe  Fe113     1.0  0.86083  0.21264  0.97130  1.0000
  H   H1348     1.0  0.65255  0.19246  0.66580  1.0000
  C   C1707     1.0  0.73635  0.21469  0.52765  1.0000
  C   C1708     1.0  0.78143  0.19888  0.84902  1.0000
  C   C1709     1.0  0.78252  0.20642  0.76017  1.0000
  C   C1710     1.0  0.82089  0.13795  0.95155  1.0000
  H   H1349     1.0  0.78852  0.17602  0.69407  1.0000
  S   S224      1.0  0.66970  0.04876  0.97280  1.0000
  C   C1711     1.0  0.79238  0.18849  0.71316  1.0000
  C   C1712     1.0  0.77776  0.18992  0.73623  1.0000
  C   C1713     1.0  0.79848  0.16243  0.80414  1.0000
  H   H1350     1.0  0.75022  0.09490  0.88154  1.0000
  H   H1351     1.0  0.74080  0.14616  0.58691  1.0000
  H   H1352     1.0  0.82283  0.20278  0.69490  1.0000
  H   H1353     1.0  0.84362  0.19443  0.83947  1.0000
  H   H1354     1.0  0.74108  0.17914  0.84290  1.0000
  H   H1355     1.0  0.70910  0.14964  0.83806  1.0000
  H   H1356     1.0  0.68956  0.14098  0.78115  1.0000
  H   H1357     1.0  0.70145  0.16298  0.72915  1.0000
  H   H1358     1.0  0.73357  0.19260  0.73311  1.0000
  C   C1714     1.0  0.80288  0.12068  0.95137  1.0000
  C   C1715     1.0  0.82480  0.16631  0.86225  1.0000
  S   S225      1.0  0.65352  0.08877  0.62958  1.0000
  C   C1716     1.0  0.81663  0.21994  0.73754  1.0000
  H   H1359     1.0  0.77647  0.18385  0.83711  1.0000
  C   C1717     1.0  0.80213  0.22135  0.76082  1.0000
  C   C1718     1.0  0.81663  0.17924  0.80745  1.0000
  S   S226      1.0  0.70524  0.09396  0.96811  1.0000
  H   H1360     1.0  0.76280  0.17833  0.73472  1.0000
  C   C1719     1.0  0.79319  0.14760  0.83035  1.0000
  H   H1361     1.0  0.77569  0.15360  0.89252  1.0000
  H   H1362     1.0  0.75104  0.15031  0.78774  1.0000
  C   C1720     1.0  0.79325  0.20304  0.88036  1.0000
  C   C1721     1.0  0.78433  0.14127  0.96918  1.0000
  H   H1363     1.0  0.83148  0.22269  0.51709  1.0000
  H   H1364     1.0  0.72006  0.22117  0.65160  1.0000
  C   C1722     1.0  0.80257  0.15885  0.96902  1.0000
  H   H1365     1.0  0.80618  0.23430  0.77893  1.0000
  S   S227      1.0  0.84146  0.23087  0.97498  1.0000
  C   C1723     1.0  0.67818  0.10158  0.50488  1.0000
  H   H1366     1.0  0.77115  0.23221  0.72285  1.0000
  C   C1724     1.0  0.66004  0.08471  0.50431  1.0000
  H   H1367     1.0  0.80235  0.17350  0.97627  1.0000
  H   H1368     1.0  0.65108  0.09378  0.83016  1.0000
  H   H1369     1.0  0.65326  0.07834  0.52908  1.0000
  C   C1725     1.0  0.64835  0.23034  0.68431  1.0000
  C   C1726     1.0  0.92977  0.23311  0.84369  1.0000
  H   H1370     1.0  0.81020  0.22597  0.91902  1.0000
  H   H1371     1.0  0.77031  0.14259  0.97665  1.0000
  H   H1372     1.0  0.74127  0.23139  0.82206  1.0000
  C   C1727     1.0  0.78432  0.23385  0.84763  1.0000
  H   H1373     1.0  0.91863  0.23068  0.89703  1.0000
  H   H1374     1.0  0.81589  0.23013  0.57136  1.0000
  S   S228      1.0  0.88247  0.23408  0.93293  1.0000
  H   H1375     1.0  0.75721  0.23505  0.64174  1.0000
  H   H1376     1.0  0.78347  0.23479  0.56700  1.0000
  H   H1377     1.0  0.78700  0.18000  0.49019  1.0000
  Fe  Fe114     1.0  0.84068  0.45792  0.34864  1.0000
  S   S229      1.0  0.81982  0.42744  0.32806  1.0000
  H   H1378     1.0  0.88507  0.32896  0.46506  1.0000
  C   C1728     1.0  0.67264  0.39723  0.25997  1.0000
  S   S230      1.0  0.82515  0.44626  0.24761  1.0000
  Fe  Fe115     1.0  0.80546  0.44445  0.29447  1.0000
  S   S231      1.0  0.77177  0.43246  0.28312  1.0000
  Fe  Fe116     1.0  0.84145  0.43216  0.28347  1.0000
  S   S232      1.0  0.85349  0.40837  0.26569  1.0000
  H   H1379     1.0  0.84272  0.34969  0.46588  1.0000
  Fe  Fe117     1.0  0.83058  0.27052  0.27363  1.0000
  S   S233      1.0  0.80228  0.27675  0.26469  1.0000
  S   S234      1.0  0.85416  0.27143  0.23258  1.0000
  Fe  Fe118     1.0  0.82314  0.26392  0.35368  1.0000
  S   S235      1.0  0.79437  0.26954  0.35089  1.0000
  S   S236      1.0  0.83479  0.25337  0.40305  1.0000
  Fe  Fe119     1.0  0.78762  0.25080  0.30070  1.0000
  Fe  Fe120     1.0  0.81097  0.29514  0.31533  1.0000
  S   S237      1.0  0.80207  0.32199  0.32329  1.0000
  C   C1729     1.0  0.67781  0.43142  0.10531  1.0000
  S   S238      1.0  0.84068  0.29127  0.32218  1.0000
  Fe  Fe121     1.0  0.68371  0.46124  0.34364  1.0000
  H   H1380     1.0  0.85174  0.39659  0.47997  1.0000
  H   H1381     1.0  0.78078  0.45412  0.46021  1.0000
  H   H1382     1.0  0.80084  0.45285  0.17741  1.0000
  H   H1383     1.0  0.96542  0.28720  0.07288  1.0000
  C   C1730     1.0  0.84704  0.32121  0.10961  1.0000
  S   S239      1.0  0.66992  0.44648  0.29139  1.0000
  S   S240      1.0  0.66052  0.43878  0.37736  1.0000
  H   H1384     1.0  0.81665  0.37436  0.38279  1.0000
  H   H1385     1.0  0.71726  0.42847  0.43178  1.0000
  H   H1386     1.0  0.69459  0.38328  0.26519  1.0000
  C   C1731     1.0  0.87894  0.32532  0.13881  1.0000
  C   C1732     1.0  0.85025  0.26558  0.18622  1.0000
  C   C1733     1.0  0.86623  0.26410  0.16638  1.0000
  H   H1387     1.0  0.88048  0.26629  0.17968  1.0000
  C   C1734     1.0  0.97593  0.27948  0.07164  1.0000
  H   H1388     1.0  0.83943  0.30198  0.06240  1.0000
  C   C1735     1.0  0.83193  0.26278  0.16865  1.0000
  H   H1389     1.0  0.75422  0.44581  0.17135  1.0000
  Fe  Fe122     1.0  0.84535  0.47590  0.27219  1.0000
  S   S241      1.0  0.84207  0.25257  0.06513  1.0000
  C   C1736     1.0  0.75693  0.44437  0.30330  1.0000
  C   C1737     1.0  0.73592  0.43623  0.29746  1.0000
  C   C1738     1.0  0.72358  0.44515  0.31363  1.0000
  C   C1739     1.0  0.73223  0.46229  0.33570  1.0000
  H   H1390     1.0  0.79859  0.43010  0.48069  1.0000
  C   C1740     1.0  0.76558  0.46151  0.32541  1.0000
  H   H1391     1.0  0.72917  0.42293  0.28047  1.0000
  H   H1392     1.0  0.70741  0.43870  0.30919  1.0000
  H   H1393     1.0  0.81548  0.25660  0.11837  1.0000
  C   C1741     1.0  0.89372  0.31943  0.46847  1.0000
  C   C1742     1.0  0.83878  0.38383  0.27911  1.0000
  C   C1743     1.0  0.81897  0.37930  0.29000  1.0000
  C   C1744     1.0  0.80780  0.36017  0.30318  1.0000
  C   C1745     1.0  0.81617  0.34527  0.30460  1.0000
  C   C1746     1.0  0.83574  0.34950  0.29271  1.0000
  C   C1747     1.0  0.84712  0.36884  0.28018  1.0000
  H   H1394     1.0  0.81226  0.39058  0.28845  1.0000
  H   H1395     1.0  0.79262  0.35691  0.31227  1.0000
  H   H1396     1.0  0.84222  0.33803  0.29422  1.0000
  H   H1397     1.0  0.86249  0.37229  0.27200  1.0000
  C   C1748     1.0  0.82840  0.27813  0.45562  1.0000
  C   C1749     1.0  0.83815  0.26511  0.44570  1.0000
  H   H1398     1.0  0.67539  0.40374  0.28672  1.0000
  H   H1399     1.0  0.81844  0.28133  0.43674  1.0000
  H   H1400     1.0  0.78171  0.46778  0.33033  1.0000
  C   C1750     1.0  0.74480  0.45184  0.18630  1.0000
  H   H1401     1.0  0.73958  0.23748  0.35920  1.0000
  H   H1402     1.0  0.75809  0.26828  0.46008  1.0000
  C   C1751     1.0  0.71493  0.44647  0.22068  1.0000
  C   C1752     1.0  0.75324  0.47045  0.34157  1.0000
  C   C1753     1.0  0.74199  0.23695  0.38769  1.0000
  H   H1403     1.0  0.72222  0.46497  0.42834  1.0000
  H   H1404     1.0  0.67659  0.48014  0.47994  1.0000
  C   C1754     1.0  0.86525  0.41052  0.43168  1.0000
  C   C1755     1.0  0.95793  0.35296  0.36300  1.0000
  P   P61       1.0  0.81169  0.36726  0.46024  1.0000
  H   H1405     1.0  0.69353  0.47615  0.42495  1.0000
  H   H1406     1.0  0.86855  0.47664  0.12247  1.0000
  H   H1407     1.0  0.80667  0.32404  0.45231  1.0000
  H   H1408     1.0  0.67587  0.40793  0.14141  1.0000
  H   H1409     1.0  0.79493  0.24046  0.04383  1.0000
  C   C1756     1.0  0.65812  0.40028  0.23786  1.0000
  S   S242      1.0  0.81516  0.24278  0.30582  1.0000
  C   C1757     1.0  0.91605  0.29488  0.47919  1.0000
  C   C1758     1.0  0.84078  0.46038  0.44767  1.0000
  C   C1759     1.0  0.79707  0.38175  0.47499  1.0000
  H   H1410     1.0  0.71213  0.47280  0.24405  1.0000
  C   C1760     1.0  0.82171  0.47455  0.48550  1.0000
  C   C1761     1.0  0.79506  0.34632  0.43310  1.0000
  C   C1762     1.0  0.79610  0.32703  0.43459  1.0000
  C   C1763     1.0  0.78365  0.31130  0.41228  1.0000
  C   C1764     1.0  0.76991  0.31462  0.38868  1.0000
  C   C1765     1.0  0.76851  0.33363  0.38748  1.0000
  C   C1766     1.0  0.78100  0.34942  0.40960  1.0000
  H   H1411     1.0  0.85008  0.46966  0.04532  1.0000
  H   H1412     1.0  0.70109  0.43632  0.23213  1.0000
  C   C1767     1.0  0.66833  0.44372  0.09119  1.0000
  S   S243      1.0  0.64859  0.48544  0.24574  1.0000
  H   H1413     1.0  0.87851  0.42127  0.44510  1.0000
  C   C1768     1.0  0.82864  0.46672  0.00253  1.0000
  H   H1414     1.0  0.69156  0.47265  0.15385  1.0000
  H   H1415     1.0  0.81940  0.41119  0.46219  1.0000
  C   C1769     1.0  0.64899  0.41533  0.14290  1.0000
  C   C1770     1.0  0.80025  0.47273  0.13491  1.0000
  H   H1416     1.0  0.67586  0.45488  0.07158  1.0000
  C   C1771     1.0  0.82768  0.47079  0.45133  1.0000
  H   H1417     1.0  0.96921  0.34981  0.34768  1.0000
  H   H1418     1.0  0.75998  0.48367  0.35876  1.0000
  C   C1772     1.0  0.77761  0.37170  0.48809  1.0000
  S   S244      1.0  0.85179  0.45830  0.40638  1.0000
  H   H1419     1.0  0.78516  0.29673  0.41236  1.0000
  H   H1420     1.0  0.76098  0.30275  0.37012  1.0000
  H   H1421     1.0  0.75823  0.33631  0.36850  1.0000
  H   H1422     1.0  0.78004  0.36420  0.40767  1.0000
  Fe  Fe123     1.0  0.65316  0.46758  0.29311  1.0000
  H   H1423     1.0  0.89593  0.30946  0.11387  1.0000
  C   C1773     1.0  0.66461  0.37955  0.19180  1.0000
  C   C1774     1.0  0.72676  0.43871  0.20045  1.0000
  H   H1424     1.0  0.89346  0.29232  0.27385  1.0000
  H   H1425     1.0  0.87085  0.29498  0.06479  1.0000
  H   H1426     1.0  0.81954  0.26397  0.18346  1.0000
  C   C1775     1.0  0.86393  0.25977  0.12945  1.0000
  C   C1776     1.0  0.68845  0.47412  0.48137  1.0000
  C   C1777     1.0  0.76852  0.44522  0.44237  1.0000
  H   H1427     1.0  0.93617  0.32267  0.35716  1.0000
  H   H1428     1.0  0.82743  0.30278  0.17119  1.0000
  Fe  Fe124     1.0  0.86163  0.24743  0.02110  1.0000
  C   C1778     1.0  0.73724  0.42192  0.39596  1.0000
  H   H1429     1.0  0.78838  0.43829  0.40631  1.0000
  H   H1430     1.0  0.85708  0.44488  0.47589  1.0000
  C   C1779     1.0  0.75724  0.42468  0.38861  1.0000
  C   C1780     1.0  0.73284  0.43086  0.42648  1.0000
  H   H1431     1.0  0.84362  0.39907  0.34909  1.0000
  H   H1432     1.0  0.79581  0.46073  0.11484  1.0000
  C   C1781     1.0  0.87677  0.26551  0.34861  1.0000
  C   C1782     1.0  0.88066  0.26947  0.31265  1.0000
  C   C1783     1.0  0.89116  0.28926  0.30195  1.0000
  C   C1784     1.0  0.89773  0.30511  0.32718  1.0000
  C   C1785     1.0  0.89408  0.30124  0.36342  1.0000
  C   C1786     1.0  0.88328  0.28134  0.37390  1.0000
  P   P62       1.0  0.90007  0.32201  0.39513  1.0000
  C   C1787     1.0  0.92430  0.34170  0.38754  1.0000
  C   C1788     1.0  0.87935  0.33065  0.39123  1.0000
  C   C1789     1.0  0.88144  0.34857  0.37362  1.0000
  C   C1790     1.0  0.86481  0.35433  0.36934  1.0000
  C   C1791     1.0  0.84594  0.34202  0.38178  1.0000
  C   C1792     1.0  0.84365  0.32395  0.39845  1.0000
  C   C1793     1.0  0.86028  0.31828  0.40313  1.0000
  H   H1433     1.0  0.85940  0.47410  0.18620  1.0000
  C   C1794     1.0  0.68195  0.48078  0.16073  1.0000
  H   H1434     1.0  0.79225  0.28707  0.19024  1.0000
  H   H1435     1.0  0.76269  0.47491  0.11793  1.0000
  C   C1795     1.0  0.90237  0.31343  0.43932  1.0000
  C   C1796     1.0  0.91381  0.30136  0.44499  1.0000
  C   C1797     1.0  0.68333  0.38557  0.24793  1.0000
  C   C1798     1.0  0.67925  0.37665  0.21388  1.0000
  H   H1436     1.0  0.87432  0.42272  0.37976  1.0000
  C   C1799     1.0  0.85006  0.39649  0.45127  1.0000
  C   C1800     1.0  0.83239  0.38313  0.43404  1.0000
  H   H1437     1.0  0.66160  0.37249  0.16552  1.0000
  H   H1438     1.0  0.72215  0.42252  0.19645  1.0000
  H   H1439     1.0  0.90521  0.32039  0.31830  1.0000
  H   H1440     1.0  0.87918  0.27802  0.40137  1.0000
  H   H1441     1.0  0.89566  0.35790  0.36244  1.0000
  H   H1442     1.0  0.86632  0.36804  0.35543  1.0000
  H   H1443     1.0  0.83290  0.34610  0.37738  1.0000
  H   H1444     1.0  0.82884  0.31402  0.40659  1.0000
  H   H1445     1.0  0.85819  0.30393  0.41506  1.0000
  H   H1446     1.0  0.91820  0.36412  0.41973  1.0000
  C   C1801     1.0  0.69810  0.47203  0.45040  1.0000
  C   C1802     1.0  0.85059  0.30888  0.08340  1.0000
  H   H1447     1.0  0.92086  0.29684  0.42292  1.0000
  H   H1448     1.0  0.72668  0.46827  0.10581  1.0000
  C   C1803     1.0  0.72132  0.46729  0.22746  1.0000
  H   H1449     1.0  0.67590  0.46803  0.21325  1.0000
  H   H1450     1.0  0.70053  0.44337  0.00519  1.0000
  C   C1804     1.0  0.86115  0.32943  0.13768  1.0000
  P   P63       1.0  0.85626  0.34502  0.17191  1.0000
  C   C1805     1.0  0.83041  0.33335  0.18592  1.0000
  C   C1806     1.0  0.87268  0.34692  0.21001  1.0000
  C   C1807     1.0  0.86653  0.33283  0.23730  1.0000
  C   C1808     1.0  0.87902  0.33488  0.26735  1.0000
  C   C1809     1.0  0.89784  0.35078  0.27010  1.0000
  C   C1810     1.0  0.90435  0.36444  0.24247  1.0000
  C   C1811     1.0  0.89189  0.36248  0.21243  1.0000
  C   C1812     1.0  0.82066  0.34505  0.20197  1.0000
  C   C1813     1.0  0.80090  0.33589  0.21380  1.0000
  C   C1814     1.0  0.79062  0.31503  0.20940  1.0000
  C   C1815     1.0  0.80012  0.30330  0.19319  1.0000
  C   C1816     1.0  0.82006  0.31232  0.18212  1.0000
  C   C1817     1.0  0.86064  0.37017  0.15616  1.0000
  C   C1818     1.0  0.86393  0.38622  0.18069  1.0000
  C   C1819     1.0  0.86698  0.40564  0.16896  1.0000
  C   C1820     1.0  0.86687  0.40928  0.13258  1.0000
  C   C1821     1.0  0.86369  0.39346  0.10791  1.0000
  C   C1822     1.0  0.86057  0.37396  0.11959  1.0000
  H   H1451     1.0  0.88999  0.33121  0.16024  1.0000
  H   H1452     1.0  0.83314  0.32404  0.10835  1.0000
  H   H1453     1.0  0.85201  0.32036  0.23574  1.0000
  H   H1454     1.0  0.87389  0.32419  0.28858  1.0000
  H   H1455     1.0  0.90738  0.35254  0.29358  1.0000
  H   H1456     1.0  0.91900  0.37669  0.24440  1.0000
  H   H1457     1.0  0.89718  0.37320  0.19124  1.0000
  H   H1458     1.0  0.82831  0.36117  0.20623  1.0000
  H   H1459     1.0  0.79373  0.34496  0.22711  1.0000
  H   H1460     1.0  0.77545  0.30791  0.21925  1.0000
  H   H1461     1.0  0.86396  0.38377  0.20904  1.0000
  H   H1462     1.0  0.86924  0.41781  0.18828  1.0000
  H   H1463     1.0  0.86918  0.42436  0.12358  1.0000
  H   H1464     1.0  0.86356  0.39630  0.07969  1.0000
  H   H1465     1.0  0.85808  0.36198  0.10001  1.0000
  C   C1823     1.0  0.84564  0.25707  0.11187  1.0000
  C   C1824     1.0  0.88246  0.31305  0.11245  1.0000
  H   H1466     1.0  0.76067  0.41813  0.36453  1.0000
  C   C1825     1.0  0.92907  0.36094  0.40335  1.0000
  C   C1826     1.0  0.86833  0.30489  0.08474  1.0000
  C   C1827     1.0  0.65409  0.39163  0.20347  1.0000
  H   H1467     1.0  0.86795  0.25028  0.35680  1.0000
  H   H1468     1.0  0.72518  0.41317  0.37758  1.0000
  H   H1469     1.0  0.82298  0.47683  0.42808  1.0000
  C   C1828     1.0  0.83020  0.38407  0.39695  1.0000
  C   C1829     1.0  0.93907  0.33765  0.36810  1.0000
  C   C1830     1.0  0.97199  0.30214  0.99571  1.0000
  C   C1831     1.0  0.81147  0.47030  0.99173  1.0000
  S   S245      1.0  0.82469  0.47487  0.31804  1.0000
  C   C1832     1.0  0.74856  0.44314  0.44928  1.0000
  S   S246      1.0  0.86333  0.46194  0.30517  1.0000
  C   C1833     1.0  0.80455  0.40292  0.47239  1.0000
  C   C1834     1.0  0.86293  0.41137  0.39486  1.0000
  C   C1835     1.0  0.83647  0.47199  0.03709  1.0000
  H   H1470     1.0  0.95147  0.39110  0.41022  1.0000
  C   C1836     1.0  0.84694  0.45292  0.47834  1.0000
  C   C1837     1.0  0.84550  0.39806  0.37753  1.0000
  C   C1838     1.0  0.80297  0.46818  0.17025  1.0000
  C   C1839     1.0  0.82967  0.25859  0.13170  1.0000
  H   H1471     1.0  0.87494  0.25732  0.29287  1.0000
  C   C1840     1.0  0.77286  0.43618  0.41199  1.0000
  H   H1472     1.0  0.96196  0.30911  0.00563  1.0000
  C   C1841     1.0  0.74862  0.25475  0.40839  1.0000
  C   C1842     1.0  0.66820  0.41726  0.13100  1.0000
  H   H1473     1.0  0.69268  0.43299  0.09647  1.0000
  C   C1843     1.0  0.75262  0.25423  0.44487  1.0000
  C   C1844     1.0  0.85083  0.26086  0.47053  1.0000
  C   C1845     1.0  0.96985  0.26037  0.05519  1.0000
  C   C1846     1.0  0.67301  0.47803  0.19445  1.0000
  H   H1474     1.0  0.87635  0.25872  0.11456  1.0000
  H   H1475     1.0  0.75103  0.26899  0.39580  1.0000
  H   H1476     1.0  0.68739  0.36741  0.20473  1.0000
  C   C1847     1.0  0.94795  0.37622  0.39823  1.0000
  C   C1848     1.0  0.96233  0.37227  0.37787  1.0000
  C   C1849     1.0  0.82738  0.48115  0.06072  1.0000
  H   H1477     1.0  0.83413  0.48567  0.08701  1.0000
  H   H1478     1.0  0.85845  0.25085  0.46307  1.0000
  C   C1850     1.0  0.72049  0.46032  0.48512  1.0000
  H   H1479     1.0  0.92459  0.28529  0.48337  1.0000
  H   H1480     1.0  0.91101  0.45076  0.47050  1.0000
  S   S247      1.0  0.71719  0.47376  0.35651  1.0000
  C   C1851     1.0  0.71420  0.46538  0.45232  1.0000
  C   C1852     1.0  0.75105  0.47271  0.19248  1.0000
  C   C1853     1.0  0.73794  0.47661  0.08698  1.0000
  H   H1481     1.0  0.95471  0.25340  0.04368  1.0000
  H   H1482     1.0  0.78940  0.48249  0.00582  1.0000
  C   C1854     1.0  0.80236  0.47953  0.01526  1.0000
  H   H1483     1.0  0.64989  0.40915  0.24806  1.0000
  C   C1855     1.0  0.64928  0.44196  0.10285  1.0000
  H   H1484     1.0  0.76525  0.48272  0.18197  1.0000
  C   C1856     1.0  0.73202  0.48393  0.05623  1.0000
  C   C1857     1.0  0.80896  0.48352  0.19640  1.0000
  H   H1485     1.0  0.71619  0.48117  0.05110  1.0000
  C   C1858     1.0  0.73953  0.48056  0.21356  1.0000
  S   S248      1.0  0.66816  0.48350  0.34410  1.0000
  C   C1859     1.0  0.75843  0.48060  0.09393  1.0000
  H   H1486     1.0  0.97697  0.38412  0.37393  1.0000
  C   C1860     1.0  0.79270  0.41378  0.48266  1.0000
  H   H1487     1.0  0.76799  0.48457  0.43703  1.0000
  C   C1861     1.0  0.81033  0.48517  0.05000  1.0000
  H   H1488     1.0  0.73731  0.45036  0.00284  1.0000
  H   H1489     1.0  0.76219  0.24309  0.05910  1.0000
  H   H1490     1.0  0.81162  0.48012  0.22360  1.0000
  P   P64       1.0  0.74348  0.45542  0.48828  1.0000
  H   H1491     1.0  0.81230  0.48337  0.48823  1.0000
  Fe  Fe125     1.0  0.83604  0.42931  0.65578  1.0000
  S   S249      1.0  0.85375  0.46196  0.64326  1.0000
  S   S250      1.0  0.85085  0.40648  0.65092  1.0000
  Fe  Fe126     1.0  0.79809  0.43686  0.67042  1.0000
  S   S251      1.0  0.76526  0.42272  0.68471  1.0000
  Fe  Fe127     1.0  0.82577  0.45987  0.61178  1.0000
  C   C1862     1.0  0.74765  0.46323  0.63352  1.0000
  Fe  Fe128     1.0  0.83919  0.46884  0.69230  1.0000
  S   S252      1.0  0.80929  0.42680  0.62117  1.0000
  S   S253      1.0  0.82336  0.43621  0.70643  1.0000
  Fe  Fe129     1.0  0.81201  0.29134  0.66340  1.0000
  S   S254      1.0  0.84538  0.30093  0.65699  1.0000
  S   S255      1.0  0.79727  0.31394  0.67498  1.0000
  C   C1863     1.0  0.74086  0.25389  0.78484  1.0000
  Fe  Fe130     1.0  0.84267  0.27313  0.68725  1.0000
  S   S256      1.0  0.86544  0.27151  0.72935  1.0000
  Fe  Fe131     1.0  0.83706  0.28151  0.60727  1.0000
  S   S257      1.0  0.85103  0.29614  0.55593  1.0000
  S   S258      1.0  0.80968  0.26467  0.69732  1.0000
  S   S259      1.0  0.80374  0.27303  0.61249  1.0000
  C   C1864     1.0  0.87736  0.36084  0.85130  1.0000
  S   S260      1.0  0.67414  0.45399  0.70570  1.0000
  C   C1865     1.0  0.69926  0.45594  0.95394  1.0000
  S   S261      1.0  0.65536  0.44366  0.62346  1.0000
  H   H1492     1.0  0.67928  0.24609  0.77304  1.0000
  C   C1866     1.0  0.89616  0.31307  0.50265  1.0000
  Fe  Fe132     1.0  0.68345  0.46494  0.65079  1.0000
  C   C1867     1.0  0.86928  0.26124  0.83520  1.0000
  H   H1493     1.0  0.79685  0.45716  0.84246  1.0000
  C   C1868     1.0  0.90714  0.35668  0.87599  1.0000
  C   C1869     1.0  0.93911  0.27482  0.85265  1.0000
  H   H1494     1.0  0.96992  0.34265  0.88514  1.0000
  C   C1870     1.0  0.71067  0.46242  0.51619  1.0000
  C   C1871     1.0  0.95196  0.33830  0.77230  1.0000
  C   C1872     1.0  0.85994  0.26851  0.77531  1.0000
  C   C1873     1.0  0.80889  0.30235  0.76341  1.0000
  H   H1495     1.0  0.77067  0.42523  0.77228  1.0000
  C   C1874     1.0  0.87239  0.26249  0.79818  1.0000
  C   C1875     1.0  0.90714  0.30066  0.50799  1.0000
  C   C1876     1.0  0.92447  0.30151  0.79580  1.0000
  C   C1877     1.0  0.77401  0.46786  0.86084  1.0000
  C   C1878     1.0  0.93433  0.32789  0.75225  1.0000
  C   C1879     1.0  0.75600  0.27786  0.57963  1.0000
  H   H1496     1.0  0.90406  0.30135  0.85507  1.0000
  P   P65       1.0  0.74476  0.48244  0.88486  1.0000
  C   C1880     1.0  0.75093  0.43664  0.66971  1.0000
  C   C1881     1.0  0.75923  0.45262  0.64652  1.0000
  H   H1497     1.0  0.87919  0.25695  0.85258  1.0000
  C   C1882     1.0  0.72765  0.45798  0.64372  1.0000
  C   C1883     1.0  0.71920  0.44208  0.66715  1.0000
  C   C1884     1.0  0.73085  0.43137  0.68006  1.0000
  H   H1498     1.0  0.77431  0.45636  0.63726  1.0000
  C   C1885     1.0  0.77300  0.29463  0.57069  1.0000
  H   H1499     1.0  0.70367  0.43785  0.67488  1.0000
  H   H1500     1.0  0.72427  0.41892  0.69782  1.0000
  H   H1501     1.0  0.96273  0.35248  0.76295  1.0000
  H   H1502     1.0  0.68324  0.45315  0.95490  1.0000
  C   C1886     1.0  0.65550  0.39280  0.61535  1.0000
  C   C1887     1.0  0.83548  0.38098  0.65754  1.0000
  C   C1888     1.0  0.81563  0.37523  0.66931  1.0000
  C   C1889     1.0  0.80399  0.35465  0.67483  1.0000
  C   C1890     1.0  0.81205  0.33975  0.66814  1.0000
  C   C1891     1.0  0.83176  0.34565  0.65586  1.0000
  C   C1892     1.0  0.84343  0.36611  0.65079  1.0000
  H   H1503     1.0  0.80931  0.38663  0.67438  1.0000
  H   H1504     1.0  0.78873  0.35030  0.68420  1.0000
  H   H1505     1.0  0.83804  0.33453  0.64963  1.0000
  H   H1506     1.0  0.85863  0.37042  0.64115  1.0000
  S   S262      1.0  0.83807  0.25459  0.63650  1.0000
  H   H1507     1.0  0.77560  0.45456  0.53744  1.0000
  C   C1893     1.0  0.83326  0.32151  0.82228  1.0000
  C   C1894     1.0  0.83966  0.32813  0.78792  1.0000
  C   C1895     1.0  0.82726  0.31841  0.75849  1.0000
  P   P66       1.0  0.86244  0.35012  0.78164  1.0000
  C   C1896     1.0  0.88015  0.35276  0.81839  1.0000
  C   C1897     1.0  0.87376  0.34705  0.74044  1.0000
  C   C1898     1.0  0.87631  0.32882  0.73264  1.0000
  C   C1899     1.0  0.88620  0.32682  0.70187  1.0000
  C   C1900     1.0  0.89284  0.34265  0.67791  1.0000
  C   C1901     1.0  0.88994  0.36066  0.68507  1.0000
  C   C1902     1.0  0.88053  0.36293  0.71628  1.0000
  C   C1903     1.0  0.89672  0.34674  0.81471  1.0000
  C   C1904     1.0  0.91014  0.34876  0.84336  1.0000
  H   H1508     1.0  0.88843  0.36887  0.90530  1.0000
  C   C1905     1.0  0.85586  0.37227  0.77901  1.0000
  C   C1906     1.0  0.83771  0.37103  0.76203  1.0000
  C   C1907     1.0  0.83305  0.38834  0.75860  1.0000
  C   C1908     1.0  0.84649  0.40702  0.77179  1.0000
  C   C1909     1.0  0.86468  0.40846  0.78828  1.0000
  C   C1910     1.0  0.86946  0.39121  0.79163  1.0000
  H   H1509     1.0  0.84234  0.32861  0.84555  1.0000
  H   H1510     1.0  0.83158  0.32342  0.73169  1.0000
  H   H1511     1.0  0.87082  0.31619  0.75050  1.0000
  H   H1512     1.0  0.88800  0.31264  0.69598  1.0000
  H   H1513     1.0  0.89985  0.34080  0.65346  1.0000
  H   H1514     1.0  0.89476  0.37286  0.66628  1.0000
  H   H1515     1.0  0.87843  0.37703  0.72109  1.0000
  H   H1516     1.0  0.89948  0.34049  0.78997  1.0000
  H   H1517     1.0  0.92281  0.34402  0.84027  1.0000
  H   H1518     1.0  0.82730  0.35687  0.75065  1.0000
  H   H1519     1.0  0.81917  0.38734  0.74500  1.0000
  H   H1520     1.0  0.84296  0.42046  0.76864  1.0000
  H   H1521     1.0  0.87523  0.42306  0.79791  1.0000
  H   H1522     1.0  0.88393  0.39280  0.80347  1.0000
  H   H1523     1.0  0.79932  0.29507  0.74064  1.0000
  C   C1911     1.0  0.76958  0.48105  0.88436  1.0000
  H   H1524     1.0  0.68665  0.41290  0.61214  1.0000
  C   C1912     1.0  0.72557  0.41185  0.56376  1.0000
  H   H1525     1.0  0.93134  0.33401  0.72751  1.0000
  C   C1913     1.0  0.70272  0.45049  0.78973  1.0000
  C   C1914     1.0  0.70895  0.43930  0.81417  1.0000
  C   C1915     1.0  0.72208  0.44914  0.84246  1.0000
  C   C1916     1.0  0.84383  0.34161  0.52048  1.0000
  H   H1526     1.0  0.85507  0.33498  0.51615  1.0000
  C   C1917     1.0  0.78466  0.29327  0.54199  1.0000
  C   C1918     1.0  0.90620  0.47574  0.49616  1.0000
  H   H1527     1.0  0.76220  0.26063  0.70336  1.0000
  C   C1919     1.0  0.83622  0.34156  0.55449  1.0000
  H   H1528     1.0  0.82843  0.27465  0.83752  1.0000
  H   H1529     1.0  0.97143  0.25828  0.95869  1.0000
  Fe  Fe133     1.0  0.86362  0.25298  0.93948  1.0000
  H   H1530     1.0  0.74150  0.43614  0.77055  1.0000
  C   C1920     1.0  0.90480  0.31377  0.94245  1.0000
  H   H1531     1.0  0.88922  0.31748  0.52504  1.0000
  C   C1921     1.0  0.89076  0.36273  0.87996  1.0000
  C   C1922     1.0  0.84390  0.27264  0.78966  1.0000
  C   C1923     1.0  0.85356  0.26595  0.84963  1.0000
  C   C1924     1.0  0.72973  0.45452  0.98087  1.0000
  H   H1532     1.0  0.69230  0.44280  0.76815  1.0000
  H   H1533     1.0  0.70332  0.42296  0.81141  1.0000
  H   H1534     1.0  0.72636  0.44021  0.86171  1.0000
  H   H1535     1.0  0.88452  0.25878  0.78718  1.0000
  H   H1536     1.0  0.94239  0.24029  0.79169  1.0000
  C   C1925     1.0  0.88512  0.44777  0.54673  1.0000
  C   C1926     1.0  0.64991  0.40793  0.54956  1.0000
  C   C1927     1.0  0.91009  0.30531  0.88184  1.0000
  S   S263      1.0  0.82115  0.47328  0.55880  1.0000
  H   H1537     1.0  0.83414  0.27718  0.77242  1.0000
  C   C1928     1.0  0.74077  0.46427  0.95157  1.0000
  C   C1929     1.0  0.81486  0.30545  0.82704  1.0000
  H   H1538     1.0  0.83613  0.46023  0.98393  1.0000
  C   C1930     1.0  0.66586  0.47852  0.81359  1.0000
  C   C1931     1.0  0.76148  0.43029  0.57285  1.0000
  H   H1539     1.0  0.91745  0.35802  0.89826  1.0000
  H   H1540     1.0  0.87685  0.43694  0.56635  1.0000
  H   H1541     1.0  0.71165  0.40004  0.57155  1.0000
  H   H1542     1.0  0.86471  0.36558  0.85486  1.0000
  C   C1932     1.0  0.79557  0.47511  0.75589  1.0000
  Fe  Fe134     1.0  0.80510  0.24756  0.64526  1.0000
  C   C1933     1.0  0.67671  0.25383  0.71848  1.0000
  C   C1934     1.0  0.92963  0.30640  0.89131  1.0000
  H   H1543     1.0  0.77537  0.43280  0.58767  1.0000
  C   C1935     1.0  0.76147  0.44277  0.54454  1.0000
  H   H1544     1.0  0.88264  0.30791  0.89986  1.0000
  C   C1936     1.0  0.84077  0.27135  0.82659  1.0000
  S   S264      1.0  0.84979  0.26637  0.89616  1.0000
  H   H1545     1.0  0.74276  0.27463  0.74250  1.0000
  H   H1546     1.0  0.84802  0.46466  0.78400  1.0000
  H   H1547     1.0  0.81017  0.30034  0.85362  1.0000
  H   H1548     1.0  0.81588  0.35008  0.58675  1.0000
  C   C1937     1.0  0.94189  0.31203  0.81660  1.0000
  C   C1938     1.0  0.94370  0.26704  0.82084  1.0000
  C   C1939     1.0  0.74353  0.41501  0.58279  1.0000
  H   H1549     1.0  0.89220  0.42587  0.51547  1.0000
  C   C1940     1.0  0.84029  0.45595  0.51228  1.0000
  C   C1941     1.0  0.82809  0.46726  0.51618  1.0000
  H   H1550     1.0  0.74358  0.40587  0.60562  1.0000
  H   H1551     1.0  0.84162  0.33501  0.57639  1.0000
  C   C1942     1.0  0.97171  0.31338  0.87480  1.0000
  H   H1552     1.0  0.68732  0.47111  0.53836  1.0000
  C   C1943     1.0  0.80271  0.29581  0.79760  1.0000
  H   H1553     1.0  0.85416  0.46706  0.84957  1.0000
  H   H1554     1.0  0.89509  0.31631  0.96225  1.0000
  C   C1944     1.0  0.92545  0.24079  0.87558  1.0000
  C   C1945     1.0  0.72279  0.48146  0.82174  1.0000
  H   H1555     1.0  0.73781  0.24679  0.56816  1.0000
  C   C1946     1.0  0.74344  0.43987  0.52564  1.0000
  H   H1556     1.0  0.71592  0.45974  0.54218  1.0000
  H   H1557     1.0  0.95052  0.30974  0.93572  1.0000
  H   H1558     1.0  0.96961  0.33868  0.81906  1.0000
  H   H1559     1.0  0.78852  0.28329  0.80119  1.0000
  H   H1560     1.0  0.95106  0.27706  0.79961  1.0000
  C   C1947     1.0  0.79338  0.46717  0.86091  1.0000
  C   C1948     1.0  0.72555  0.42408  0.53497  1.0000
  C   C1949     1.0  0.76580  0.38264  0.49825  1.0000
  C   C1950     1.0  0.75063  0.25972  0.55992  1.0000
  C   C1951     1.0  0.79256  0.45506  0.76325  1.0000
  H   H1561     1.0  0.76274  0.45826  0.84215  1.0000
  C   C1952     1.0  0.75666  0.44716  0.76750  1.0000
  C   C1953     1.0  0.97730  0.27359  0.96945  1.0000
  C   C1954     1.0  0.67194  0.40706  0.59878  1.0000
  H   H1562     1.0  0.90859  0.29545  0.53447  1.0000
  Fe  Fe135     1.0  0.66082  0.47797  0.70838  1.0000
  H   H1563     1.0  0.78198  0.24625  0.83463  1.0000
  H   H1564     1.0  0.79820  0.30604  0.53578  1.0000
  C   C1955     1.0  0.93892  0.24623  0.81634  1.0000
  H   H1565     1.0  0.74669  0.47167  0.76121  1.0000
  C   C1956     1.0  0.75968  0.46736  0.76134  1.0000
  C   C1957     1.0  0.77309  0.44101  0.76857  1.0000
  S   S265      1.0  0.81299  0.46984  0.65960  1.0000
  H   H1566     1.0  0.80308  0.36440  0.53728  1.0000
  H   H1567     1.0  0.92886  0.31650  0.98010  1.0000
  C   C1958     1.0  0.66913  0.41464  0.56591  1.0000
  C   C1959     1.0  0.73104  0.46987  0.92315  1.0000
  C   C1960     1.0  0.69459  0.46913  0.51422  1.0000
  C   C1961     1.0  0.89375  0.44154  0.51806  1.0000
  H   H1568     1.0  0.86383  0.26624  0.52372  1.0000
  C   C1962     1.0  0.84419  0.28252  0.51504  1.0000
  H   H1569     1.0  0.67033  0.25753  0.66341  1.0000
  C   C1963     1.0  0.77940  0.27514  0.52237  1.0000
  H   H1570     1.0  0.90699  0.30119  0.74840  1.0000
  C   C1964     1.0  0.92063  0.30945  0.76397  1.0000
  C   C1965     1.0  0.76224  0.25827  0.53091  1.0000
  C   C1966     1.0  0.89781  0.30909  0.90729  1.0000
  H   H1571     1.0  0.80533  0.45034  0.76400  1.0000
  C   C1967     1.0  0.85374  0.26940  0.50504  1.0000
  C   C1968     1.0  0.74681  0.26222  0.75149  1.0000
  H   H1572     1.0  0.75420  0.47542  0.61527  1.0000
  C   C1969     1.0  0.75782  0.25438  0.72946  1.0000
  S   S266      1.0  0.71367  0.47154  0.62639  1.0000
  C   C1970     1.0  0.93612  0.31015  0.92710  1.0000
  C   C1971     1.0  0.96366  0.28209  0.98195  1.0000
  C   C1972     1.0  0.82160  0.34989  0.56025  1.0000
  C   C1973     1.0  0.93004  0.26156  0.88006  1.0000
  H   H1573     1.0  0.80256  0.25321  0.89004  1.0000
  C   C1974     1.0  0.76233  0.48059  0.49347  1.0000
  H   H1574     1.0  0.66345  0.46119  0.86110  1.0000
  C   C1975     1.0  0.79614  0.23794  0.87896  1.0000
  H   H1575     1.0  0.80551  0.46630  0.96482  1.0000
  C   C1976     1.0  0.81433  0.35800  0.53195  1.0000
  C   C1977     1.0  0.66782  0.47622  0.85050  1.0000
  C   C1978     1.0  0.92383  0.31399  0.95247  1.0000
  C   C1979     1.0  0.95578  0.33041  0.80431  1.0000
  H   H1576     1.0  0.68170  0.42635  0.55385  1.0000
  H   H1577     1.0  0.91376  0.28715  0.80438  1.0000
  H   H1578     1.0  0.73202  0.25974  0.80167  1.0000
  H   H1579     1.0  0.70233  0.46937  0.90261  1.0000
  P   P67       1.0  0.94578  0.30172  0.85861  1.0000
  H   H1580     1.0  0.76406  0.41206  0.50274  1.0000
  H   H1581     1.0  0.84494  0.44993  0.53556  1.0000
  C   C1980     1.0  0.70902  0.45054  0.98222  1.0000
  H   H1582     1.0  0.77751  0.30844  0.58676  1.0000
  H   H1583     1.0  0.74734  0.27879  0.60252  1.0000
  H   H1584     1.0  0.92662  0.26720  0.90503  1.0000
  H   H1585     1.0  0.66002  0.46534  0.79607  1.0000
  H   H1586     1.0  0.87996  0.47225  0.57247  1.0000
  H   H1587     1.0  0.71158  0.42133  0.52018  1.0000
  H   H1588     1.0  0.77155  0.35538  0.49031  1.0000
  H   H1589     1.0  0.69010  0.26760  0.72012  1.0000
  C   C1981     1.0  0.71016  0.46532  0.92436  1.0000
  H   H1590     1.0  0.75679  0.46736  0.95130  1.0000
  C   C1982     1.0  0.85299  0.47923  0.79761  1.0000
  C   C1983     1.0  0.88694  0.46796  0.55011  1.0000
  C   C1984     1.0  0.72924  0.47031  0.84633  1.0000
  C   C1985     1.0  0.85654  0.48066  0.83484  1.0000
  S   S267      1.0  0.93653  0.26734  0.98027  1.0000
  C   C1986     1.0  0.83674  0.34987  0.49214  1.0000
  C   C1987     1.0  0.66556  0.24816  0.68653  1.0000
  C   C1988     1.0  0.77915  0.48147  0.75482  1.0000
  H   H1591     1.0  0.78897  0.27406  0.50101  1.0000
  H   H1592     1.0  0.75840  0.48257  0.55020  1.0000
  C   C1989     1.0  0.77330  0.40365  0.49531  1.0000
  C   C1990     1.0  0.83177  0.28715  0.49000  1.0000
  C   C1991     1.0  0.82167  0.35783  0.49754  1.0000
  C   C1992     1.0  0.80845  0.47968  0.88429  1.0000
  H   H1593     1.0  0.70418  0.48009  0.77517  1.0000
  H   H1594     1.0  0.65744  0.38759  0.64162  1.0000
  H   H1595     1.0  0.82352  0.47930  0.88408  1.0000
  C   C1993     1.0  0.70956  0.47153  0.79358  1.0000
  C   C1994     1.0  0.74619  0.23792  0.79638  1.0000
  H   H1596     1.0  0.82491  0.29783  0.49713  1.0000
  C   C1995     1.0  0.89739  0.48211  0.52469  1.0000
  H   H1597     1.0  0.81076  0.48562  0.75117  1.0000
  C   C1996     1.0  0.67062  0.24171  0.74829  1.0000
  Fe  Fe136     1.0  0.90086  0.25178  0.98102  1.0000
  H   H1598     1.0  0.75081  0.37486  0.50838  1.0000
  S   S268      1.0  0.88223  0.27141  0.98588  1.0000
  H   H1599     1.0  0.64807  0.41460  0.52471  1.0000
  H   H1600     1.0  0.64539  0.45463  0.54059  1.0000
  C   C1997     1.0  0.76310  0.23837  0.74085  1.0000
  C   C1998     1.0  0.90432  0.45554  0.49280  1.0000
  S   S269      1.0  0.85717  0.50437  0.23821  1.0000
  H   H1601     1.0  0.94163  0.51682  0.01217  1.0000
  C   C1999     1.0  0.94586  0.58574  0.19732  1.0000
  C   C2000     1.0  0.78495  0.51153  0.46715  1.0000
  Fe  Fe137     1.0  0.88449  0.52998  0.02494  1.0000
  S   S270      1.0  0.89543  0.56402  0.02363  1.0000
  S   S271      1.0  0.87985  0.50891  0.07285  1.0000
  C   C2001     1.0  0.78124  0.50254  0.25896  1.0000
  H   H1602     1.0  0.93536  0.55205  0.10105  1.0000
  H   H1603     1.0  0.93877  0.59469  0.21118  1.0000
  C   C2002     1.0  0.79886  0.50940  0.28018  1.0000
  H   H1604     1.0  0.92990  0.61325  0.03199  1.0000
  C   C2003     1.0  0.77314  0.49214  0.07033  1.0000
  Fe  Fe138     1.0  0.68979  0.51669  0.04645  1.0000
  S   S272      1.0  0.70214  0.55076  0.04585  1.0000
  H   H1605     1.0  0.88477  0.49286  0.45678  1.0000
  H   H1606     1.0  0.67371  0.56716  0.10375  1.0000
  H   H1607     1.0  0.84380  0.58312  0.06661  1.0000
  H   H1608     1.0  0.81188  0.52352  0.14587  1.0000
  H   H1609     1.0  0.80646  0.57004  0.07001  1.0000
  C   C2004     1.0  0.97693  0.62704  0.09513  1.0000
  C   C2005     1.0  0.96619  0.60674  0.08491  1.0000
  H   H1610     1.0  0.64984  0.56082  0.15347  1.0000
  C   C2006     1.0  0.81437  0.55970  0.07182  1.0000
  C   C2007     1.0  0.84558  0.55374  0.07102  1.0000
  H   H1611     1.0  0.64957  0.61861  0.18843  1.0000
  H   H1612     1.0  0.86186  0.55950  0.06944  1.0000
  C   C2008     1.0  0.96348  0.56220  0.16104  1.0000
  H   H1613     1.0  0.67737  0.59487  0.06227  1.0000
  C   C2009     1.0  0.66594  0.50415  0.14525  1.0000
  C   C2010     1.0  0.65689  0.50129  0.17887  1.0000
  C   C2011     1.0  0.65165  0.57321  0.13576  1.0000
  C   C2012     1.0  0.94792  0.53006  0.02953  1.0000
  H   H1614     1.0  0.66312  0.51422  0.12650  1.0000
  C   C2013     1.0  0.74657  0.49518  0.03242  1.0000
  C   C2014     1.0  0.87284  0.50812  0.11846  1.0000
  C   C2015     1.0  0.87209  0.52496  0.13717  1.0000
  C   C2016     1.0  0.86714  0.52353  0.17361  1.0000
  C   C2017     1.0  0.86259  0.50522  0.19178  1.0000
  H   H1615     1.0  0.95455  0.60584  0.15356  1.0000
  C   C2018     1.0  0.86160  0.52629  0.44694  1.0000
  H   H1616     1.0  0.87570  0.53918  0.12379  1.0000
  H   H1617     1.0  0.86698  0.53674  0.18790  1.0000
  H   H1618     1.0  0.95383  0.54176  0.20470  1.0000
  H   H1619     1.0  0.94045  0.58639  0.05417  1.0000
  C   C2019     1.0  0.66036  0.48826  0.20369  1.0000
  C   C2020     1.0  0.66735  0.59251  0.08456  1.0000
  H   H1620     1.0  0.78731  0.53363  0.07599  1.0000
  C   C2021     1.0  0.86863  0.51094  0.43867  1.0000
  H   H1621     1.0  0.66970  0.69361  0.06346  1.0000
  C   C2022     1.0  0.66151  0.67895  0.07464  1.0000
  H   H1622     1.0  0.74210  0.50089  0.00851  1.0000
  C   C2023     1.0  0.96376  0.56484  0.07356  1.0000
  H   H1623     1.0  0.93813  0.56257  0.23679  1.0000
  C   C2024     1.0  0.83541  0.56710  0.06999  1.0000
  C   C2025     1.0  0.79579  0.58542  0.99105  1.0000
  C   C2026     1.0  0.97473  0.56210  0.04458  1.0000
  S   S273      1.0  0.65224  0.56119  0.00935  1.0000
  H   H1624     1.0  0.84302  0.52291  0.07393  1.0000
  C   C2027     1.0  0.83476  0.53293  0.07326  1.0000
  P   P68       1.0  0.79976  0.49854  0.08001  1.0000
  C   C2028     1.0  0.87995  0.50509  0.46381  1.0000
  H   H1625     1.0  0.81741  0.51533  0.20756  1.0000
  C   C2029     1.0  0.94456  0.55010  0.07977  1.0000
  S   S274      1.0  0.70947  0.51392  0.00199  1.0000
  C   C2030     1.0  0.93684  0.53270  0.05810  1.0000
  C   C2031     1.0  0.66347  0.67583  0.11091  1.0000
  C   C2032     1.0  0.65596  0.60462  0.08891  1.0000
  C   C2033     1.0  0.79528  0.54152  0.28945  1.0000
  C   C2034     1.0  0.77774  0.53480  0.26793  1.0000
  C   C2035     1.0  0.77074  0.51536  0.25204  1.0000
  H   H1626     1.0  0.97330  0.62572  0.99580  1.0000
  P   P69       1.0  0.74854  0.50744  0.22303  1.0000
  C   C2036     1.0  0.72930  0.51312  0.24633  1.0000
  C   C2037     1.0  0.75402  0.52050  0.18123  1.0000
  C   C2038     1.0  0.74018  0.51372  0.15243  1.0000
  C   C2039     1.0  0.74338  0.52464  0.12100  1.0000
  C   C2040     1.0  0.76050  0.54224  0.11781  1.0000
  C   C2041     1.0  0.77477  0.54867  0.14575  1.0000
  C   C2042     1.0  0.77160  0.53786  0.17733  1.0000
  C   C2043     1.0  0.71559  0.51971  0.22815  1.0000
  C   C2044     1.0  0.70042  0.52339  0.24666  1.0000
  C   C2045     1.0  0.69880  0.52050  0.28330  1.0000
  C   C2046     1.0  0.71245  0.51406  0.30158  1.0000
  C   C2047     1.0  0.72755  0.51023  0.28319  1.0000
  H   H1627     1.0  0.77810  0.50856  0.02121  1.0000
  C   C2048     1.0  0.64904  0.66310  0.05266  1.0000
  Fe  Fe139     1.0  0.67724  0.54775  0.00493  1.0000
  H   H1628     1.0  0.96989  0.55271  0.14696  1.0000
  C   C2049     1.0  0.95438  0.55593  0.19371  1.0000
  C   C2050     1.0  0.65284  0.65687  0.12525  1.0000
  C   C2051     1.0  0.81359  0.52532  0.07470  1.0000
  H   H1629     1.0  0.79196  0.51979  0.44387  1.0000
  H   H1630     1.0  0.80064  0.55656  0.30148  1.0000
  H   H1631     1.0  0.76965  0.54480  0.26349  1.0000
  S   S275      1.0  0.75482  0.56632  0.99547  1.0000
  C   C2052     1.0  0.80359  0.49272  0.12556  1.0000
  H   H1632     1.0  0.73239  0.51965  0.09921  1.0000
  H   H1633     1.0  0.76273  0.55080  0.09353  1.0000
  H   H1634     1.0  0.78821  0.56220  0.14305  1.0000
  H   H1635     1.0  0.78281  0.54331  0.19856  1.0000
  H   H1636     1.0  0.71617  0.52168  0.19970  1.0000
  H   H1637     1.0  0.68951  0.52792  0.23242  1.0000
  H   H1638     1.0  0.68667  0.52282  0.29736  1.0000
  H   H1639     1.0  0.81964  0.53405  0.31171  1.0000
  C   C2053     1.0  0.94552  0.56766  0.21179  1.0000
  C   C2054     1.0  0.76700  0.49934  0.03947  1.0000
  H   H1640     1.0  0.65472  0.65475  0.15331  1.0000
  C   C2055     1.0  0.80352  0.53893  0.07447  1.0000
  H   H1641     1.0  0.85251  0.53047  0.42758  1.0000
  C   C2056     1.0  0.94287  0.61713  0.05008  1.0000
  S   S276      1.0  0.66409  0.51354  0.00841  1.0000
  H   H1642     1.0  0.91450  0.48640  0.47642  1.0000
  H   H1643     1.0  0.92203  0.52142  0.06298  1.0000
  H   H1644     1.0  0.71109  0.51152  0.32995  1.0000
  C   C2057     1.0  0.66518  0.57680  0.10788  1.0000
  C   C2058     1.0  0.67849  0.49385  0.13591  1.0000
  H   H1645     1.0  0.65743  0.61622  0.06966  1.0000
  C   C2059     1.0  0.80925  0.50799  0.15218  1.0000
  C   C2060     1.0  0.80594  0.52886  0.29533  1.0000
  H   H1646     1.0  0.73755  0.50460  0.29775  1.0000
  H   H1647     1.0  0.72657  0.50033  0.15458  1.0000
  C   C2061     1.0  0.94898  0.60188  0.06263  1.0000
  S   S277      1.0  0.68995  0.49650  0.09358  1.0000
  Fe  Fe140     1.0  0.72072  0.54755  0.99934  1.0000
  H   H1648     1.0  0.64759  0.66541  0.02444  1.0000
  C   C2062     1.0  0.96373  0.58026  0.14611  1.0000
  C   C2063     1.0  0.81213  0.50339  0.18736  1.0000
  H   H1649     1.0  0.64717  0.50930  0.18575  1.0000
  H   H1650     1.0  0.86493  0.50318  0.41296  1.0000
  C   C2064     1.0  0.97076  0.64227  0.08261  1.0000
  C   C2065     1.0  0.77152  0.49143  0.46344  1.0000
  H   H1651     1.0  0.94908  0.64911  0.04988  1.0000
  C   C2066     1.0  0.96678  0.54481  0.02262  1.0000
  C   C2067     1.0  0.95375  0.63732  0.06001  1.0000
  C   C2068     1.0  0.86286  0.48829  0.17279  1.0000
  H   H1652     1.0  0.79245  0.59898  0.99395  1.0000
  C   C2069     1.0  0.77993  0.56648  0.99053  1.0000
  H   H1653     1.0  0.67327  0.68810  0.12787  1.0000
  C   C2070     1.0  0.95491  0.59204  0.16458  1.0000
  H   H1654     1.0  0.97505  0.54313  0.99969  1.0000
  H   H1655     1.0  0.80708  0.49958  0.28473  1.0000
  C   C2071     1.0  0.86809  0.48979  0.13656  1.0000
  H   H1656     1.0  0.77597  0.48721  0.24842  1.0000
  H   H1657     1.0  0.95609  0.56743  0.48215  1.0000
  P   P70       1.0  0.97382  0.58712  0.10227  1.0000
  C   C2072     1.0  0.86624  0.53612  0.48019  1.0000
  H   H1658     1.0  0.86084  0.54807  0.48660  1.0000
  C   C2073     1.0  0.86778  0.50988  0.61680  1.0000
  H   H1659     1.0  0.71482  0.49372  0.69491  1.0000
  C   C2074     1.0  0.89379  0.51302  0.57381  1.0000
  P   P71       1.0  0.90050  0.50844  0.52927  1.0000
  Fe  Fe141     1.0  0.88027  0.52609  0.94218  1.0000
  S   S278      1.0  0.89123  0.55997  0.93649  1.0000
  S   S279      1.0  0.86809  0.50021  0.90012  1.0000
  Fe  Fe142     1.0  0.68486  0.51379  0.96390  1.0000
  S   S280      1.0  0.69690  0.54755  0.95830  1.0000
  H   H1660     1.0  0.67110  0.59918  0.97000  1.0000
  C   C2075     1.0  0.69136  0.58760  0.90192  1.0000
  H   H1661     1.0  0.77217  0.51710  0.84772  1.0000
  C   C2076     1.0  0.67191  0.57286  0.89739  1.0000
  H   H1662     1.0  0.97412  0.52452  0.53820  1.0000
  C   C2077     1.0  0.69942  0.60192  0.87575  1.0000
  H   H1663     1.0  0.80341  0.55145  0.75145  1.0000
  C   C2078     1.0  0.92664  0.52375  0.52145  1.0000
  H   H1664     1.0  0.70013  0.58798  0.92595  1.0000
  S   S281      1.0  0.85374  0.49602  0.73062  1.0000
  H   H1665     1.0  0.74643  0.48772  0.70151  1.0000
  C   C2079     1.0  0.78891  0.52107  0.50070  1.0000
  S   S282      1.0  0.95092  0.58269  0.97708  1.0000
  H   H1666     1.0  0.70875  0.51955  0.73269  1.0000
  H   H1667     1.0  0.82697  0.57429  0.79646  1.0000
  H   H1668     1.0  0.82680  0.52093  0.73205  1.0000
  H   H1669     1.0  0.65786  0.54429  0.80476  1.0000
  H   H1670     1.0  0.66596  0.56214  0.91830  1.0000
  H   H1671     1.0  0.79908  0.53673  0.50351  1.0000
  H   H1672     1.0  0.88157  0.53859  0.53058  1.0000
  H   H1673     1.0  0.65930  0.62711  0.95643  1.0000
  C   C2080     1.0  0.67860  0.51479  0.82281  1.0000
  C   C2081     1.0  0.68046  0.51249  0.85976  1.0000
  C   C2082     1.0  0.67101  0.49783  0.79958  1.0000
  C   C2083     1.0  0.96737  0.54727  0.50945  1.0000
  H   H1674     1.0  0.86167  0.50092  0.56180  1.0000
  H   H1675     1.0  0.68295  0.52979  0.81222  1.0000
  H   H1676     1.0  0.68589  0.52565  0.87736  1.0000
  H   H1677     1.0  0.93834  0.50375  0.54891  1.0000
  C   C2084     1.0  0.85654  0.49672  0.77799  1.0000
  S   S283      1.0  0.66749  0.50157  0.75368  1.0000
  H   H1678     1.0  0.77193  0.50686  0.66847  1.0000
  C   C2085     1.0  0.86357  0.49952  0.85310  1.0000
  C   C2086     1.0  0.86657  0.51696  0.83360  1.0000
  C   C2087     1.0  0.86312  0.51554  0.79632  1.0000
  H   H1679     1.0  0.83737  0.56017  0.84991  1.0000
  H   H1680     1.0  0.78196  0.51810  0.55629  1.0000
  H   H1681     1.0  0.87182  0.53156  0.84714  1.0000
  H   H1682     1.0  0.86582  0.52919  0.78154  1.0000
  C   C2088     1.0  0.80421  0.49292  0.90763  1.0000
  S   S284      1.0  0.90549  0.52848  0.98149  1.0000
  C   C2089     1.0  0.88451  0.51471  0.49746  1.0000
  C   C2090     1.0  0.67481  0.49315  0.87385  1.0000
  C   C2091     1.0  0.88257  0.51766  0.64365  1.0000
  H   H1683     1.0  0.92448  0.52527  0.59542  1.0000
  S   S285      1.0  0.67538  0.48925  0.92035  1.0000
  H   H1684     1.0  0.91439  0.52920  0.65661  1.0000
  C   C2092     1.0  0.94203  0.51758  0.53418  1.0000
  H   H1685     1.0  0.79177  0.51334  0.61477  1.0000
  C   C2093     1.0  0.90862  0.52104  0.60083  1.0000
  C   C2094     1.0  0.74448  0.49960  0.71749  1.0000
  C   C2095     1.0  0.72632  0.50271  0.71404  1.0000
  S   S286      1.0  0.85862  0.52475  0.98595  1.0000
  C   C2096     1.0  0.80535  0.55090  0.98358  1.0000
  H   H1686     1.0  0.72739  0.49770  0.82459  1.0000
  H   H1687     1.0  0.71447  0.61335  0.87944  1.0000
  H   H1688     1.0  0.81607  0.50281  0.92539  1.0000
  C   C2097     1.0  0.76364  0.52257  0.86583  1.0000
  C   C2098     1.0  0.73761  0.51646  0.90965  1.0000
  H   H1689     1.0  0.76688  0.53463  0.78341  1.0000
  S   S287      1.0  0.84765  0.57470  0.98180  1.0000
  C   C2099     1.0  0.74867  0.50899  0.88673  1.0000
  H   H1690     1.0  0.65977  0.58707  0.81668  1.0000
  C   C2100     1.0  0.90298  0.52334  0.63562  1.0000
  C   C2101     1.0  0.87335  0.50753  0.58207  1.0000
  C   C2102     1.0  0.64971  0.61429  0.97115  1.0000
  H   H1691     1.0  0.72574  0.50646  0.92572  1.0000
  Fe  Fe143     1.0  0.91579  0.56264  0.97843  1.0000
  C   C2103     1.0  0.68800  0.60159  0.84501  1.0000
  C   C2104     1.0  0.96231  0.52933  0.52821  1.0000
  C   C2105     1.0  0.76801  0.54337  0.86879  1.0000
  C   C2106     1.0  0.75730  0.55072  0.89234  1.0000
  C   C2107     1.0  0.74199  0.53726  0.91242  1.0000
  H   H1692     1.0  0.77995  0.55381  0.85331  1.0000
  H   H1693     1.0  0.76093  0.56686  0.89542  1.0000
  H   H1694     1.0  0.73377  0.54303  0.93071  1.0000
  C   C2108     1.0  0.83012  0.52383  0.67581  1.0000
  C   C2109     1.0  0.82039  0.52171  0.64262  1.0000
  C   C2110     1.0  0.79939  0.51555  0.64047  1.0000
  C   C2111     1.0  0.78808  0.51168  0.67140  1.0000
  C   C2112     1.0  0.79770  0.51381  0.70501  1.0000
  C   C2113     1.0  0.81886  0.51976  0.70678  1.0000
  P   P72       1.0  0.78345  0.50756  0.74559  1.0000
  C   C2114     1.0  0.75971  0.51142  0.74170  1.0000
  H   H1695     1.0  0.80017  0.50023  0.81452  1.0000
  C   C2115     1.0  0.93185  0.54184  0.50270  1.0000
  H   H1696     1.0  0.82426  0.52320  0.85816  1.0000
  H   H1697     1.0  0.87820  0.51888  0.67082  1.0000
  H   H1698     1.0  0.85192  0.50489  0.62311  1.0000
  C   C2116     1.0  0.65648  0.59840  0.97882  1.0000
  C   C2117     1.0  0.75590  0.52572  0.76362  1.0000
  C   C2118     1.0  0.73757  0.52857  0.76044  1.0000
  C   C2119     1.0  0.72290  0.51725  0.73535  1.0000
  C   C2120     1.0  0.87784  0.53054  0.50520  1.0000
  H   H1699     1.0  0.73464  0.53953  0.77745  1.0000
  C   C2121     1.0  0.79964  0.52412  0.77992  1.0000
  C   C2122     1.0  0.80747  0.54514  0.77509  1.0000
  C   C2123     1.0  0.82085  0.55811  0.80043  1.0000
  C   C2124     1.0  0.82673  0.55018  0.83051  1.0000
  C   C2125     1.0  0.81920  0.52930  0.83531  1.0000
  C   C2126     1.0  0.80563  0.51631  0.81026  1.0000
  H   H1700     1.0  0.84636  0.52804  0.67772  1.0000
  H   H1701     1.0  0.82904  0.52439  0.61853  1.0000
  C   C2127     1.0  0.77937  0.51053  0.53051  1.0000
  H   H1702     1.0  0.78193  0.50417  0.92576  1.0000
  C   C2128     1.0  0.78489  0.49366  0.90766  1.0000
  C   C2129     1.0  0.66853  0.58689  0.84040  1.0000
  H   H1703     1.0  0.69417  0.61282  0.82487  1.0000
  C   C2130     1.0  0.66038  0.57231  0.86646  1.0000
  S   S288      1.0  0.67250  0.49047  0.65490  1.0000
  H   H1704     1.0  0.65012  0.53414  0.74165  1.0000
  H   H1705     1.0  0.80900  0.53754  0.98083  1.0000
  C   C2131     1.0  0.78477  0.54910  0.98643  1.0000
  C   C2132     1.0  0.76609  0.49037  0.52697  1.0000
  Fe  Fe144     1.0  0.87020  0.55841  0.98204  1.0000
  C   C2133     1.0  0.82115  0.57015  0.98442  1.0000
  C   C2134     1.0  0.95216  0.55351  0.49670  1.0000
  H   H1706     1.0  0.82781  0.60213  0.98846  1.0000
  C   C2135     1.0  0.97771  0.59908  0.97690  1.0000
  C   C2136     1.0  0.81598  0.58722  0.98791  1.0000
  H   H1707     1.0  0.77271  0.53439  0.98536  1.0000
  H   H1708     1.0  0.92034  0.54698  0.49261  1.0000
  H   H1709     1.0  0.71169  0.96653  0.05464  1.0000
  C   C2137     1.0  0.68281  0.95234  0.07906  1.0000
  H   H1710     1.0  0.68488  0.93826  0.08368  1.0000
  C   C2138     1.0  0.66493  0.95453  0.08914  1.0000
  C   C2139     1.0  0.69793  0.96826  0.06284  1.0000
  C   C2140     1.0  0.66184  0.97253  0.08228  1.0000
  H   H1711     1.0  0.65356  0.94212  0.10218  1.0000
  H   H1712     1.0  0.67086  0.98113  0.15251  1.0000
  H   H1713     1.0  0.68021  0.97035  0.86029  1.0000
  C   C2141     1.0  0.64773  0.94146  0.79867  1.0000
  H   H1714     1.0  0.70619  0.96646  0.90032  1.0000
  C   C2142     1.0  0.66269  0.95570  0.74278  1.0000
  C   C2143     1.0  0.68742  0.93648  0.91615  1.0000
  H   H1715     1.0  0.69885  0.93484  0.93380  1.0000
  H   H1716     1.0  0.65391  0.97677  0.89762  1.0000
  C   C2144     1.0  0.65726  0.94132  0.87251  1.0000
  C   C2145     1.0  0.67666  0.95655  0.87507  1.0000
  C   C2146     1.0  0.66658  0.97728  0.97488  1.0000
  C   C2147     1.0  0.65512  0.95799  0.77596  1.0000
  C   C2148     1.0  0.69154  0.95428  0.89732  1.0000
  C   C2149     1.0  0.64980  0.81023  0.50866  1.0000
  H   H1717     1.0  0.65261  0.84119  0.50262  1.0000
  H   H1718     1.0  0.66507  0.90722  0.92770  1.0000
  H   H1719     1.0  0.66915  0.93529  0.70658  1.0000
  H   H1720     1.0  0.65709  0.90624  0.74719  1.0000
  H   H1721     1.0  0.67386  0.79974  0.88428  1.0000
  C   C2150     1.0  0.66326  0.93702  0.73228  1.0000
  C   C2151     1.0  0.65644  0.92066  0.75512  1.0000
  C   C2152     1.0  0.66839  0.92094  0.91276  1.0000
  C   C2153     1.0  0.65806  0.79242  0.87647  1.0000
  H   H1722     1.0  0.66826  0.96848  0.72529  1.0000
  C   C2154     1.0  0.67062  0.95967  0.98116  1.0000
  C   C2155     1.0  0.65336  0.92331  0.89104  1.0000
  C   C2156     1.0  0.65258  0.78225  0.84356  1.0000
  H   H1723     1.0  0.66416  0.78165  0.82583  1.0000
  C   C2157     1.0  0.64888  0.92291  0.78831  1.0000
  H   H1724     1.0  0.65538  0.97275  0.78384  1.0000
  H   H1725     1.0  0.66540  0.81420  0.51739  1.0000
  H   H1726     1.0  0.64724  0.80084  0.92513  1.0000
  C   C2158     1.0  0.64559  0.98127  0.87739  1.0000
  H   H1727     1.0  0.68612  0.96098  0.98499  1.0000
  C   C2159     1.0  0.65492  0.94032  0.98245  1.0000
  C   C2160     1.0  0.64631  0.97509  0.97018  1.0000
  H   H1728     1.0  0.65850  0.92712  0.98759  1.0000
