data_image0
_chemical_formula_structural       FeSHFeS2FeSHSFe2S2FeSFeS3C8HCHSC8H4C6H3CH2CH2CHCHCHC2HC2H3C2HCH3C2HFeC3H2C4H2SC9H4C3H2CHC2HCSCH2C2H3C3HC2H2CHCHPCH2PHC3H5C2HC3H5C2HC2H3C3HC2HC4H4PH2C2HCSHC2HFeSFeS3H2C6H4C6H2C2HC6PC18H17C2H3C4H2C4SHCH2PCH2C3HCHCH2CHCH2CH2C2HCHCHC3HC2H2CH3C2HC2H3CSCHCSCH2CHCH3C5H2SH2C2H2C5HC2HC2H2CPFeC3HCHCHC2HC3SHSH2FeH2C2HFeS2FeS2Fe2S3FeSCFeSHFe2SCSH2PC3HCH5C6H7C6H3C6H3C7H3C9H5C2HC5H3CHCHCHC2H2C4HCHCHCHC3HC2HCHCHPH2C2H2C7PC14H2SCH14C2H3CSHCHCHCH2CSHCHCHCHC2H2CHCHCH2CH3CHC2SFeS2FeS2FeSFeCS2CH9CHC2HC6H4C6H4C6H5CH2PHCH6SCH2C2HC5H2C3HC3HCH2CPHCH2C3H2CH4C2HC4PC9HC8H2C3HC2HCHCH2CHC5HC3HCHC3HC2HCPCHPC4HCH2CHC3H3CHCHCHC5H2CH2C6HCH2C3H2CHCHCH2CHC5HC3HCPCHC2H2CH2C2H2C2HC3H2CHCSHCHCHCHC2HCH3C3S2HCH2FeHFeS2FeHFeCS2PHC3FeS2FeCFeHS2C5HSC6H7SCHC2HC3HCHC6H2C6H3C6HC3SH5C2HCSC2H3PSCHCHC7PC2H2CH2CH3SHCH6CH4C2HC3HCHC3HC2HCHC6H8CHC2PC5HC15H5C2H11C2H2C4HC2HC3H2C2PHC2SCSC4SH4CH3CH2C2HC2HCHC2H3C2HPCHC2H2C2H3CHCH5CHC2HC3SCHCHCPCHC5H2FeCHC2H2C2HCH2C3H2C2HC2HC2HC11HCHC3HCH3CPH2CH5SFeHFeCHCSHC4HCH5SCHCS2FeSFeSFe2S2FeSFeS4CFeS2FeHFeS3HFeSCFeSCFeSFeSFeSFeS2FeCFeS4CH2C3HCHC4H2C9H4C3HSC6H4C5H4FeCHC7H2CHC6H4CH2CHC6HPC2HCHCH2C2HCH3SC6PHC4H2FeC5HC3H4C2HSH3C2HCH2C6PC9H2C7H19CHCHCHCH2C3HCH7CHCH2CH3CH2C8PC18H19C4HCSHC3HCH3PCH2C2HC3SHCHSC2HC2SHC2H2SC5HCHCHFeH2CH3CHCS2CH2C3HCSCFeS2CFeCS2FeSC2SFe2S2CH2C6H3SH2C3HCHCH2C2FeHSPH3C3H2C4SCHCH3C2HC2H2CHCHCHCH4FeCHCHC4H3C3HFeC2H2C2SCSHCH2CHCH3SCH2C2HSH2FeS2FeS2FeSFeS3CHCH2SCH2C2HCH3C6H4C6H2CHC6H4C4HCHC6H4C4HCHCH3C2H2CHCPCHCH6PCHCHCHCSCHC3PH4CH5C3HC3PC19H5C2H4CH6C6PC18H18CHC6PC18H11CHCH4C2HC3H2CSH9CH3C5H2C2HCHC5HCH2CHCH2SH2SH2CFeSCFeS2FeSFeSFeS3HCFeHSHS2FeHSFeCSCHC2S2H4C2HC7H5C4HCHPC2H3CH4C6H4C3HCHC6HC2H2PH2CH3CHCHC3HC2H3C2SH2C5PHC9HC2H7CHCHC6H2C2H4FeHC2HC3HCH2Fe2CHCHC2H2SC3HCHC8PC18H20CHCH6CPSC2HC3H4C2H4C6H4C7PC7SC2HCHC4HCHFeCH2C3H3SHC7H2C2HCH5C2SH2CHCHCHCHCH3C3SFeC2S2C2HC3H4C2HC2HC3HC2FeCHSCHFeCSH2C3HCHCH5CFeH3S2CSFeSCFeSHFeSFeSHFe2S2FeSFeHS2CHFeS2FeSFeCS2HCFeCFeS3CFeCS2CHFeC3H2C3H4CSCH2C6H4C2H2FeC6H4C5H4CH2C9HSC6HCH2CHCHCH3C4PC3HC14H18CH3C3H2C6PC2H2CHC2HCHC4H2CH6SCHCH2CH3C3HCHCH4C4PC18SHCH16C4H6FeCH3CH2C3H5CHCH2CHC3SHCPH2CHC3HPC3H3SC3HCHS2CH3C2FeC7HCSC2H2C3SCHCSH4C2FeSHSFeSFeS2FeS2FeSFeS3HSPFeSCHCPH2SC2FeH2CHCSH7FeH3C5HCHC2H3CHCHFeC6H4C6H4C5H3C6H4C6H4C8PC3HC3HC4S2C2H9CH3CSH2C4H2C2H2C4HC3HC4PC18H5C2H12C12H9C3PC12H4CHPH4C2HCFeCSCH4C3H3C2HPCHC2FeH2C4HC3H2CH2C2HCH2CHCH2C2PCHCH3C2SHC9FeC2H2C3H2SC2H3CH2C2HC4HC3HCH2SC2H2CHCHCHC4HC5HCH3C5HCHCH2CHSHC2H7CHC2H2C2HCHCFeH2CHSHCHC3HC2SCFeS2FeS2FeSFeS3HC2H2SPH2CPC3HCHCH5C6H4C6H4C6H5C5H7CHCHCHCHC3H3C3SH3C2H3CHC10H10C3HC3HC3HC2H4CH2C2PC13H2CH2CH7CHCH4C7PHC6HC7H3CH6CHC2H4C8PC2HFeH3CHC3HC2HC2H2CH2C2HC7H3C2SC2SCFeS2FeSFeHFeHS2CSCSH2FeSCFeSHFeS2Fe2S2FeS2C2HCSC6H5CH4C2H2C6H4C8H4C2HC6PC14H15CH3SHC2HC2HSC2HC7HCH4C7PCH8CSCSH2C6PC9HC9H9SCH6C2H2CH2FePC2HC2H2C5H4SPH2SHFeC2HCHC2H6C2FeSHS2C2HCH3C6H4C6H4C3HCH3CH2C3PCHFeHCH2C9H2C2H2CHCHPC4H2CHC4HCHPCH5CH2CHSH2CH2C2FeHC4HCSCHC3HPCH2C2HSC2H2C5H2CSHC3PC8HC4HC2HC4H7CHC2H3C2PC4HCH2C4H2CHC3H2SH3C2H2CH2C2H2SCHCHC6HC2H3CSHSCFeS2CHCSHCS2FeHFeS2FeSHFe2S2FeC3HC3FeH3C6H4CHC4HCH4CH3CSHC2HC5PHSC2H2CHC3SCSCHCH7C3FeC2HCHC3HC5PC16H15SH3CH4CHCHC2FeCH3C3HSH2SC2HCSH2SCHSH2CH4
_chemical_formula_sum              "Fe144 S288 H1728 C2160 P72"
_cell_length_a       73.6313
_cell_length_b       73.3461
_cell_length_c       36.3394
_cell_angle_alpha    90.9301
_cell_angle_beta     90.9188
_cell_angle_gamma    112.022

_space_group_name_H-M_alt    "P 1"
_space_group_IT_number       1

loop_
  _space_group_symop_operation_xyz
  'x, y, z'

loop_
  _atom_site_type_symbol
  _atom_site_label
  _atom_site_symmetry_multiplicity
  _atom_site_fract_x
  _atom_site_fract_y
  _atom_site_fract_z
  _atom_site_occupancy
  Fe  Fe1       1.0  0.06541  0.32647  0.01720  1.0000
  S   S1        1.0  0.06874  0.35685  0.03628  1.0000
  H   H1        1.0  0.04496  0.29547  0.15730  1.0000
  Fe  Fe2       1.0  0.10893  0.33539  0.04052  1.0000
  S   S2        1.0  0.11431  0.36645  0.05933  1.0000
  S   S3        1.0  0.13158  0.32129  0.04872  1.0000
  Fe  Fe3       1.0  0.08506  0.35243  0.08674  1.0000
  S   S4        1.0  0.07691  0.36028  0.14464  1.0000
  H   H2        1.0  0.02139  0.31172  0.09688  1.0000
  S   S5        1.0  0.08000  0.32125  0.06913  1.0000
  Fe  Fe4       1.0  0.09714  0.36494  0.45678  1.0000
  Fe  Fe5       1.0  0.09163  0.34822  0.37492  1.0000
  S   S6        1.0  0.07983  0.31754  0.39631  1.0000
  S   S7        1.0  0.09885  0.34821  0.31293  1.0000
  Fe  Fe6       1.0  0.06189  0.32749  0.43573  1.0000
  S   S8        1.0  0.02832  0.31016  0.43328  1.0000
  Fe  Fe7       1.0  0.10440  0.32778  0.43853  1.0000
  S   S9        1.0  0.12459  0.31103  0.44975  1.0000
  S   S10       1.0  0.07291  0.35828  0.41298  1.0000
  S   S11       1.0  0.11677  0.35801  0.41638  1.0000
  C   C1        1.0  0.15010  0.32118  0.44029  1.0000
  C   C2        1.0  0.16205  0.31065  0.44926  1.0000
  C   C3        1.0  0.18244  0.31863  0.44315  1.0000
  C   C4        1.0  0.19103  0.33719  0.42767  1.0000
  C   C5        1.0  0.17903  0.34755  0.41834  1.0000
  C   C6        1.0  0.15878  0.33965  0.42465  1.0000
  C   C7        1.0  0.15159  0.37172  0.30138  1.0000
  C   C8        1.0  0.05751  0.30043  0.21218  1.0000
  H   H3        1.0  0.20824  0.37219  0.47674  1.0000
  C   C9        1.0  0.00915  0.29758  0.46434  1.0000
  H   H4        1.0  0.01984  0.30908  0.17149  1.0000
  S   S12       1.0  0.22169  0.35305  0.00614  1.0000
  C   C10       1.0  0.18388  0.40212  0.38691  1.0000
  C   C11       1.0  0.18924  0.33601  0.17090  1.0000
  C   C12       1.0  0.09277  0.35207  0.26640  1.0000
  C   C13       1.0  0.10131  0.34552  0.23709  1.0000
  C   C14       1.0  0.09667  0.34781  0.19987  1.0000
  C   C15       1.0  0.08362  0.35704  0.19122  1.0000
  C   C16       1.0  0.07542  0.36395  0.22060  1.0000
  C   C17       1.0  0.07978  0.36134  0.25779  1.0000
  H   H5        1.0  0.11149  0.33845  0.24320  1.0000
  H   H6        1.0  0.10326  0.34251  0.17787  1.0000
  H   H7        1.0  0.06570  0.37154  0.21459  1.0000
  H   H8        1.0  0.07330  0.36671  0.27982  1.0000
  C   C18       1.0  0.19734  0.34535  0.02215  1.0000
  C   C19       1.0  0.18933  0.32909  0.04459  1.0000
  C   C20       1.0  0.16923  0.32208  0.05279  1.0000
  C   C21       1.0  0.15701  0.33147  0.03932  1.0000
  C   C22       1.0  0.16516  0.34808  0.01773  1.0000
  C   C23       1.0  0.20292  0.30671  0.35523  1.0000
  H   H9        1.0  0.19844  0.32150  0.05454  1.0000
  H   H10       1.0  0.16306  0.30920  0.06942  1.0000
  H   H11       1.0  0.14141  0.30993  0.33840  1.0000
  C   C24       1.0  0.04395  0.30062  0.18502  1.0000
  H   H12       1.0  0.05854  0.27877  0.00790  1.0000
  H   H13       1.0  0.00747  0.27665  0.27779  1.0000
  C   C25       1.0  0.00636  0.28269  0.01666  1.0000
  H   H14       1.0  0.01642  0.28374  0.03933  1.0000
  H   H15       1.0  0.03956  0.22385  0.40674  1.0000
  C   C26       1.0  0.98658  0.26955  0.01808  1.0000
  H   H16       1.0  0.15405  0.38740  0.45994  1.0000
  C   C27       1.0  0.98060  0.29262  0.21701  1.0000
  H   H17       1.0  0.17852  0.33642  0.15041  1.0000
  C   C28       1.0  0.02649  0.26045  0.28295  1.0000
  H   H18       1.0  0.11372  0.31620  0.30906  1.0000
  C   C29       1.0  0.97801  0.31818  0.09263  1.0000
  C   C30       1.0  0.01841  0.33927  0.34886  1.0000
  H   H19       1.0  0.02645  0.25156  0.41020  1.0000
  C   C31       1.0  0.07342  0.27470  0.44255  1.0000
  C   C32       1.0  0.99817  0.32261  0.09080  1.0000
  H   H20       1.0  0.16338  0.39024  0.25535  1.0000
  H   H21       1.0  0.17013  0.33998  0.33825  1.0000
  H   H22       1.0  0.00787  0.33695  0.08193  1.0000
  C   C33       1.0  0.16760  0.39301  0.44507  1.0000
  C   C34       1.0  0.05807  0.26485  0.41733  1.0000
  H   H23       1.0  0.19134  0.36755  0.99200  1.0000
  C   C35       1.0  0.18579  0.39786  0.46346  1.0000
  H   H24       1.0  0.04164  0.28731  0.37782  1.0000
  H   H25       1.0  0.07976  0.29499  0.32204  1.0000
  H   H26       1.0  0.01379  0.33114  0.37399  1.0000
  C   C36       1.0  0.06019  0.23525  0.36295  1.0000
  C   C37       1.0  0.04762  0.22041  0.38488  1.0000
  H   H27       1.0  0.17539  0.34488  0.21517  1.0000
  Fe  Fe8       1.0  0.09759  0.36771  0.00697  1.0000
  C   C38       1.0  0.03772  0.36930  0.31867  1.0000
  C   C39       1.0  0.12286  0.28423  0.36627  1.0000
  C   C40       1.0  0.99330  0.28972  0.11012  1.0000
  H   H28       1.0  0.99083  0.28907  0.20025  1.0000
  H   H29       1.0  0.10103  0.26005  0.39242  1.0000
  C   C41       1.0  0.01826  0.34035  0.28199  1.0000
  C   C42       1.0  0.06798  0.21045  0.32867  1.0000
  C   C43       1.0  0.18770  0.34109  0.20771  1.0000
  C   C44       1.0  0.17990  0.37215  0.26775  1.0000
  H   H30       1.0  0.08850  0.27978  0.43451  1.0000
  H   H31       1.0  0.21730  0.40983  0.45673  1.0000
  S   S13       1.0  0.21654  0.34852  0.41947  1.0000
  C   C45       1.0  0.17263  0.29216  0.31973  1.0000
  C   C46       1.0  0.10358  0.27200  0.37358  1.0000
  C   C47       1.0  0.20206  0.40745  0.40509  1.0000
  C   C48       1.0  0.18140  0.35723  0.28985  1.0000
  C   C49       1.0  0.01188  0.33001  0.31455  1.0000
  C   C50       1.0  0.01312  0.37236  0.14846  1.0000
  C   C51       1.0  0.16856  0.35053  0.31925  1.0000
  C   C52       1.0  0.01811  0.27365  0.29506  1.0000
  C   C53       1.0  0.98954  0.29017  0.45117  1.0000
  H   H32       1.0  0.04805  0.38441  0.32035  1.0000
  H   H33       1.0  0.07587  0.20660  0.30689  1.0000
  H   H34       1.0  0.02238  0.25324  0.25616  1.0000
  H   H35       1.0  0.98631  0.34929  0.22103  1.0000
  C   C54       1.0  0.00580  0.30836  0.09931  1.0000
  C   C55       1.0  0.04542  0.20079  0.37893  1.0000
  C   C56       1.0  0.15357  0.35759  0.32467  1.0000
  H   H36       1.0  0.18548  0.36191  0.40645  1.0000
  H   H37       1.0  0.16755  0.31018  0.27781  1.0000
  C   C57       1.0  0.18526  0.29093  0.34787  1.0000
  H   H38       1.0  0.03581  0.18944  0.39616  1.0000
  C   C58       1.0  0.20305  0.40557  0.44325  1.0000
  C   C59       1.0  0.17753  0.30930  0.29934  1.0000
  H   H39       1.0  0.04313  0.32209  0.28285  1.0000
  C   C60       1.0  0.03132  0.35890  0.35092  1.0000
  S   S14       1.0  0.08542  0.33467  0.48071  1.0000
  C   C61       1.0  0.99777  0.35320  0.20107  1.0000
  H   H40       1.0  0.03658  0.36594  0.37758  1.0000
  H   H41       1.0  0.14996  0.34800  0.41768  1.0000
  C   C62       1.0  0.12650  0.30012  0.34300  1.0000
  C   C63       1.0  0.09157  0.29151  0.33402  1.0000
  H   H42       1.0  0.19020  0.37815  0.24598  1.0000
  H   H43       1.0  0.98159  0.26071  0.04213  1.0000
  H   H44       1.0  0.18309  0.40335  0.35730  1.0000
  C   C64       1.0  0.99806  0.36660  0.17386  1.0000
  C   C65       1.0  0.20184  0.34103  0.23417  1.0000
  C   C66       1.0  0.05562  0.19581  0.35090  1.0000
  H   H45       1.0  0.07978  0.24121  0.31690  1.0000
  C   C67       1.0  0.06943  0.27882  0.47853  1.0000
  C   C68       1.0  0.02793  0.36483  0.15043  1.0000
  H   H46       1.0  0.98640  0.29256  0.42289  1.0000
  H   H47       1.0  0.98676  0.37271  0.17271  1.0000
  C   C69       1.0  0.03863  0.25893  0.42910  1.0000
  H   H48       1.0  0.15899  0.27990  0.31388  1.0000
  C   C70       1.0  0.08929  0.28391  0.00468  1.0000
  H   H49       1.0  0.03942  0.34610  0.17862  1.0000
  P   P1        1.0  0.06291  0.26062  0.36977  1.0000
  C   C71       1.0  0.01237  0.34523  0.20274  1.0000
  H   H50       1.0  0.21269  0.30590  0.37724  1.0000
  H   H51       1.0  0.01739  0.29354  0.33909  1.0000
  P   P2        1.0  0.01163  0.32772  0.23779  1.0000
  H   H52       1.0  0.00219  0.31469  0.31350  1.0000
  C   C72       1.0  0.07020  0.23008  0.33453  1.0000
  C   C73       1.0  0.03751  0.27955  0.35153  1.0000
  C   C74       1.0  0.04559  0.26588  0.34013  1.0000
  H   H53       1.0  0.06769  0.30835  0.26826  1.0000
  H   H54       1.0  0.04645  0.24623  0.29563  1.0000
  H   H55       1.0  0.13972  0.37690  0.30524  1.0000
  H   H56       1.0  0.05395  0.18061  0.34642  1.0000
  H   H57       1.0  0.15599  0.35551  0.00738  1.0000
  C   C75       1.0  0.16487  0.37916  0.27320  1.0000
  C   C76       1.0  0.05678  0.30787  0.24747  1.0000
  H   H58       1.0  0.19149  0.31049  0.45046  1.0000
  C   C77       1.0  0.16669  0.39514  0.40696  1.0000
  C   C78       1.0  0.04017  0.25653  0.30541  1.0000
  C   C79       1.0  0.02970  0.30831  0.19318  1.0000
  H   H59       1.0  0.06898  0.29510  0.20560  1.0000
  H   H60       1.0  0.03689  0.36817  0.25960  1.0000
  H   H61       1.0  0.15556  0.29635  0.46141  1.0000
  H   H62       1.0  0.03992  0.36956  0.13131  1.0000
  H   H63       1.0  0.01351  0.38289  0.12759  1.0000
  C   C80       1.0  0.20791  0.32381  0.33477  1.0000
  C   C81       1.0  0.98666  0.30997  0.23880  1.0000
  H   H64       1.0  0.22168  0.33579  0.34117  1.0000
  C   C82       1.0  0.02369  0.28323  0.32932  1.0000
  C   C83       1.0  0.19506  0.32537  0.30714  1.0000
  H   H65       1.0  0.09158  0.28415  0.03428  1.0000
  H   H66       1.0  0.13500  0.28191  0.37985  1.0000
  H   H67       1.0  0.14338  0.35203  0.34681  1.0000
  C   C84       1.0  0.02758  0.35137  0.17745  1.0000
  C   C85       1.0  0.11088  0.30364  0.32659  1.0000
  C   C86       1.0  0.08777  0.27582  0.35820  1.0000
  H   H68       1.0  0.15260  0.39118  0.39291  1.0000
  C   C87       1.0  0.04269  0.31576  0.25560  1.0000
  C   C88       1.0  0.03127  0.36007  0.28427  1.0000
  H   H69       1.0  0.99921  0.27855  0.11585  1.0000
  C   C89       1.0  0.02896  0.31606  0.22848  1.0000
  C   C90       1.0  0.03468  0.26304  0.46513  1.0000
  C   C91       1.0  0.18518  0.35486  0.00903  1.0000
  C   C92       1.0  0.07075  0.28096  0.98988  1.0000
  H   H70       1.0  0.11954  0.29067  0.99388  1.0000
  H   H71       1.0  0.18142  0.27780  0.36405  1.0000
  H   H72       1.0  0.21055  0.36855  0.35249  1.0000
  H   H73       1.0  0.21540  0.41284  0.38955  1.0000
  P   P3        1.0  0.20046  0.34773  0.28196  1.0000
  H   H74       1.0  0.01964  0.25898  0.47363  1.0000
  H   H75       1.0  0.97673  0.32762  0.27592  1.0000
  C   C93       1.0  0.20462  0.33045  0.16036  1.0000
  C   C94       1.0  0.21664  0.33442  0.22359  1.0000
  H   H76       1.0  0.20600  0.32681  0.13175  1.0000
  C   C95       1.0  0.21820  0.32946  0.18677  1.0000
  S   S15       1.0  0.09399  0.33737  0.98705  1.0000
  H   H77       1.0  0.16300  0.26810  0.98900  1.0000
  C   C96       1.0  0.22282  0.36667  0.29944  1.0000
  C   C97       1.0  0.22339  0.37398  0.33558  1.0000
  H   H78       1.0  0.19464  0.40369  0.98637  1.0000
  Fe  Fe9       1.0  0.15681  0.44603  0.77849  1.0000
  S   S16       1.0  0.15941  0.43320  0.83484  1.0000
  Fe  Fe10      1.0  0.13898  0.43781  0.69866  1.0000
  S   S17       1.0  0.11490  0.41360  0.66496  1.0000
  S   S18       1.0  0.16130  0.42945  0.72915  1.0000
  S   S19       1.0  0.13268  0.45247  0.74956  1.0000
  H   H79       1.0  0.08760  0.37285  0.55283  1.0000
  H   H80       1.0  0.08889  0.38135  0.61971  1.0000
  C   C98       1.0  0.14259  0.42180  0.87015  1.0000
  C   C99       1.0  0.14891  0.41286  0.89892  1.0000
  C   C100      1.0  0.13641  0.40364  0.92782  1.0000
  C   C101      1.0  0.11714  0.40290  0.92803  1.0000
  C   C102      1.0  0.11087  0.41208  0.89940  1.0000
  C   C103      1.0  0.12346  0.42145  0.87064  1.0000
  H   H81       1.0  0.16368  0.41325  0.89887  1.0000
  H   H82       1.0  0.14182  0.39752  0.95037  1.0000
  H   H83       1.0  0.09615  0.41202  0.89955  1.0000
  H   H84       1.0  0.11844  0.42851  0.84907  1.0000
  C   C104      1.0  0.11526  0.40735  0.61723  1.0000
  C   C105      1.0  0.12972  0.41904  0.59390  1.0000
  C   C106      1.0  0.12878  0.41437  0.55582  1.0000
  C   C107      1.0  0.11358  0.39772  0.54050  1.0000
  C   C108      1.0  0.09943  0.38566  0.56405  1.0000
  C   C109      1.0  0.10020  0.39054  0.60205  1.0000
  H   H85       1.0  0.14133  0.43203  0.60504  1.0000
  H   H86       1.0  0.13987  0.42380  0.53805  1.0000
  C   C110      1.0  0.13175  0.35598  0.53676  1.0000
  C   C111      1.0  0.14815  0.37297  0.53064  1.0000
  H   H87       1.0  0.21973  0.36686  0.79662  1.0000
  C   C112      1.0  0.04878  0.35968  0.69263  1.0000
  C   C113      1.0  0.03053  0.34528  0.70017  1.0000
  C   C114      1.0  0.02675  0.33772  0.73554  1.0000
  C   C115      1.0  0.04134  0.34432  0.76321  1.0000
  C   C116      1.0  0.05993  0.35832  0.75552  1.0000
  C   C117      1.0  0.06334  0.36639  0.72029  1.0000
  P   P4        1.0  0.07838  0.36811  0.79157  1.0000
  C   C118      1.0  0.07467  0.35194  0.83014  1.0000
  C   C119      1.0  0.10246  0.37149  0.77541  1.0000
  C   C120      1.0  0.11908  0.38363  0.79567  1.0000
  C   C121      1.0  0.13784  0.38616  0.78391  1.0000
  C   C122      1.0  0.14015  0.37669  0.75170  1.0000
  C   C123      1.0  0.12366  0.36427  0.73170  1.0000
  C   C124      1.0  0.10486  0.36144  0.74375  1.0000
  C   C125      1.0  0.07844  0.35968  0.86633  1.0000
  C   C126      1.0  0.07530  0.34716  0.89612  1.0000
  C   C127      1.0  0.06906  0.32686  0.89011  1.0000
  C   C128      1.0  0.06616  0.31907  0.85414  1.0000
  C   C129      1.0  0.06900  0.33157  0.82420  1.0000
  C   C130      1.0  0.07667  0.39115  0.80526  1.0000
  C   C131      1.0  0.06242  0.39140  0.83031  1.0000
  C   C132      1.0  0.06074  0.40915  0.84051  1.0000
  C   C133      1.0  0.07284  0.42669  0.82490  1.0000
  C   C134      1.0  0.08651  0.42645  0.79889  1.0000
  C   C135      1.0  0.08846  0.40876  0.78901  1.0000
  H   H88       1.0  0.05163  0.36586  0.66540  1.0000
  H   H89       1.0  0.01243  0.32695  0.74160  1.0000
  H   H90       1.0  0.03797  0.33869  0.79060  1.0000
  H   H91       1.0  0.07723  0.37798  0.71415  1.0000
  H   H92       1.0  0.11753  0.39124  0.82043  1.0000
  H   H93       1.0  0.15062  0.39584  0.79937  1.0000
  H   H94       1.0  0.12545  0.35707  0.70651  1.0000
  H   H95       1.0  0.09234  0.35158  0.72803  1.0000
  H   H96       1.0  0.08386  0.37537  0.87187  1.0000
  H   H97       1.0  0.07782  0.35327  0.92399  1.0000
  H   H98       1.0  0.06658  0.31729  0.91351  1.0000
  H   H99       1.0  0.06160  0.30335  0.84954  1.0000
  H   H100      1.0  0.06677  0.32537  0.79647  1.0000
  H   H101      1.0  0.05265  0.37790  0.84216  1.0000
  H   H102      1.0  0.05004  0.40933  0.86052  1.0000
  H   H103      1.0  0.09563  0.44004  0.78644  1.0000
  H   H104      1.0  0.09907  0.40889  0.76856  1.0000
  C   C136      1.0  0.22089  0.40027  0.55569  1.0000
  C   C137      1.0  0.13331  0.33760  0.53528  1.0000
  H   H105      1.0  0.12045  0.32435  0.53866  1.0000
  H   H106      1.0  0.09024  0.23257  0.84463  1.0000
  H   H107      1.0  0.13219  0.36423  0.93907  1.0000
  C   C138      1.0  0.10199  0.24694  0.84476  1.0000
  C   C139      1.0  0.10265  0.28817  0.94329  1.0000
  C   C140      1.0  0.11493  0.25218  0.81555  1.0000
  C   C141      1.0  0.98227  0.30090  0.81731  1.0000
  H   H108      1.0  0.01922  0.34022  0.67871  1.0000
  H   H109      1.0  0.07155  0.44046  0.83277  1.0000
  C   C142      1.0  0.12950  0.35307  0.91762  1.0000
  C   C143      1.0  0.12971  0.33472  0.92657  1.0000
  C   C144      1.0  0.11951  0.27875  0.87470  1.0000
  C   C145      1.0  0.10434  0.26010  0.87442  1.0000
  S   S20       1.0  0.16101  0.46604  0.67817  1.0000
  H   H110      1.0  0.02845  0.33653  0.87124  1.0000
  C   C146      1.0  0.01581  0.32673  0.85551  1.0000
  H   H111      1.0  0.08183  0.28647  0.89935  1.0000
  H   H112      1.0  0.99828  0.28492  0.68364  1.0000
  P   P5        1.0  0.12341  0.29559  0.91339  1.0000
  C   C147      1.0  0.14580  0.28009  0.95576  1.0000
  H   H113      1.0  0.21625  0.40941  0.57384  1.0000
  H   H114      1.0  0.09445  0.25553  0.89718  1.0000
  C   C148      1.0  0.12509  0.35669  0.88160  1.0000
  C   C149      1.0  0.12531  0.31972  0.89959  1.0000
  C   C150      1.0  0.13275  0.28371  0.84572  1.0000
  H   H115      1.0  0.11315  0.24192  0.79269  1.0000
  C   C151      1.0  0.13036  0.27053  0.81610  1.0000
  H   H116      1.0  0.16366  0.32547  0.91783  1.0000
  C   C152      1.0  0.12264  0.46058  0.58232  1.0000
  H   H117      1.0  0.14497  0.29775  0.84615  1.0000
  H   H118      1.0  0.14057  0.27446  0.79371  1.0000
  C   C153      1.0  0.12061  0.32331  0.86348  1.0000
  H   H119      1.0  0.11637  0.31180  0.84245  1.0000
  C   C154      1.0  0.12075  0.34185  0.85449  1.0000
  H   H120      1.0  0.10021  0.44332  0.61881  1.0000
  H   H121      1.0  0.12464  0.37087  0.87495  1.0000
  C   C155      1.0  0.98178  0.28449  0.73249  1.0000
  H   H122      1.0  0.11887  0.44904  0.56125  1.0000
  H   H123      1.0  0.11701  0.34459  0.82672  1.0000
  C   C156      1.0  0.16321  0.31285  0.93327  1.0000
  C   C157      1.0  0.11199  0.45739  0.61466  1.0000
  H   H124      1.0  0.15471  0.37917  0.74202  1.0000
  C   C158      1.0  0.21997  0.41265  0.95212  1.0000
  H   H125      1.0  0.14716  0.47999  0.55331  1.0000
  C   C159      1.0  0.20236  0.41326  0.96459  1.0000
  H   H126      1.0  0.18090  0.42648  0.95828  1.0000
  C   C160      1.0  0.14566  0.29644  0.93636  1.0000
  C   C161      1.0  0.13853  0.47827  0.57774  1.0000
  C   C162      1.0  0.98395  0.28237  0.69460  1.0000
  H   H127      1.0  0.00034  0.28088  0.55206  1.0000
  C   C163      1.0  0.20415  0.36739  0.90432  1.0000
  C   C164      1.0  0.15133  0.33624  0.52789  1.0000
  H   H128      1.0  0.15235  0.32191  0.52548  1.0000
  H   H129      1.0  0.16658  0.38266  0.88777  1.0000
  C   C165      1.0  0.18045  0.31312  0.95040  1.0000
  H   H130      1.0  0.13267  0.33202  0.95493  1.0000
  H   H131      1.0  0.20249  0.44188  0.82356  1.0000
  H   H132      1.0  0.14649  0.38701  0.53078  1.0000
  C   C166      1.0  0.16633  0.37178  0.52314  1.0000
  C   C167      1.0  0.21085  0.38874  0.85197  1.0000
  H   H133      1.0  0.20699  0.33559  0.85721  1.0000
  C   C168      1.0  0.99721  0.28350  0.52391  1.0000
  C   C169      1.0  0.16774  0.35321  0.52145  1.0000
  H   H134      1.0  0.18858  0.40024  0.83835  1.0000
  H   H135      1.0  0.19673  0.42515  0.76262  1.0000
  H   H136      1.0  0.20861  0.35886  0.92405  1.0000
  C   C170      1.0  0.21031  0.42774  0.77770  1.0000
  S   S21       1.0  0.20956  0.45510  0.68440  1.0000
  C   C171      1.0  0.21844  0.33294  0.87257  1.0000
  H   H137      1.0  0.11772  0.35709  0.54163  1.0000
  C   C172      1.0  0.18061  0.41159  0.57666  1.0000
  S   S22       1.0  0.18044  0.47483  0.76270  1.0000
  C   C173      1.0  0.99989  0.29188  0.95584  1.0000
  H   H138      1.0  0.17672  0.36226  0.93080  1.0000
  H   H139      1.0  0.08144  0.28693  0.49734  1.0000
  C   C174      1.0  0.01307  0.30696  0.85043  1.0000
  H   H140      1.0  0.20151  0.30190  0.87704  1.0000
  C   C175      1.0  0.21639  0.37655  0.87526  1.0000
  H   H141      1.0  0.02773  0.29999  0.51186  1.0000
  H   H142      1.0  0.19390  0.32595  0.94884  1.0000
  H   H143      1.0  0.99461  0.27881  0.82774  1.0000
  C   C176      1.0  0.16306  0.28051  0.97316  1.0000
  C   C177      1.0  0.00213  0.33378  0.84065  1.0000
  C   C178      1.0  0.08398  0.28529  0.92862  1.0000
  C   C179      1.0  0.18615  0.36943  0.90849  1.0000
  C   C180      1.0  0.18790  0.43211  0.52301  1.0000
  H   H144      1.0  0.17623  0.42532  0.62694  1.0000
  H   H145      1.0  0.02350  0.30143  0.86247  1.0000
  S   S23       1.0  0.10057  0.39139  0.96372  1.0000
  H   H146      1.0  0.99454  0.28858  0.75063  1.0000
  H   H147      1.0  0.05375  0.27980  0.94070  1.0000
  C   C181      1.0  0.19466  0.42613  0.94878  1.0000
  C   C182      1.0  0.06807  0.28156  0.95185  1.0000
  H   H148      1.0  0.18124  0.45705  0.59838  1.0000
  H   H149      1.0  0.17815  0.39768  0.58957  1.0000
  C   C183      1.0  0.20455  0.43844  0.92052  1.0000
  C   C184      1.0  0.10520  0.28755  0.98153  1.0000
  C   C185      1.0  0.21374  0.43742  0.81207  1.0000
  C   C186      1.0  0.18047  0.38102  0.88437  1.0000
  C   C187      1.0  0.18654  0.44762  0.54429  1.0000
  H   H150      1.0  0.00424  0.34912  0.84463  1.0000
  C   C188      1.0  0.18500  0.41399  0.53912  1.0000
  C   C189      1.0  0.17950  0.42718  0.59790  1.0000
  H   H151      1.0  0.18859  0.46151  0.53169  1.0000
  C   C190      1.0  0.98542  0.32093  0.82160  1.0000
  C   C191      1.0  0.19288  0.39085  0.85638  1.0000
  H   H152      1.0  0.19798  0.44784  0.90789  1.0000
  H   H153      1.0  0.18125  0.35159  0.51432  1.0000
  C   C192      1.0  0.99653  0.29414  0.83101  1.0000
  P   P6        1.0  0.18692  0.39383  0.51234  1.0000
  Fe  Fe11      1.0  0.18320  0.45833  0.71149  1.0000
  C   C193      1.0  0.98003  0.27903  0.95758  1.0000
  C   C194      1.0  0.20965  0.39091  0.52423  1.0000
  C   C195      1.0  0.18241  0.44517  0.58173  1.0000
  H   H154      1.0  0.04697  0.27664  0.51743  1.0000
  C   C196      1.0  0.18035  0.29706  0.97060  1.0000
  H   H155      1.0  0.00495  0.30037  0.93143  1.0000
  C   C197      1.0  0.97757  0.27611  0.51076  1.0000
  H   H156      1.0  0.13252  0.26714  0.95790  1.0000
  C   C198      1.0  0.11692  0.47211  0.64211  1.0000
  C   C199      1.0  0.01283  0.29433  0.50110  1.0000
  H   H157      1.0  0.22040  0.39670  0.83058  1.0000
  C   C200      1.0  0.21650  0.37942  0.50128  1.0000
  C   C201      1.0  0.22269  0.43851  0.90892  1.0000
  C   C202      1.0  0.21530  0.31383  0.88363  1.0000
  S   S24       1.0  0.03854  0.30894  0.97988  1.0000
  H   H158      1.0  0.19111  0.43425  0.49407  1.0000
  S   S25       1.0  0.11264  0.39324  0.49177  1.0000
  H   H159      1.0  0.19367  0.29763  0.98467  1.0000
  H   H160      1.0  0.22222  0.41518  0.73495  1.0000
  Fe  Fe12      1.0  0.15646  0.48063  0.73097  1.0000
  H   H161      1.0  0.10898  0.46950  0.66758  1.0000
  H   H162      1.0  0.97484  0.32665  0.81112  1.0000
  C   C203      1.0  0.05008  0.27305  0.48980  1.0000
  C   C204      1.0  0.01325  0.29381  0.98529  1.0000
  H   H163      1.0  0.18404  0.53479  0.45140  1.0000
  Fe  Fe13      1.0  0.07696  0.70037  0.04994  1.0000
  S   S26       1.0  0.08901  0.67725  0.06396  1.0000
  S   S27       1.0  0.04408  0.69543  0.04429  1.0000
  Fe  Fe14      1.0  0.11851  0.73375  0.05725  1.0000
  S   S28       1.0  0.13262  0.71247  0.07200  1.0000
  S   S29       1.0  0.13467  0.76734  0.05647  1.0000
  Fe  Fe15      1.0  0.11368  0.69331  0.02589  1.0000
  Fe  Fe16      1.0  0.10687  0.69846  0.10868  1.0000
  S   S30       1.0  0.11029  0.68652  0.16536  1.0000
  S   S31       1.0  0.09373  0.72085  0.09676  1.0000
  S   S32       1.0  0.20575  0.83033  0.39859  1.0000
  Fe  Fe17      1.0  0.11727  0.73549  0.45945  1.0000
  S   S33       1.0  0.12674  0.71497  0.42543  1.0000
  C   C205      1.0  0.20932  0.85194  0.30100  1.0000
  Fe  Fe18      1.0  0.07302  0.70726  0.45349  1.0000
  S   S34       1.0  0.08025  0.68526  0.41903  1.0000
  H   H164      1.0  0.98685  0.59256  0.99124  1.0000
  Fe  Fe19      1.0  0.10561  0.69134  0.45975  1.0000
  Fe  Fe20      1.0  0.10064  0.71114  0.38818  1.0000
  S   S35       1.0  0.09987  0.71738  0.32656  1.0000
  C   C206      1.0  0.18468  0.72613  0.40928  1.0000
  S   S36       1.0  0.09225  0.73310  0.42086  1.0000
  H   H165      1.0  0.19980  0.73127  0.28303  1.0000
  H   H166      1.0  0.05373  0.64093  0.38845  1.0000
  P   P7        1.0  0.20546  0.83196  0.17885  1.0000
  C   C207      1.0  0.18828  0.81147  0.42418  1.0000
  C   C208      1.0  0.17251  0.79701  0.40504  1.0000
  C   C209      1.0  0.15820  0.78180  0.42384  1.0000
  H   H167      1.0  0.21650  0.84438  0.10268  1.0000
  C   C210      1.0  0.02921  0.64680  0.40916  1.0000
  H   H168      1.0  0.03450  0.65587  0.01038  1.0000
  H   H169      1.0  0.17114  0.79771  0.37549  1.0000
  H   H170      1.0  0.14608  0.77091  0.40887  1.0000
  H   H171      1.0  0.01391  0.68328  0.38844  1.0000
  H   H172      1.0  0.19046  0.83065  0.04858  1.0000
  C   C211      1.0  0.10777  0.69567  0.20998  1.0000
  C   C212      1.0  0.11159  0.68646  0.24126  1.0000
  C   C213      1.0  0.10976  0.69316  0.27714  1.0000
  C   C214      1.0  0.10367  0.70892  0.28220  1.0000
  C   C215      1.0  0.10015  0.71831  0.25094  1.0000
  C   C216      1.0  0.10229  0.71183  0.21507  1.0000
  H   H173      1.0  0.11610  0.67412  0.23770  1.0000
  H   H174      1.0  0.11299  0.68609  0.30082  1.0000
  H   H175      1.0  0.09563  0.73066  0.25448  1.0000
  H   H176      1.0  0.09945  0.71920  0.19139  1.0000
  H   H177      1.0  0.01190  0.66082  0.33571  1.0000
  H   H178      1.0  0.09043  0.63099  0.30979  1.0000
  H   H179      1.0  0.14574  0.71868  0.19095  1.0000
  C   C217      1.0  0.19991  0.80659  0.03935  1.0000
  C   C218      1.0  0.19368  0.78593  0.03721  1.0000
  C   C219      1.0  0.17396  0.77369  0.04312  1.0000
  C   C220      1.0  0.16003  0.78195  0.05051  1.0000
  C   C221      1.0  0.16627  0.80262  0.05260  1.0000
  C   C222      1.0  0.18606  0.81485  0.04730  1.0000
  H   H180      1.0  0.20419  0.77931  0.03090  1.0000
  H   H181      1.0  0.16948  0.75786  0.04131  1.0000
  H   H182      1.0  0.15568  0.80923  0.05817  1.0000
  C   C223      1.0  0.99035  0.62428  0.11996  1.0000
  C   C224      1.0  0.18792  0.72861  0.26310  1.0000
  C   C225      1.0  0.21012  0.85403  0.11508  1.0000
  C   C226      1.0  0.97648  0.61359  0.25248  1.0000
  C   C227      1.0  0.19535  0.86443  0.16629  1.0000
  C   C228      1.0  0.15944  0.76561  0.30390  1.0000
  H   H183      1.0  0.16752  0.78175  0.25377  1.0000
  H   H184      1.0  0.01615  0.63028  0.31072  1.0000
  H   H185      1.0  0.14920  0.51986  0.46896  1.0000
  C   C229      1.0  0.20383  0.85171  0.15159  1.0000
  C   C230      1.0  0.18399  0.80990  0.17014  1.0000
  C   C231      1.0  0.16731  0.81067  0.15202  1.0000
  C   C232      1.0  0.15137  0.79330  0.14320  1.0000
  C   C233      1.0  0.15199  0.77510  0.15219  1.0000
  C   C234      1.0  0.16845  0.77423  0.17052  1.0000
  C   C235      1.0  0.18435  0.79156  0.17969  1.0000
  H   H186      1.0  0.18575  0.71867  0.43426  1.0000
  H   H187      1.0  0.03809  0.66132  0.42014  1.0000
  H   H188      1.0  0.99216  0.61249  0.04831  1.0000
  C   C236      1.0  0.98618  0.64914  0.99467  1.0000
  C   C237      1.0  0.97462  0.59091  0.00878  1.0000
  C   C238      1.0  0.20716  0.83942  0.22695  1.0000
  C   C239      1.0  0.03017  0.63772  0.14098  1.0000
  C   C240      1.0  0.20648  0.79519  0.31829  1.0000
  C   C241      1.0  0.20811  0.86890  0.09378  1.0000
  C   C242      1.0  0.19434  0.83453  0.28888  1.0000
  C   C243      1.0  0.19324  0.82830  0.25201  1.0000
  C   C244      1.0  0.12996  0.76631  0.33183  1.0000
  H   H189      1.0  0.03324  0.60747  0.36449  1.0000
  H   H190      1.0  0.16673  0.82454  0.14366  1.0000
  H   H191      1.0  0.13881  0.79383  0.12792  1.0000
  H   H192      1.0  0.13989  0.76166  0.14393  1.0000
  H   H193      1.0  0.16908  0.76008  0.17659  1.0000
  C   C245      1.0  0.15919  0.78105  0.46217  1.0000
  C   C246      1.0  0.02387  0.64755  0.11404  1.0000
  H   H194      1.0  0.19763  0.79506  0.34187  1.0000
  C   C247      1.0  0.14293  0.59110  0.99816  1.0000
  C   C248      1.0  0.02135  0.65914  0.01025  1.0000
  C   C249      1.0  0.98690  0.66714  0.00953  1.0000
  C   C250      1.0  0.00894  0.63955  0.41347  1.0000
  C   C251      1.0  0.02639  0.61648  0.37786  1.0000
  H   H195      1.0  0.99950  0.64850  0.08217  1.0000
  H   H196      1.0  0.18376  0.82577  0.30836  1.0000
  H   H197      1.0  0.18140  0.81498  0.24314  1.0000
  C   C252      1.0  0.12801  0.77847  0.30411  1.0000
  H   H198      1.0  0.21298  0.87053  0.06558  1.0000
  C   C253      1.0  0.98883  0.61416  0.28244  1.0000
  H   H199      1.0  0.21016  0.75205  0.42266  1.0000
  C   C254      1.0  0.17002  0.71118  0.20858  1.0000
  H   H200      1.0  0.13999  0.79331  0.25428  1.0000
  C   C255      1.0  0.19698  0.75457  0.37057  1.0000
  C   C256      1.0  0.17541  0.73904  0.26582  1.0000
  H   H201      1.0  0.98657  0.60167  0.16004  1.0000
  H   H202      1.0  0.00493  0.69481  0.03589  1.0000
  C   C257      1.0  0.98191  0.62899  0.22774  1.0000
  C   C258      1.0  0.15749  0.72145  0.21120  1.0000
  C   C259      1.0  0.20138  0.77875  0.29430  1.0000
  C   C260      1.0  0.00603  0.60923  0.38188  1.0000
  H   H203      1.0  0.02154  0.61364  0.17840  1.0000
  C   C261      1.0  0.01662  0.62129  0.15764  1.0000
  H   H204      1.0  0.14648  0.75017  0.35322  1.0000
  C   C262      1.0  0.19839  0.74493  0.40276  1.0000
  H   H205      1.0  0.14953  0.74227  0.24187  1.0000
  C   C263      1.0  0.02206  0.67715  0.02504  1.0000
  H   H206      1.0  0.15880  0.70240  0.38883  1.0000
  C   C264      1.0  0.16952  0.71694  0.38363  1.0000
  C   C265      1.0  0.14554  0.75980  0.33169  1.0000
  C   C266      1.0  0.15730  0.77771  0.27601  1.0000
  H   H207      1.0  0.11577  0.78326  0.30417  1.0000
  C   C267      1.0  0.14167  0.78414  0.27611  1.0000
  C   C268      1.0  0.18167  0.74551  0.34474  1.0000
  H   H208      1.0  0.19852  0.89322  0.09217  1.0000
  C   C269      1.0  0.00406  0.64088  0.10358  1.0000
  H   H209      1.0  0.00372  0.65640  0.21266  1.0000
  C   C270      1.0  0.98016  0.60105  0.47631  1.0000
  H   H210      1.0  0.11915  0.76156  0.35317  1.0000
  P   P8        1.0  0.17957  0.75727  0.30235  1.0000
  H   H211      1.0  0.03435  0.66026  0.10086  1.0000
  H   H212      1.0  0.19483  0.70663  0.23271  1.0000
  C   C271      1.0  0.15991  0.73507  0.24001  1.0000
  C   C272      1.0  0.18937  0.81066  0.46261  1.0000
  H   H213      1.0  0.19717  0.79064  0.19326  1.0000
  H   H214      1.0  0.15595  0.71933  0.33216  1.0000
  C   C273      1.0  0.16797  0.72658  0.35155  1.0000
  C   C274      1.0  0.06716  0.62999  0.27205  1.0000
  C   C275      1.0  0.07995  0.63752  0.30225  1.0000
  C   C276      1.0  0.07947  0.65371  0.32237  1.0000
  C   C277      1.0  0.06636  0.66254  0.31213  1.0000
  C   C278      1.0  0.05336  0.65500  0.28194  1.0000
  C   C279      1.0  0.05384  0.63863  0.26201  1.0000
  P   P9        1.0  0.03580  0.66573  0.26903  1.0000
  C   C280      1.0  0.03516  0.68237  0.30579  1.0000
  C   C281      1.0  0.04233  0.67927  0.22691  1.0000
  C   C282      1.0  0.03298  0.69209  0.21701  1.0000
  C   C283      1.0  0.03671  0.70151  0.18320  1.0000
  C   C284      1.0  0.04991  0.69835  0.15917  1.0000
  C   C285      1.0  0.05965  0.68605  0.16925  1.0000
  C   C286      1.0  0.05600  0.67662  0.20305  1.0000
  C   C287      1.0  0.04905  0.70174  0.30691  1.0000
  C   C288      1.0  0.05012  0.71428  0.33693  1.0000
  C   C289      1.0  0.03731  0.70764  0.36603  1.0000
  C   C290      1.0  0.02341  0.68842  0.36519  1.0000
  C   C291      1.0  0.02234  0.67578  0.33522  1.0000
  C   C292      1.0  0.01224  0.64569  0.26289  1.0000
  C   C293      1.0  0.00664  0.63011  0.28760  1.0000
  H   H215      1.0  0.20912  0.76750  0.24374  1.0000
  H   H216      1.0  0.00260  0.64853  0.42840  1.0000
  S   S37       1.0  0.12821  0.67737  0.98870  1.0000
  C   C294      1.0  0.99974  0.64494  0.23274  1.0000
  H   H217      1.0  0.06771  0.61758  0.25619  1.0000
  H   H218      1.0  0.99450  0.61245  0.47358  1.0000
  H   H219      1.0  0.08961  0.65981  0.34542  1.0000
  H   H220      1.0  0.06671  0.67538  0.32773  1.0000
  H   H221      1.0  0.04405  0.63268  0.23850  1.0000
  H   H222      1.0  0.02259  0.69458  0.23521  1.0000
  H   H223      1.0  0.02937  0.71127  0.17549  1.0000
  H   H224      1.0  0.05269  0.70551  0.13279  1.0000
  H   H225      1.0  0.07021  0.68396  0.15091  1.0000
  H   H226      1.0  0.06402  0.66745  0.21029  1.0000
  H   H227      1.0  0.05968  0.70695  0.28540  1.0000
  H   H228      1.0  0.06140  0.72894  0.33821  1.0000
  H   H229      1.0  0.03849  0.71727  0.38968  1.0000
  H   H230      1.0  0.20794  0.76897  0.36617  1.0000
  C   C295      1.0  0.00466  0.68095  0.02466  1.0000
  C   C296      1.0  0.21288  0.77969  0.26332  1.0000
  H   H231      1.0  0.13906  0.59106  0.02682  1.0000
  H   H232      1.0  0.21779  0.79546  0.46138  1.0000
  H   H233      1.0  0.04560  0.64278  0.14863  1.0000
  C   C297      1.0  0.18520  0.71470  0.23462  1.0000
  S   S38       1.0  0.04128  0.70427  0.46434  1.0000
  H   H234      1.0  0.18706  0.88921  0.15652  1.0000
  C   C298      1.0  0.19993  0.88165  0.10875  1.0000
  H   H235      1.0  0.21038  0.85656  0.32976  1.0000
  C   C299      1.0  0.03796  0.63531  0.39133  1.0000
  H   H236      1.0  0.99737  0.59453  0.37177  1.0000
  C   C300      1.0  0.99677  0.61453  0.14712  1.0000
  H   H237      1.0  0.16778  0.70039  0.18647  1.0000
  H   H238      1.0  0.98464  0.60215  0.30151  1.0000
  C   C301      1.0  0.99711  0.62086  0.39922  1.0000
  S   S39       1.0  0.10067  0.71534  0.00915  1.0000
  H   H239      1.0  0.13112  0.55951  0.99206  1.0000
  C   C302      1.0  0.97754  0.60228  0.04123  1.0000
  H   H240      1.0  0.06959  0.64623  0.47997  1.0000
  C   C303      1.0  0.19352  0.87940  0.14498  1.0000
  H   H241      1.0  0.00160  0.70064  0.47802  1.0000
  C   C304      1.0  0.18036  0.53102  0.47978  1.0000
  H   H242      1.0  0.15576  0.62273  0.99590  1.0000
  C   C305      1.0  0.00359  0.64534  0.99511  1.0000
  C   C306      1.0  0.02095  0.68481  0.48288  1.0000
  H   H243      1.0  0.97951  0.64754  0.36578  1.0000
  H   H244      1.0  0.21128  0.80966  0.11601  1.0000
  C   C307      1.0  0.22317  0.81195  0.31228  1.0000
  H   H245      1.0  0.19000  0.86274  0.19411  1.0000
  C   C308      1.0  0.22296  0.86333  0.27609  1.0000
  H   H246      1.0  0.19579  0.76893  0.48441  1.0000
  C   C309      1.0  0.22177  0.85723  0.23914  1.0000
  H   H247      1.0  0.04704  0.61152  0.46974  1.0000
  H   H248      1.0  0.20127  0.82177  0.47782  1.0000
  C   C310      1.0  0.17482  0.79558  0.48145  1.0000
  H   H249      1.0  0.06163  0.61979  0.00869  1.0000
  H   H250      1.0  0.16686  0.73837  0.48336  1.0000
  H   H251      1.0  0.08630  0.65241  0.99357  1.0000
  C   C311      1.0  0.05841  0.62831  0.98727  1.0000
  H   H252      1.0  0.04352  0.72746  0.55340  1.0000
  C   C312      1.0  0.00834  0.64132  0.86689  1.0000
  C   C313      1.0  0.19395  0.50065  0.60973  1.0000
  S   S40       1.0  0.14817  0.50827  0.73361  1.0000
  Fe  Fe21      1.0  0.15124  0.65854  0.77613  1.0000
  S   S41       1.0  0.17746  0.65089  0.78875  1.0000
  S   S42       1.0  0.13020  0.66591  0.81405  1.0000
  Fe  Fe22      1.0  0.16080  0.66383  0.69322  1.0000
  S   S43       1.0  0.18801  0.65678  0.70042  1.0000
  S   S44       1.0  0.15287  0.68068  0.64722  1.0000
  Fe  Fe23      1.0  0.16935  0.63190  0.73650  1.0000
  S   S45       1.0  0.17559  0.60301  0.73539  1.0000
  Fe  Fe24      1.0  0.19428  0.67569  0.75190  1.0000
  C   C314      1.0  0.15238  0.60893  0.98077  1.0000
  S   S46       1.0  0.14164  0.63808  0.72596  1.0000
  S   S47       1.0  0.16857  0.68425  0.74267  1.0000
  C   C315      1.0  0.18635  0.76225  0.64391  1.0000
  H   H253      1.0  0.06803  0.66422  0.53640  1.0000
  H   H254      1.0  0.09180  0.68862  0.69824  1.0000
  H   H255      1.0  0.07341  0.63626  0.60076  1.0000
  H   H256      1.0  0.11348  0.67041  0.68541  1.0000
  H   H257      1.0  0.06097  0.68105  0.66200  1.0000
  H   H258      1.0  0.10408  0.64425  0.63702  1.0000
  H   H259      1.0  0.00117  0.63491  0.57951  1.0000
  H   H260      1.0  0.01156  0.66975  0.59195  1.0000
  H   H261      1.0  0.01691  0.68012  0.92682  1.0000
  C   C316      1.0  0.97824  0.64555  0.88213  1.0000
  H   H262      1.0  0.02179  0.61222  0.57494  1.0000
  C   C317      1.0  0.18971  0.61620  0.83479  1.0000
  C   C318      1.0  0.19523  0.53489  0.50663  1.0000
  H   H263      1.0  0.17281  0.72292  0.94512  1.0000
  C   C319      1.0  0.13121  0.67041  0.86253  1.0000
  C   C320      1.0  0.14191  0.66327  0.88654  1.0000
  C   C321      1.0  0.14097  0.66577  0.92496  1.0000
  C   C322      1.0  0.12963  0.67571  0.93993  1.0000
  C   C323      1.0  0.11950  0.68348  0.91588  1.0000
  C   C324      1.0  0.12009  0.68060  0.87747  1.0000
  H   H264      1.0  0.15058  0.65547  0.87554  1.0000
  H   H265      1.0  0.14897  0.65981  0.94326  1.0000
  H   H266      1.0  0.11106  0.69153  0.92684  1.0000
  H   H267      1.0  0.11181  0.68626  0.85920  1.0000
  C   C325      1.0  0.14128  0.67595  0.60294  1.0000
  C   C326      1.0  0.13752  0.69128  0.58589  1.0000
  C   C327      1.0  0.12866  0.68862  0.55056  1.0000
  C   C328      1.0  0.12349  0.67055  0.53164  1.0000
  C   C329      1.0  0.12714  0.65514  0.54874  1.0000
  C   C330      1.0  0.13599  0.65779  0.58425  1.0000
  H   H268      1.0  0.14149  0.70534  0.60016  1.0000
  H   H269      1.0  0.12607  0.70066  0.53782  1.0000
  H   H270      1.0  0.12323  0.64112  0.53435  1.0000
  H   H271      1.0  0.13886  0.64589  0.59698  1.0000
  C   C331      1.0  0.15627  0.53469  0.73490  1.0000
  C   C332      1.0  0.14218  0.54343  0.73308  1.0000
  C   C333      1.0  0.14771  0.56414  0.73367  1.0000
  C   C334      1.0  0.16754  0.57660  0.73602  1.0000
  C   C335      1.0  0.18162  0.56786  0.73828  1.0000
  C   C336      1.0  0.17608  0.54715  0.73785  1.0000
  H   H272      1.0  0.12682  0.53409  0.73090  1.0000
  H   H273      1.0  0.13662  0.57042  0.73162  1.0000
  H   H274      1.0  0.19699  0.57722  0.74023  1.0000
  H   H275      1.0  0.18717  0.54085  0.73982  1.0000
  H   H276      1.0  0.21353  0.63478  0.80255  1.0000
  C   C337      1.0  0.16763  0.78156  0.62337  1.0000
  H   H277      1.0  0.19914  0.78443  0.56041  1.0000
  H   H278      1.0  0.17556  0.79523  0.51112  1.0000
  P   P10       1.0  0.16455  0.51570  0.60062  1.0000
  H   H279      1.0  0.07443  0.69010  0.58046  1.0000
  C   C338      1.0  0.17216  0.56284  0.85014  1.0000
  H   H280      1.0  0.17265  0.69042  0.84677  1.0000
  H   H281      1.0  0.03619  0.64216  0.67910  1.0000
  H   H282      1.0  0.13425  0.75084  0.98097  1.0000
  H   H283      1.0  0.21596  0.84680  0.57528  1.0000
  H   H284      1.0  0.21563  0.73955  0.73603  1.0000
  H   H285      1.0  0.02332  0.59460  0.51764  1.0000
  S   S48       1.0  0.22194  0.70021  0.77420  1.0000
  C   C339      1.0  0.19362  0.77245  0.84795  1.0000
  H   H286      1.0  0.07453  0.72181  0.55904  1.0000
  H   H287      1.0  0.06972  0.69964  0.85413  1.0000
  C   C340      1.0  0.17371  0.57049  0.64344  1.0000
  C   C341      1.0  0.17708  0.74818  0.61597  1.0000
  H   H288      1.0  0.11993  0.52416  0.82944  1.0000
  C   C342      1.0  0.02231  0.66723  0.49407  1.0000
  C   C343      1.0  0.07674  0.72422  0.89169  1.0000
  C   C344      1.0  0.01918  0.65768  0.88946  1.0000
  C   C345      1.0  0.20141  0.72122  0.65638  1.0000
  C   C346      1.0  0.19049  0.53009  0.54328  1.0000
  H   H289      1.0  0.15648  0.74020  0.56991  1.0000
  H   H290      1.0  0.17891  0.52432  0.67692  1.0000
  C   C347      1.0  0.06814  0.65791  0.95159  1.0000
  C   C348      1.0  0.20818  0.49651  0.63011  1.0000
  C   C349      1.0  0.18596  0.70087  0.85957  1.0000
  H   H291      1.0  0.17250  0.72093  0.87584  1.0000
  C   C350      1.0  0.00591  0.65222  0.50867  1.0000
  C   C351      1.0  0.98798  0.63532  0.86322  1.0000
  C   C352      1.0  0.15732  0.60901  0.94377  1.0000
  H   H292      1.0  0.22283  0.79272  0.62829  1.0000
  C   C353      1.0  0.03287  0.60989  0.52174  1.0000
  H   H293      1.0  0.10799  0.61709  0.78801  1.0000
  H   H294      1.0  0.02247  0.62586  0.92544  1.0000
  C   C354      1.0  0.03641  0.63192  0.94015  1.0000
  P   P11       1.0  0.04541  0.66467  0.89530  1.0000
  H   H295      1.0  0.18231  0.54108  0.82747  1.0000
  C   C355      1.0  0.13235  0.61079  0.86410  1.0000
  H   H296      1.0  0.18663  0.71638  0.66660  1.0000
  H   H297      1.0  0.18012  0.73495  0.61283  1.0000
  C   C356      1.0  0.15480  0.57057  0.64468  1.0000
  C   C357      1.0  0.13688  0.55328  0.85111  1.0000
  C   C358      1.0  0.15596  0.51779  0.52628  1.0000
  H   H298      1.0  0.14897  0.51635  0.81493  1.0000
  H   H299      1.0  0.01221  0.70139  0.57067  1.0000
  C   C359      1.0  0.21695  0.62536  0.89331  1.0000
  H   H300      1.0  0.12908  0.52462  0.60996  1.0000
  H   H301      1.0  0.00330  0.63158  0.98352  1.0000
  H   H302      1.0  0.16686  0.75644  0.70880  1.0000
  H   H303      1.0  0.14697  0.58621  0.79781  1.0000
  C   C360      1.0  0.19490  0.72601  0.54584  1.0000
  C   C361      1.0  0.00520  0.62700  0.68390  1.0000
  H   H304      1.0  0.20326  0.68395  0.84495  1.0000
  C   C362      1.0  0.05653  0.66017  0.78612  1.0000
  C   C363      1.0  0.00258  0.63277  0.60858  1.0000
  C   C364      1.0  0.02106  0.64001  0.62650  1.0000
  C   C365      1.0  0.02223  0.63694  0.66442  1.0000
  P   P12       1.0  0.04285  0.65346  0.60094  1.0000
  C   C366      1.0  0.04416  0.63993  0.55955  1.0000
  C   C367      1.0  0.04297  0.67725  0.58784  1.0000
  C   C368      1.0  0.06071  0.69234  0.57884  1.0000
  C   C369      1.0  0.06090  0.71043  0.56688  1.0000
  C   C370      1.0  0.04344  0.71370  0.56395  1.0000
  C   C371      1.0  0.02581  0.69899  0.57362  1.0000
  C   C372      1.0  0.02553  0.68087  0.58556  1.0000
  C   C373      1.0  0.05792  0.64914  0.53269  1.0000
  C   C374      1.0  0.14334  0.49329  0.60492  1.0000
  H   H305      1.0  0.06230  0.72207  0.98056  1.0000
  C   C375      1.0  0.14723  0.75150  0.96652  1.0000
  C   C376      1.0  0.03196  0.62003  0.55418  1.0000
  C   C377      1.0  0.06478  0.65802  0.62881  1.0000
  C   C378      1.0  0.07701  0.64757  0.62217  1.0000
  C   C379      1.0  0.09442  0.65199  0.64276  1.0000
  C   C380      1.0  0.09973  0.66676  0.67013  1.0000
  C   C381      1.0  0.08753  0.67705  0.67722  1.0000
  C   C382      1.0  0.07012  0.67273  0.65665  1.0000
  H   H306      1.0  0.00614  0.62471  0.71313  1.0000
  H   H307      1.0  0.07768  0.65003  0.76168  1.0000
  C   C383      1.0  0.18373  0.51133  0.62604  1.0000
  C   C384      1.0  0.15199  0.73482  0.96345  1.0000
  C   C385      1.0  0.07127  0.65250  0.78702  1.0000
  H   H308      1.0  0.15641  0.78244  0.95644  1.0000
  C   C386      1.0  0.16059  0.53693  0.61879  1.0000
  C   C387      1.0  0.07798  0.64825  0.82073  1.0000
  H   H309      1.0  0.12506  0.59697  0.75995  1.0000
  C   C388      1.0  0.22072  0.71123  0.87275  1.0000
  H   H310      1.0  0.18816  0.78985  0.66912  1.0000
  C   C389      1.0  0.19769  0.78392  0.81647  1.0000
  H   H311      1.0  0.18652  0.78448  0.92476  1.0000
  H   H312      1.0  0.08955  0.64249  0.82143  1.0000
  C   C390      1.0  0.18136  0.75359  0.93049  1.0000
  H   H313      1.0  0.12411  0.55404  0.63391  1.0000
  C   C391      1.0  0.12690  0.60067  0.78912  1.0000
  C   C392      1.0  0.04049  0.62089  0.96788  1.0000
  C   C393      1.0  0.18599  0.71824  0.87602  1.0000
  C   C394      1.0  0.21348  0.74128  0.65714  1.0000
  C   C395      1.0  0.20335  0.73207  0.89175  1.0000
  H   H314      1.0  0.08527  0.73469  0.87189  1.0000
  C   C396      1.0  0.22271  0.63344  0.85882  1.0000
  C   C397      1.0  0.20564  0.81522  0.56949  1.0000
  C   C398      1.0  0.07227  0.64675  0.97893  1.0000
  H   H315      1.0  0.07598  0.64882  0.87937  1.0000
  C   C399      1.0  0.11991  0.61687  0.84239  1.0000
  H   H316      1.0  0.19142  0.55405  0.62935  1.0000
  C   C400      1.0  0.14165  0.53725  0.61950  1.0000
  C   C401      1.0  0.21143  0.74353  0.54692  1.0000
  C   C402      1.0  0.19274  0.73253  0.77524  1.0000
  H   H317      1.0  0.21582  0.48792  0.61787  1.0000
  C   C403      1.0  0.04857  0.66367  0.81897  1.0000
  C   C404      1.0  0.21245  0.75911  0.52387  1.0000
  H   H318      1.0  0.19346  0.60630  0.92527  1.0000
  C   C405      1.0  0.06785  0.70425  0.88173  1.0000
  P   P13       1.0  0.15866  0.59167  0.87554  1.0000
  C   C406      1.0  0.16529  0.74168  0.75963  1.0000
  H   H319      1.0  0.12404  0.55663  0.85664  1.0000
  P   P14       1.0  0.20424  0.75906  0.67540  1.0000
  C   C407      1.0  0.14323  0.57336  0.94142  1.0000
  C   C408      1.0  0.15086  0.53045  0.82763  1.0000
  C   C409      1.0  0.07017  0.65183  0.85363  1.0000
  C   C410      1.0  0.17442  0.75007  0.72719  1.0000
  H   H320      1.0  0.19066  0.49520  0.58158  1.0000
  C   C411      1.0  0.15576  0.56742  0.85840  1.0000
  H   H321      1.0  0.20218  0.53366  0.56387  1.0000
  H   H322      1.0  0.14840  0.76985  0.57593  1.0000
  C   C412      1.0  0.17664  0.55380  0.63027  1.0000
  H   H323      1.0  0.16707  0.72583  0.80808  1.0000
  C   C413      1.0  0.06385  0.71716  0.95286  1.0000
  C   C414      1.0  0.13878  0.55398  0.63268  1.0000
  C   C415      1.0  0.05690  0.69057  0.90741  1.0000
  H   H324      1.0  0.16378  0.79438  0.62638  1.0000
  H   H325      1.0  0.11263  0.62584  0.85448  1.0000
  H   H326      1.0  0.14262  0.72112  0.97535  1.0000
  C   C416      1.0  0.05524  0.69719  0.94318  1.0000
  H   H327      1.0  0.17851  0.76461  0.85525  1.0000
  C   C417      1.0  0.16911  0.73588  0.94594  1.0000
  H   H328      1.0  0.19972  0.72538  0.79339  1.0000
  C   C418      1.0  0.15886  0.76772  0.59513  1.0000
  H   H329      1.0  0.15093  0.74161  0.76586  1.0000
  C   C419      1.0  0.20898  0.77096  0.86945  1.0000
  C   C420      1.0  0.07470  0.73068  0.92722  1.0000
  C   C421      1.0  0.18142  0.77893  0.64750  1.0000
  C   C422      1.0  0.13935  0.59459  0.81071  1.0000
  C   C423      1.0  0.16351  0.75102  0.59159  1.0000
  H   H330      1.0  0.03730  0.66983  0.81791  1.0000
  H   H331      1.0  0.14068  0.51165  0.53365  1.0000
  C   C424      1.0  0.17674  0.77042  0.93458  1.0000
  H   H332      1.0  0.22022  0.80279  0.78189  1.0000
  H   H333      1.0  0.02973  0.60660  0.97432  1.0000
  C   C425      1.0  0.11724  0.61190  0.80491  1.0000
  C   C426      1.0  0.21937  0.83435  0.56609  1.0000
  C   C427      1.0  0.22250  0.76594  0.94462  1.0000
  C   C428      1.0  0.18742  0.51712  0.66327  1.0000
  C   C429      1.0  0.17898  0.72401  0.52250  1.0000
  C   C430      1.0  0.13842  0.57333  0.97853  1.0000
  H   H334      1.0  0.18604  0.58329  0.65340  1.0000
  C   C431      1.0  0.17948  0.73964  0.50060  1.0000
  H   H335      1.0  0.03603  0.66523  0.49142  1.0000
  H   H336      1.0  0.13957  0.55942  0.92686  1.0000
  C   C432      1.0  0.18366  0.60835  0.86943  1.0000
  C   C433      1.0  0.19273  0.74956  0.71836  1.0000
  C   C434      1.0  0.22084  0.72869  0.88905  1.0000
  H   H337      1.0  0.16459  0.62298  0.93066  1.0000
  H   H338      1.0  0.15259  0.58342  0.65561  1.0000
  C   C435      1.0  0.22119  0.50191  0.90245  1.0000
  H   H339      1.0  0.17952  0.61257  0.81163  1.0000
  C   C436      1.0  0.17082  0.52096  0.55315  1.0000
  H   H340      1.0  0.04724  0.68690  0.96365  1.0000
  C   C437      1.0  0.20830  0.70720  0.64259  1.0000
  H   H341      1.0  0.19151  0.81291  0.58097  1.0000
  H   H342      1.0  0.01556  0.63292  0.85267  1.0000
  C   C438      1.0  0.15262  0.59123  0.92367  1.0000
  H   H343      1.0  0.07908  0.67216  0.94562  1.0000
  C   C439      1.0  0.17441  0.73284  0.78356  1.0000
  C   C440      1.0  0.20911  0.62875  0.82952  1.0000
  C   C441      1.0  0.98561  0.62294  0.62809  1.0000
  C   C442      1.0  0.05534  0.65950  0.85299  1.0000
  C   C443      1.0  0.20996  0.79912  0.55739  1.0000
  H   H344      1.0  0.05137  0.66355  0.75999  1.0000
  C   C444      1.0  0.20176  0.74063  0.74262  1.0000
  C   C445      1.0  0.16967  0.54441  0.83478  1.0000
  C   C446      1.0  0.98789  0.65455  0.51283  1.0000
  H   H345      1.0  0.18688  0.57353  0.85472  1.0000
  C   C447      1.0  0.20324  0.69725  0.85839  1.0000
  P   P15       1.0  0.20391  0.75547  0.90905  1.0000
  C   C448      1.0  0.05013  0.65064  0.93211  1.0000
  H   H346      1.0  0.98635  0.59450  0.53161  1.0000
  C   C449      1.0  0.14217  0.59952  0.84843  1.0000
  C   C450      1.0  0.13448  0.53488  0.83578  1.0000
  H   H347      1.0  0.13420  0.61509  0.89286  1.0000
  H   H348      1.0  0.19881  0.69176  0.64217  1.0000
  C   C451      1.0  0.00288  0.68710  0.48649  1.0000
  H   H349      1.0  0.18579  0.78504  0.79996  1.0000
  H   H350      1.0  0.19424  0.71404  0.56362  1.0000
  C   C452      1.0  0.98690  0.62007  0.66576  1.0000
  C   C453      1.0  0.15969  0.76933  0.95242  1.0000
  H   H351      1.0  0.16611  0.71049  0.52190  1.0000
  H   H352      1.0  0.08160  0.74612  0.93503  1.0000
  C   C454      1.0  0.20168  0.51302  0.68354  1.0000
  C   C455      1.0  0.13248  0.49002  0.63720  1.0000
  H   H353      1.0  0.20424  0.51731  0.71241  1.0000
  C   C456      1.0  0.05887  0.63893  0.50043  1.0000
  C   C457      1.0  0.00923  0.66785  0.90838  1.0000
  C   C458      1.0  0.19610  0.75706  0.50119  1.0000
  H   H354      1.0  0.22320  0.74481  0.56612  1.0000
  H   H355      1.0  0.13634  0.50112  0.65901  1.0000
  C   C459      1.0  0.21213  0.50281  0.66691  1.0000
  H   H356      1.0  0.98120  0.66933  0.92011  1.0000
  C   C460      1.0  0.21708  0.79382  0.80614  1.0000
  S   S49       1.0  0.09725  0.71190  0.49562  1.0000
  H   H357      1.0  0.21962  0.73790  0.96730  1.0000
  C   C461      1.0  0.19753  0.61273  0.89857  1.0000
  H   H358      1.0  0.00732  0.63876  0.51702  1.0000
  C   C462      1.0  0.22130  0.50016  0.83591  1.0000
  H   H359      1.0  0.21044  0.54179  0.49909  1.0000
  C   C463      1.0  0.21832  0.50906  0.86831  1.0000
  H   H360      1.0  0.22289  0.49923  0.68281  1.0000
  C   C464      1.0  0.98888  0.66182  0.90455  1.0000
  C   C465      1.0  0.98651  0.67215  0.50155  1.0000
  H   H361      1.0  0.21924  0.50575  0.80940  1.0000
  C   C466      1.0  0.16074  0.52257  0.48965  1.0000
  H   H362      1.0  0.21904  0.50891  0.92760  1.0000
  H   H363      1.0  0.97962  0.62254  0.84624  1.0000
  H   H364      1.0  0.21386  0.52154  0.86694  1.0000
  C   C467      1.0  0.97564  0.59080  0.50919  1.0000
  C   C468      1.0  0.04624  0.61938  0.49477  1.0000
  C   C469      1.0  0.22425  0.78248  0.68342  1.0000
  S   S50       1.0  0.11284  0.66694  0.48650  1.0000
  S   S51       1.0  0.14095  0.76252  0.48691  1.0000
  H   H365      1.0  0.39463  0.07230  0.04897  1.0000
  C   C470      1.0  0.24082  0.38757  0.35093  1.0000
  H   H366      1.0  0.35658  0.25020  0.34228  1.0000
  H   H367      1.0  0.35743  0.32158  0.34905  1.0000
  Fe  Fe25      1.0  0.29283  0.37429  0.02923  1.0000
  H   H368      1.0  0.40043  0.11183  0.01128  1.0000
  Fe  Fe26      1.0  0.27547  0.34734  0.09541  1.0000
  S   S52       1.0  0.25421  0.32377  0.05716  1.0000
  S   S53       1.0  0.27128  0.33800  0.15644  1.0000
  Fe  Fe27      1.0  0.28004  0.32964  0.01992  1.0000
  H   H369      1.0  0.46629  0.34529  0.31625  1.0000
  Fe  Fe28      1.0  0.24877  0.34886  0.03058  1.0000
  C   C471      1.0  0.36993  0.02214  0.40699  1.0000
  S   S54       1.0  0.30150  0.35183  0.05881  1.0000
  S   S55       1.0  0.26892  0.37214  0.06942  1.0000
  P   P16       1.0  0.45671  0.21213  0.09417  1.0000
  H   H370      1.0  0.45657  0.09935  0.03322  1.0000
  C   C472      1.0  0.36653  0.18193  0.02137  1.0000
  C   C473      1.0  0.36353  0.46960  0.46865  1.0000
  C   C474      1.0  0.47237  0.17735  0.38203  1.0000
  Fe  Fe29      1.0  0.28360  0.35689  0.38226  1.0000
  S   S56       1.0  0.25982  0.32781  0.39400  1.0000
  S   S57       1.0  0.29546  0.36798  0.32482  1.0000
  Fe  Fe30      1.0  0.24589  0.34485  0.42818  1.0000
  C   C475      1.0  0.39030  0.29317  0.43474  1.0000
  Fe  Fe31      1.0  0.27797  0.32858  0.44572  1.0000
  H   H371      1.0  0.41340  0.29729  0.47499  1.0000
  S   S58       1.0  0.26909  0.37387  0.41423  1.0000
  S   S59       1.0  0.30266  0.35691  0.43227  1.0000
  C   C476      1.0  0.37624  0.31818  0.43446  1.0000
  C   C477      1.0  0.40321  0.30329  0.46340  1.0000
  C   C478      1.0  0.45128  0.02692  0.29046  1.0000
  C   C479      1.0  0.44728  0.22015  0.05390  1.0000
  C   C480      1.0  0.35130  0.26120  0.39520  1.0000
  H   H372      1.0  0.35474  0.44039  0.44449  1.0000
  S   S60       1.0  0.45381  0.12924  0.23778  1.0000
  C   C481      1.0  0.27778  0.34709  0.20300  1.0000
  C   C482      1.0  0.29217  0.36559  0.21173  1.0000
  C   C483      1.0  0.29723  0.37168  0.24897  1.0000
  C   C484      1.0  0.28785  0.35958  0.27826  1.0000
  C   C485      1.0  0.27318  0.34123  0.26954  1.0000
  C   C486      1.0  0.26835  0.33501  0.23230  1.0000
  H   H373      1.0  0.29964  0.37510  0.18979  1.0000
  H   H374      1.0  0.30860  0.38590  0.25515  1.0000
  H   H375      1.0  0.26578  0.33168  0.29150  1.0000
  H   H376      1.0  0.25725  0.32063  0.22615  1.0000
  H   H377      1.0  0.27052  0.39219  0.27812  1.0000
  H   H378      1.0  0.24130  0.39236  0.37942  1.0000
  H   H379      1.0  0.29797  0.31499  0.36857  1.0000
  S   S61       1.0  0.45309  0.29678  0.32143  1.0000
  C   C487      1.0  0.39332  0.09261  0.27072  1.0000
  H   H380      1.0  0.40558  0.20742  0.00032  1.0000
  C   C488      1.0  0.35154  0.24657  0.36996  1.0000
  C   C489      1.0  0.44789  0.28282  0.10662  1.0000
  H   H381      1.0  0.40933  0.17335  0.00504  1.0000
  C   C490      1.0  0.45491  0.29444  0.04390  1.0000
  C   C491      1.0  0.43639  0.28131  0.03091  1.0000
  C   C492      1.0  0.42372  0.26880  0.05606  1.0000
  H   H382      1.0  0.34261  0.32102  0.00277  1.0000
  C   C493      1.0  0.31362  0.99693  0.35859  1.0000
  H   H383      1.0  0.46272  0.24636  0.14304  1.0000
  C   C494      1.0  0.46287  0.16484  0.04154  1.0000
  C   C495      1.0  0.45013  0.28873  0.36771  1.0000
  C   C496      1.0  0.38916  0.32829  0.46321  1.0000
  C   C497      1.0  0.44350  0.27782  0.44244  1.0000
  C   C498      1.0  0.42780  0.27278  0.41711  1.0000
  C   C499      1.0  0.43108  0.27841  0.38013  1.0000
  H   H384      1.0  0.41315  0.26452  0.42611  1.0000
  H   H385      1.0  0.41876  0.27469  0.36100  1.0000
  C   C500      1.0  0.43670  0.10160  0.37358  1.0000
  C   C501      1.0  0.41752  0.09697  0.38594  1.0000
  C   C502      1.0  0.41228  0.09006  0.42171  1.0000
  C   C503      1.0  0.42632  0.08821  0.44615  1.0000
  C   C504      1.0  0.44556  0.09288  0.43385  1.0000
  C   C505      1.0  0.45072  0.09939  0.39768  1.0000
  H   H386      1.0  0.40658  0.09874  0.36774  1.0000
  H   H387      1.0  0.39739  0.08627  0.43045  1.0000
  H   H388      1.0  0.34518  0.26696  0.45117  1.0000
  C   C506      1.0  0.43185  0.09071  0.11371  1.0000
  C   C507      1.0  0.41272  0.08195  0.09857  1.0000
  C   C508      1.0  0.40938  0.07930  0.06017  1.0000
  C   C509      1.0  0.42517  0.08534  0.03637  1.0000
  C   C510      1.0  0.44426  0.09462  0.05142  1.0000
  C   C511      1.0  0.44760  0.09739  0.08985  1.0000
  H   H389      1.0  0.40040  0.07704  0.11664  1.0000
  C   C512      1.0  0.41506  0.25143  0.24558  1.0000
  C   C513      1.0  0.40590  0.24713  0.27948  1.0000
  C   C514      1.0  0.37773  0.18951  0.08469  1.0000
  S   S62       1.0  0.28182  0.30066  0.46537  1.0000
  H   H390      1.0  0.41124  0.26065  0.22636  1.0000
  H   H391      1.0  0.39497  0.25309  0.28664  1.0000
  H   H392      1.0  0.27155  0.40393  0.34264  1.0000
  H   H393      1.0  0.29398  0.28573  0.03708  1.0000
  H   H394      1.0  0.46425  0.14630  0.37099  1.0000
  C   C515      1.0  0.37522  0.02452  0.37016  1.0000
  C   C516      1.0  0.40623  0.08551  0.25340  1.0000
  H   H395      1.0  0.44126  0.19749  0.26173  1.0000
  C   C517      1.0  0.36898  0.98741  0.02056  1.0000
  S   S63       1.0  0.44216  0.11041  0.32811  1.0000
  C   C518      1.0  0.37266  0.29003  0.33995  1.0000
  C   C519      1.0  0.30968  0.30944  0.37077  1.0000
  H   H396      1.0  0.38571  0.03571  0.04810  1.0000
  H   H397      1.0  0.34856  0.39026  0.02078  1.0000
  H   H398      1.0  0.35466  0.01513  0.41400  1.0000
  P   P17       1.0  0.43286  0.15837  0.48264  1.0000
  S   S64       1.0  0.33874  0.00569  0.48369  1.0000
  C   C520      1.0  0.31781  0.00369  0.08824  1.0000
  H   H399      1.0  0.36827  0.05381  0.17836  1.0000
  C   C521      1.0  0.42039  0.21569  0.01042  1.0000
  H   H400      1.0  0.39968  0.19616  0.20603  1.0000
  C   C522      1.0  0.42788  0.15255  0.29957  1.0000
  C   C523      1.0  0.37392  0.04432  0.16318  1.0000
  C   C524      1.0  0.39345  0.04644  0.16847  1.0000
  C   C525      1.0  0.40096  0.03456  0.14850  1.0000
  C   C526      1.0  0.38902  0.02065  0.12282  1.0000
  C   C527      1.0  0.36950  0.01874  0.11656  1.0000
  C   C528      1.0  0.36195  0.03051  0.13734  1.0000
  P   P18       1.0  0.35488  0.00214  0.08061  1.0000
  C   C529      1.0  0.37176  0.13041  0.42713  1.0000
  C   C530      1.0  0.33475  0.00923  0.06704  1.0000
  H   H401      1.0  0.47037  0.20579  0.32600  1.0000
  H   H402      1.0  0.32010  0.09617  0.01503  1.0000
  C   C531      1.0  0.34927  0.11535  0.03181  1.0000
  H   H403      1.0  0.38020  0.19901  0.10889  1.0000
  H   H404      1.0  0.38302  0.10009  0.07239  1.0000
  C   C532      1.0  0.37055  0.00411  0.04185  1.0000
  H   H405      1.0  0.38363  0.27498  0.01632  1.0000
  H   H406      1.0  0.42040  0.01019  0.28706  1.0000
  H   H407      1.0  0.31665  0.99510  0.11267  1.0000
  S   S65       1.0  0.36371  0.06298  0.47876  1.0000
  H   H408      1.0  0.36056  0.18559  0.99630  1.0000
  C   C533      1.0  0.42723  0.22571  0.44006  1.0000
  H   H409      1.0  0.40296  0.05767  0.18735  1.0000
  H   H410      1.0  0.41627  0.03664  0.15206  1.0000
  H   H411      1.0  0.32232  0.32822  0.48011  1.0000
  H   H412      1.0  0.37991  0.19817  0.41625  1.0000
  H   H413      1.0  0.32375  0.12412  0.45696  1.0000
  H   H414      1.0  0.41842  0.30381  0.30465  1.0000
  C   C534      1.0  0.37171  0.16546  0.02181  1.0000
  H   H415      1.0  0.33048  0.33386  0.34301  1.0000
  H   H416      1.0  0.46239  0.10414  0.10101  1.0000
  H   H417      1.0  0.42747  0.14070  0.06841  1.0000
  H   H418      1.0  0.40532  0.11715  0.47278  1.0000
  C   C535      1.0  0.37679  0.30054  0.41992  1.0000
  C   C536      1.0  0.42943  0.26960  0.09358  1.0000
  H   H419      1.0  0.37298  0.08853  0.31467  1.0000
  C   C537      1.0  0.41148  0.23594  0.30488  1.0000
  C   C538      1.0  0.46269  0.15743  0.38928  1.0000
  C   C539      1.0  0.33581  0.08021  0.04129  1.0000
  H   H420      1.0  0.43807  0.07012  0.32758  1.0000
  C   C540      1.0  0.33365  0.09717  0.02868  1.0000
  H   H421      1.0  0.40948  0.25858  0.04662  1.0000
  C   C541      1.0  0.38428  0.02905  0.43490  1.0000
  C   C542      1.0  0.33354  0.01998  0.30059  1.0000
  C   C543      1.0  0.42339  0.15710  0.33485  1.0000
  H   H422      1.0  0.41936  0.26004  0.11272  1.0000
  C   C544      1.0  0.41883  0.13366  0.15945  1.0000
  C   C545      1.0  0.41973  0.13915  0.09386  1.0000
  H   H423      1.0  0.34148  0.02894  0.27830  1.0000
  C   C546      1.0  0.46609  0.04501  0.29987  1.0000
  H   H424      1.0  0.36562  0.32396  0.42443  1.0000
  C   C547      1.0  0.36171  0.28548  0.30670  1.0000
  C   C548      1.0  0.37116  0.28751  0.27303  1.0000
  C   C549      1.0  0.39159  0.29410  0.27230  1.0000
  C   C550      1.0  0.34557  0.22695  0.38064  1.0000
  C   C551      1.0  0.33923  0.22180  0.41643  1.0000
  C   C552      1.0  0.33873  0.23623  0.44147  1.0000
  H   H425      1.0  0.34586  0.28028  0.30685  1.0000
  H   H426      1.0  0.36263  0.28401  0.24748  1.0000
  H   H427      1.0  0.39897  0.29571  0.24627  1.0000
  H   H428      1.0  0.34600  0.21574  0.36133  1.0000
  H   H429      1.0  0.33497  0.20670  0.42508  1.0000
  H   H430      1.0  0.44988  0.18573  0.02859  1.0000
  H   H431      1.0  0.34705  0.02952  0.13300  1.0000
  H   H432      1.0  0.26735  0.39846  0.99333  1.0000
  C   C553      1.0  0.33855  0.15441  0.47392  1.0000
  H   H433      1.0  0.23992  0.36901  0.25020  1.0000
  C   C554      1.0  0.36621  0.31474  0.05767  1.0000
  C   C555      1.0  0.38063  0.31969  0.03070  1.0000
  P   P19       1.0  0.35870  0.33355  0.07725  1.0000
  C   C556      1.0  0.37782  0.35035  0.10706  1.0000
  C   C557      1.0  0.35255  0.34644  0.03997  1.0000
  C   C558      1.0  0.35428  0.36610  0.04458  1.0000
  C   C559      1.0  0.47381  0.18491  0.10931  1.0000
  C   C560      1.0  0.39556  0.20594  0.41313  1.0000
  H   H434      1.0  0.28891  0.00429  0.09367  1.0000
  C   C561      1.0  0.33476  0.13423  0.47538  1.0000
  C   C562      1.0  0.39694  0.35044  0.10722  1.0000
  C   C563      1.0  0.41140  0.36321  0.13105  1.0000
  C   C564      1.0  0.40690  0.37593  0.15502  1.0000
  C   C565      1.0  0.38789  0.37582  0.15531  1.0000
  C   C566      1.0  0.37339  0.36306  0.13155  1.0000
  C   C567      1.0  0.33706  0.32256  0.10439  1.0000
  C   C568      1.0  0.31832  0.31761  0.08836  1.0000
  C   C569      1.0  0.30168  0.31079  0.11005  1.0000
  C   C570      1.0  0.30361  0.30867  0.14785  1.0000
  C   C571      1.0  0.32216  0.31279  0.16385  1.0000
  C   C572      1.0  0.33883  0.31956  0.14218  1.0000
  C   C573      1.0  0.46816  0.25116  0.33671  1.0000
  C   C574      1.0  0.35417  0.44913  0.46848  1.0000
  C   C575      1.0  0.31249  0.27154  0.01451  1.0000
  H   H435      1.0  0.33485  0.04485  0.33464  1.0000
  H   H436      1.0  0.40506  0.22398  0.16398  1.0000
  H   H437      1.0  0.36005  0.37426  0.06987  1.0000
  H   H438      1.0  0.47328  0.24634  0.04570  1.0000
  H   H439      1.0  0.37431  0.16013  0.41754  1.0000
  C   C576      1.0  0.39627  0.02428  0.00214  1.0000
  C   C577      1.0  0.42884  0.13667  0.12642  1.0000
  H   H440      1.0  0.40082  0.34058  0.08942  1.0000
  H   H441      1.0  0.42611  0.36315  0.13106  1.0000
  H   H442      1.0  0.41812  0.38578  0.17351  1.0000
  H   H443      1.0  0.38432  0.38556  0.17407  1.0000
  H   H444      1.0  0.35865  0.36300  0.13249  1.0000
  H   H445      1.0  0.31645  0.31943  0.05925  1.0000
  H   H446      1.0  0.28729  0.30764  0.09771  1.0000
  H   H447      1.0  0.29072  0.30407  0.16473  1.0000
  H   H448      1.0  0.32359  0.31112  0.19318  1.0000
  H   H449      1.0  0.35309  0.32284  0.15509  1.0000
  H   H450      1.0  0.43749  0.24867  0.21137  1.0000
  C   C578      1.0  0.42523  0.17631  0.34402  1.0000
  C   C579      1.0  0.33570  0.02009  0.03524  1.0000
  H   H451      1.0  0.38525  0.99478  0.32787  1.0000
  H   H452      1.0  0.41871  0.17470  0.19848  1.0000
  C   C580      1.0  0.46303  0.19109  0.08347  1.0000
  C   C581      1.0  0.32003  0.02541  0.02485  1.0000
  C   C582      1.0  0.42095  0.18678  0.18009  1.0000
  C   C583      1.0  0.36725  0.11673  0.04773  1.0000
  H   H453      1.0  0.31761  0.02437  0.38642  1.0000
  C   C584      1.0  0.36951  0.19396  0.05282  1.0000
  C   C585      1.0  0.46264  0.28755  0.42977  1.0000
  H   H454      1.0  0.36162  0.00296  0.20284  1.0000
  C   C586      1.0  0.44868  0.16606  0.44383  1.0000
  C   C587      1.0  0.23979  0.37387  0.27835  1.0000
  C   C588      1.0  0.32988  0.02896  0.33229  1.0000
  H   H455      1.0  0.30650  0.98857  0.38199  1.0000
  H   H456      1.0  0.38703  0.33462  0.02110  1.0000
  C   C589      1.0  0.43486  0.19048  0.15257  1.0000
  C   C590      1.0  0.45778  0.18603  0.43550  1.0000
  P   P20       1.0  0.38776  0.14006  0.05215  1.0000
  H   H457      1.0  0.35741  0.26575  0.06223  1.0000
  C   C591      1.0  0.25781  0.39407  0.33026  1.0000
  C   C592      1.0  0.25724  0.38737  0.29391  1.0000
  S   S66       1.0  0.31418  0.40267  0.00444  1.0000
  C   C593      1.0  0.40860  0.14727  0.46243  1.0000
  S   S67       1.0  0.47274  0.09662  0.24657  1.0000
  C   C594      1.0  0.40693  0.12613  0.99906  1.0000
  C   C595      1.0  0.38702  0.30541  0.01615  1.0000
  C   C596      1.0  0.43554  0.23350  0.26244  1.0000
  C   C597      1.0  0.42983  0.24458  0.23706  1.0000
  S   S68       1.0  0.43524  0.09206  0.16246  1.0000
  H   H458      1.0  0.32380  0.06614  0.03792  1.0000
  H   H459      1.0  0.38250  0.03216  0.23926  1.0000
  H   H460      1.0  0.40210  0.30037  0.36396  1.0000
  H   H461      1.0  0.45783  0.25842  0.33790  1.0000
  C   C598      1.0  0.32725  0.99946  0.29788  1.0000
  H   H462      1.0  0.45653  0.09143  0.45247  1.0000
  H   H463      1.0  0.41901  0.19639  0.05500  1.0000
  H   H464      1.0  0.45146  0.23460  0.40384  1.0000
  C   C599      1.0  0.43588  0.22640  0.40583  1.0000
  H   H465      1.0  0.47035  0.21377  0.20228  1.0000
  H   H466      1.0  0.31187  0.26299  0.03877  1.0000
  C   C600      1.0  0.40257  0.29868  0.30523  1.0000
  C   C601      1.0  0.46987  0.19164  0.40510  1.0000
  H   H467      1.0  0.31884  0.27135  0.40701  1.0000
  C   C602      1.0  0.46065  0.29519  0.08142  1.0000
  C   C603      1.0  0.34781  0.37530  0.01669  1.0000
  H   H468      1.0  0.45544  0.19731  0.45206  1.0000
  C   C604      1.0  0.42441  0.21670  0.37490  1.0000
  H   H469      1.0  0.37263  0.10262  0.44282  1.0000
  C   C605      1.0  0.38435  0.02256  0.03245  1.0000
  C   C606      1.0  0.34495  0.25585  0.43105  1.0000
  H   H470      1.0  0.40480  0.23379  0.33151  1.0000
  H   H471      1.0  0.41909  0.06371  0.25289  1.0000
  H   H472      1.0  0.40722  0.17511  0.44707  1.0000
  C   C607      1.0  0.35795  0.29522  0.06920  1.0000
  C   C608      1.0  0.42622  0.22877  0.29645  1.0000
  H   H473      1.0  0.39176  0.10587  0.26114  1.0000
  P   P21       1.0  0.36016  0.28689  0.38320  1.0000
  C   C609      1.0  0.39319  0.29668  0.33895  1.0000
  H   H474      1.0  0.39066  0.27943  0.42432  1.0000
  C   C610      1.0  0.39989  0.15925  0.44594  1.0000
  C   C611      1.0  0.40419  0.20627  0.37896  1.0000
  H   H475      1.0  0.35543  0.06817  0.06634  1.0000
  H   H476      1.0  0.38999  0.17045  0.10976  1.0000
  C   C612      1.0  0.38273  0.08282  0.30082  1.0000
  C   C613      1.0  0.37989  0.16074  0.05364  1.0000
  H   H477      1.0  0.46983  0.33353  0.37832  1.0000
  H   H478      1.0  0.39525  0.01190  0.10688  1.0000
  H   H479      1.0  0.32073  0.03335  0.99964  1.0000
  C   C614      1.0  0.32167  0.28481  0.39238  1.0000
  H   H480      1.0  0.34822  0.02397  0.01770  1.0000
  C   C615      1.0  0.39966  0.13305  0.16007  1.0000
  H   H481      1.0  0.44346  0.13642  0.12594  1.0000
  H   H482      1.0  0.44314  0.13625  0.42495  1.0000
  H   H483      1.0  0.45507  0.01495  0.27990  1.0000
  H   H484      1.0  0.33042  0.15955  0.45436  1.0000
  H   H485      1.0  0.39824  0.30921  0.99552  1.0000
  C   C616      1.0  0.47313  0.15848  0.06780  1.0000
  H   H486      1.0  0.39180  0.13035  0.18561  1.0000
  C   C617      1.0  0.34015  0.29534  0.37791  1.0000
  C   C618      1.0  0.38303  0.17306  0.08513  1.0000
  H   H487      1.0  0.42249  0.17951  0.37209  1.0000
  C   C619      1.0  0.34322  0.31306  0.35996  1.0000
  C   C620      1.0  0.42806  0.20947  0.04109  1.0000
  C   C621      1.0  0.45077  0.15178  0.41991  1.0000
  S   S69       1.0  0.45407  0.28307  0.15451  1.0000
  C   C622      1.0  0.43798  0.20619  0.12864  1.0000
  H   H488      1.0  0.35714  0.12386  0.41500  1.0000
  C   C623      1.0  0.36423  0.28095  0.05425  1.0000
  H   H489      1.0  0.29229  0.28367  0.39990  1.0000
  C   C624      1.0  0.30648  0.29176  0.38842  1.0000
  P   P22       1.0  0.43544  0.21644  0.33068  1.0000
  C   C625      1.0  0.43573  0.18638  0.28221  1.0000
  H   H490      1.0  0.37707  0.05892  0.33758  1.0000
  C   C626      1.0  0.38515  0.06600  0.31381  1.0000
  C   C627      1.0  0.30210  0.00892  0.07766  1.0000
  C   C628      1.0  0.46145  0.23060  0.33329  1.0000
  C   C629      1.0  0.39048  0.13543  0.12755  1.0000
  C   C630      1.0  0.36668  0.00123  0.23026  1.0000
  H   H491      1.0  0.38838  0.34164  0.47487  1.0000
  H   H492      1.0  0.44800  0.22967  0.25616  1.0000
  Fe  Fe32      1.0  0.46179  0.10959  0.19942  1.0000
  C   C631      1.0  0.32804  0.32008  0.35648  1.0000
  H   H493      1.0  0.37540  0.13436  0.12813  1.0000
  C   C632      1.0  0.30321  0.01979  0.04596  1.0000
  C   C633      1.0  0.38142  0.15084  0.42869  1.0000
  H   H494      1.0  0.42693  0.13776  0.29292  1.0000
  H   H495      1.0  0.29092  0.02356  0.03733  1.0000
  C   C634      1.0  0.40392  0.03843  0.42592  1.0000
  C   C635      1.0  0.37857  0.01778  0.25097  1.0000
  H   H496      1.0  0.34718  0.12804  0.02094  1.0000
  C   C636      1.0  0.41018  0.19880  0.18424  1.0000
  H   H497      1.0  0.41462  0.09322  0.23033  1.0000
  H   H498      1.0  0.33079  0.99294  0.27358  1.0000
  C   C637      1.0  0.39493  0.03382  0.36080  1.0000
  C   C638      1.0  0.40328  0.14240  0.01284  1.0000
  C   C639      1.0  0.43117  0.19115  0.31762  1.0000
  H   H499      1.0  0.36388  0.01933  0.34900  1.0000
  H   H500      1.0  0.42925  0.23044  0.11506  1.0000
  C   C640      1.0  0.39834  0.05894  0.29690  1.0000
  C   C641      1.0  0.41317  0.21443  0.16057  1.0000
  H   H501      1.0  0.43844  0.16385  0.24644  1.0000
  C   C642      1.0  0.45781  0.18107  0.04931  1.0000
  C   C643      1.0  0.45861  0.23742  0.03599  1.0000
  H   H502      1.0  0.41903  0.14580  0.35544  1.0000
  C   C644      1.0  0.36926  0.09954  0.06045  1.0000
  C   C645      1.0  0.35361  0.08139  0.05724  1.0000
  H   H503      1.0  0.36564  0.20685  0.05223  1.0000
  C   C646      1.0  0.44159  0.05795  0.31726  1.0000
  C   C647      1.0  0.42693  0.21806  0.13282  1.0000
  C   C648      1.0  0.40054  0.13875  0.09426  1.0000
  C   C649      1.0  0.43417  0.16721  0.27335  1.0000
  C   C650      1.0  0.30243  0.28457  0.01373  1.0000
  C   C651      1.0  0.40927  0.04096  0.38903  1.0000
  C   C652      1.0  0.45082  0.24370  0.00557  1.0000
  C   C653      1.0  0.32008  0.01743  0.36138  1.0000
  C   C654      1.0  0.38049  0.11841  0.44300  1.0000
  C   C655      1.0  0.40876  0.06877  0.26640  1.0000
  C   C656      1.0  0.38537  0.01569  0.28635  1.0000
  H   H504      1.0  0.34646  0.29083  0.08919  1.0000
  C   C657      1.0  0.43178  0.23281  0.99272  1.0000
  H   H505      1.0  0.41496  0.04415  0.44770  1.0000
  C   C658      1.0  0.31684  0.98765  0.32655  1.0000
  C   C659      1.0  0.43159  0.02430  0.29454  1.0000
  C   C660      1.0  0.42660  0.03986  0.30792  1.0000
  H   H506      1.0  0.39509  0.19845  0.35564  1.0000
  C   C661      1.0  0.37884  0.28607  0.02798  1.0000
  H   H507      1.0  0.47266  0.07454  0.32074  1.0000
  H   H508      1.0  0.42580  0.13129  0.18433  1.0000
  H   H509      1.0  0.42453  0.04871  0.38305  1.0000
  C   C662      1.0  0.34455  0.33632  0.00677  1.0000
  P   P23       1.0  0.40128  0.03696  0.31285  1.0000
  H   H510      1.0  0.43607  0.23337  0.46381  1.0000
  H   H511      1.0  0.44315  0.18110  0.15051  1.0000
  C   C663      1.0  0.40709  0.21562  0.44366  1.0000
  H   H512      1.0  0.46555  0.10293  0.38868  1.0000
  H   H513      1.0  0.40667  0.03860  0.99469  1.0000
  H   H514      1.0  0.46487  0.30416  0.02478  1.0000
  H   H515      1.0  0.23007  0.32502  0.17862  1.0000
  H   H516      1.0  0.33414  0.23230  0.46943  1.0000
  S   S70       1.0  0.27241  0.35247  0.98984  1.0000
  Fe  Fe33      1.0  0.28555  0.37129  0.46523  1.0000
  H   H517      1.0  0.37147  0.47675  0.44472  1.0000
  Fe  Fe34      1.0  0.46598  0.11769  0.28468  1.0000
  C   C664      1.0  0.46598  0.29285  0.39255  1.0000
  H   H518      1.0  0.38014  0.02741  0.46355  1.0000
  C   C665      1.0  0.41206  0.16062  0.99585  1.0000
  S   S71       1.0  0.26171  0.34299  0.48077  1.0000
  H   H519      1.0  0.45851  0.15696  0.01535  1.0000
  C   C666      1.0  0.46123  0.06047  0.31347  1.0000
  C   C667      1.0  0.39888  0.12676  0.46052  1.0000
  C   C668      1.0  0.40260  0.32083  0.47771  1.0000
  C   C669      1.0  0.38001  0.99677  0.30076  1.0000
  H   H520      1.0  0.40036  0.21535  0.47010  1.0000
  C   C670      1.0  0.30364  0.29759  0.48047  1.0000
  H   H521      1.0  0.22723  0.33339  0.24373  1.0000
  H   H522      1.0  0.28924  0.26610  0.48377  1.0000
  H   H523      1.0  0.45932  0.25733  0.99237  1.0000
  H   H524      1.0  0.46545  0.14383  0.48378  1.0000
  H   H525      1.0  0.36987  0.15662  0.99693  1.0000
  S   S72       1.0  0.42193  0.08105  0.98795  1.0000
  C   C671      1.0  0.38087  0.98922  0.99010  1.0000
  H   H526      1.0  0.34801  0.98413  0.35920  1.0000
  C   C672      1.0  0.32149  0.31349  0.48562  1.0000
  S   S73       1.0  0.31180  0.43625  0.74679  1.0000
  S   S74       1.0  0.35978  0.44919  0.75293  1.0000
  Fe  Fe35      1.0  0.33686  0.44487  0.70786  1.0000
  S   S75       1.0  0.33778  0.42401  0.66069  1.0000
  Fe  Fe36      1.0  0.33462  0.44203  0.79215  1.0000
  S   S76       1.0  0.32569  0.41585  0.83100  1.0000
  Fe  Fe37      1.0  0.39333  0.06921  0.95348  1.0000
  Fe  Fe38      1.0  0.37793  0.06093  0.87157  1.0000
  S   S77       1.0  0.34645  0.05015  0.88880  1.0000
  S   S78       1.0  0.39092  0.06466  0.81361  1.0000
  Fe  Fe39      1.0  0.35701  0.07647  0.92851  1.0000
  S   S79       1.0  0.34113  0.09765  0.93715  1.0000
  Fe  Fe40      1.0  0.35513  0.03377  0.93405  1.0000
  S   S80       1.0  0.34316  0.00051  0.94679  1.0000
  S   S81       1.0  0.38786  0.08775  0.90919  1.0000
  S   S82       1.0  0.38623  0.04327  0.91431  1.0000
  S   S83       1.0  0.34108  0.47710  0.70894  1.0000
  C   C673      1.0  0.43430  0.17816  0.51414  1.0000
  Fe  Fe41      1.0  0.37900  0.25350  0.87558  1.0000
  S   S84       1.0  0.35411  0.22776  0.89836  1.0000
  S   S85       1.0  0.37569  0.26412  0.81710  1.0000
  Fe  Fe42      1.0  0.35741  0.24741  0.94891  1.0000
  H   H527      1.0  0.27798  0.45317  0.55458  1.0000
  Fe  Fe43      1.0  0.37769  0.21916  0.92460  1.0000
  S   S86       1.0  0.38396  0.19078  0.92148  1.0000
  S   S87       1.0  0.38088  0.27352  0.92505  1.0000
  S   S88       1.0  0.40245  0.24419  0.89968  1.0000
  H   H528      1.0  0.44569  0.13960  0.86169  1.0000
  Fe  Fe44      1.0  0.35315  0.07993  0.51998  1.0000
  S   S89       1.0  0.37999  0.08890  0.55665  1.0000
  C   C674      1.0  0.25542  0.38760  0.93922  1.0000
  Fe  Fe45      1.0  0.34982  0.03613  0.51327  1.0000
  S   S90       1.0  0.37678  0.04302  0.54958  1.0000
  C   C675      1.0  0.39463  0.11736  0.69251  1.0000
  Fe  Fe46      1.0  0.36425  0.06045  0.58610  1.0000
  S   S91       1.0  0.35655  0.05567  0.64748  1.0000
  Fe  Fe47      1.0  0.38986  0.07065  0.51654  1.0000
  S   S92       1.0  0.33657  0.05230  0.55080  1.0000
  Fe  Fe48      1.0  0.41013  0.25916  0.51783  1.0000
  S   S93       1.0  0.42048  0.08014  0.49202  1.0000
  Fe  Fe49      1.0  0.38977  0.24721  0.59349  1.0000
  S   S94       1.0  0.35957  0.23657  0.56666  1.0000
  S   S95       1.0  0.39694  0.24322  0.65431  1.0000
  Fe  Fe50      1.0  0.37234  0.22263  0.52325  1.0000
  C   C676      1.0  0.26953  0.46608  0.92131  1.0000
  Fe  Fe51      1.0  0.37109  0.26401  0.53272  1.0000
  S   S96       1.0  0.35929  0.28842  0.52205  1.0000
  S   S97       1.0  0.40180  0.23177  0.55137  1.0000
  S   S98       1.0  0.40073  0.27541  0.56204  1.0000
  S   S99       1.0  0.29385  0.39838  0.50420  1.0000
  C   C677      1.0  0.24235  0.42575  0.78125  1.0000
  H   H529      1.0  0.35684  0.00045  0.86774  1.0000
  H   H530      1.0  0.40328  0.00915  0.95665  1.0000
  C   C678      1.0  0.23610  0.34855  0.88195  1.0000
  C   C679      1.0  0.32289  0.26903  0.98389  1.0000
  C   C680      1.0  0.23540  0.37237  0.79290  1.0000
  H   H531      1.0  0.43034  0.17657  0.95229  1.0000
  C   C681      1.0  0.42416  0.16256  0.96577  1.0000
  H   H532      1.0  0.24721  0.40523  0.58816  1.0000
  C   C682      1.0  0.36268  0.16084  0.52313  1.0000
  C   C683      1.0  0.35929  0.14040  0.52384  1.0000
  C   C684      1.0  0.24261  0.37521  0.75714  1.0000
  C   C685      1.0  0.41202  0.15418  0.81910  1.0000
  H   H533      1.0  0.37310  0.17106  0.54217  1.0000
  H   H534      1.0  0.36731  0.13502  0.54319  1.0000
  C   C686      1.0  0.45259  0.19210  0.52570  1.0000
  C   C687      1.0  0.32333  0.28004  0.95254  1.0000
  C   C688      1.0  0.28629  0.46612  0.60895  1.0000
  C   C689      1.0  0.38129  0.25754  0.77209  1.0000
  C   C690      1.0  0.37390  0.26389  0.74081  1.0000
  C   C691      1.0  0.37822  0.25940  0.70472  1.0000
  C   C692      1.0  0.39027  0.24873  0.69924  1.0000
  C   C693      1.0  0.39762  0.24236  0.73052  1.0000
  C   C694      1.0  0.39316  0.24668  0.76660  1.0000
  H   H535      1.0  0.36472  0.27229  0.74449  1.0000
  H   H536      1.0  0.37230  0.26422  0.68112  1.0000
  H   H537      1.0  0.40694  0.23409  0.72683  1.0000
  H   H538      1.0  0.39911  0.24178  0.79017  1.0000
  C   C695      1.0  0.27563  0.47494  0.85747  1.0000
  C   C696      1.0  0.23175  0.44184  0.83085  1.0000
  C   C697      1.0  0.28170  0.42343  0.91413  1.0000
  H   H539      1.0  0.37396  0.19569  0.84139  1.0000
  S   S100      1.0  0.35625  0.19331  0.49254  1.0000
  C   C698      1.0  0.38097  0.06238  0.76772  1.0000
  C   C699      1.0  0.39387  0.06838  0.73810  1.0000
  C   C700      1.0  0.38677  0.06652  0.70125  1.0000
  C   C701      1.0  0.36659  0.05864  0.69342  1.0000
  C   C702      1.0  0.35370  0.05276  0.72308  1.0000
  C   C703      1.0  0.36080  0.05453  0.75989  1.0000
  H   H540      1.0  0.40950  0.07443  0.74370  1.0000
  H   H541      1.0  0.39691  0.07113  0.67893  1.0000
  H   H542      1.0  0.33806  0.04665  0.71747  1.0000
  H   H543      1.0  0.35066  0.04967  0.78216  1.0000
  C   C704      1.0  0.35273  0.12348  0.93070  1.0000
  C   C705      1.0  0.37237  0.13208  0.92093  1.0000
  C   C706      1.0  0.38130  0.15257  0.91698  1.0000
  C   C707      1.0  0.37086  0.16490  0.92287  1.0000
  C   C708      1.0  0.35100  0.15633  0.93144  1.0000
  H   H544      1.0  0.35842  0.09045  0.78518  1.0000
  H   H545      1.0  0.38079  0.12301  0.91659  1.0000
  H   H546      1.0  0.39649  0.15894  0.90940  1.0000
  H   H547      1.0  0.36708  0.15599  0.72631  1.0000
  Fe  Fe52      1.0  0.40197  0.26154  0.95141  1.0000
  C   C709      1.0  0.45369  0.20699  0.55127  1.0000
  H   H548      1.0  0.34595  0.09847  0.67057  1.0000
  C   C710      1.0  0.26932  0.40947  0.88907  1.0000
  C   C711      1.0  0.32268  0.41288  0.87937  1.0000
  C   C712      1.0  0.31269  0.39385  0.89253  1.0000
  C   C713      1.0  0.30990  0.39054  0.93050  1.0000
  C   C714      1.0  0.31753  0.40615  0.95611  1.0000
  C   C715      1.0  0.32797  0.42514  0.94302  1.0000
  C   C716      1.0  0.33034  0.42855  0.90487  1.0000
  H   H549      1.0  0.30697  0.38157  0.87319  1.0000
  H   H550      1.0  0.30202  0.37585  0.93992  1.0000
  C   C717      1.0  0.36890  0.46628  0.61317  1.0000
  H   H551      1.0  0.33825  0.44323  0.89525  1.0000
  C   C718      1.0  0.32385  0.41566  0.61897  1.0000
  C   C719      1.0  0.30919  0.42230  0.60766  1.0000
  C   C720      1.0  0.29946  0.41606  0.57318  1.0000
  C   C721      1.0  0.30414  0.40305  0.54972  1.0000
  C   C722      1.0  0.31839  0.39599  0.56154  1.0000
  C   C723      1.0  0.32819  0.40230  0.59588  1.0000
  H   H552      1.0  0.30570  0.43262  0.62499  1.0000
  H   H553      1.0  0.28856  0.42171  0.56418  1.0000
  H   H554      1.0  0.32238  0.38622  0.54365  1.0000
  H   H555      1.0  0.33952  0.39706  0.60426  1.0000
  C   C724      1.0  0.26500  0.45934  0.71023  1.0000
  H   H556      1.0  0.27515  0.45297  0.70032  1.0000
  H   H557      1.0  0.32680  0.12927  0.94287  1.0000
  C   C725      1.0  0.35120  0.98820  0.81249  1.0000
  H   H558      1.0  0.24364  0.42460  0.91504  1.0000
  C   C726      1.0  0.22923  0.47630  0.87172  1.0000
  C   C727      1.0  0.42760  0.14629  0.95218  1.0000
  C   C728      1.0  0.26856  0.38230  0.81740  1.0000
  C   C729      1.0  0.33952  0.36499  0.98413  1.0000
  C   C730      1.0  0.25092  0.34461  0.90094  1.0000
  C   C731      1.0  0.37241  0.18694  0.81631  1.0000
  H   H559      1.0  0.27005  0.41302  0.86026  1.0000
  P   P24       1.0  0.23638  0.45533  0.87433  1.0000
  C   C732      1.0  0.28972  0.47413  0.92904  1.0000
  C   C733      1.0  0.43084  0.11960  0.56338  1.0000
  H   H560      1.0  0.26486  0.35631  0.90766  1.0000
  C   C734      1.0  0.31292  0.29279  0.95149  1.0000
  H   H561      1.0  0.39503  0.47815  0.69418  1.0000
  C   C735      1.0  0.45553  0.13707  0.50556  1.0000
  H   H562      1.0  0.35695  0.00246  0.79968  1.0000
  H   H563      1.0  0.25874  0.32257  0.92834  1.0000
  C   C736      1.0  0.23854  0.39799  0.56398  1.0000
  C   C737      1.0  0.27076  0.47342  0.73894  1.0000
  H   H564      1.0  0.25964  0.46007  0.94360  1.0000
  C   C738      1.0  0.26768  0.40167  0.96425  1.0000
  H   H565      1.0  0.35812  0.98761  0.55778  1.0000
  H   H566      1.0  0.33533  0.00341  0.57683  1.0000
  H   H567      1.0  0.30067  0.99088  0.52103  1.0000
  S   S101      1.0  0.33892  0.47394  0.79924  1.0000
  C   C739      1.0  0.24580  0.43537  0.81569  1.0000
  C   C740      1.0  0.33161  0.98784  0.58124  1.0000
  C   C741      1.0  0.29003  0.46156  0.57307  1.0000
  C   C742      1.0  0.41905  0.12814  0.96886  1.0000
  C   C743      1.0  0.32657  0.10727  0.85109  1.0000
  C   C744      1.0  0.34965  0.09539  0.80351  1.0000
  P   P25       1.0  0.37474  0.13354  0.78764  1.0000
  H   H568      1.0  0.41323  0.13547  0.54505  1.0000
  C   C745      1.0  0.41715  0.12020  0.84212  1.0000
  C   C746      1.0  0.38716  0.47984  0.66981  1.0000
  C   C747      1.0  0.37631  0.40469  0.92212  1.0000
  C   C748      1.0  0.22466  0.42205  0.76216  1.0000
  H   H569      1.0  0.25361  0.42156  0.76903  1.0000
  H   H570      1.0  0.41915  0.10691  0.85032  1.0000
  Fe  Fe53      1.0  0.31757  0.46846  0.75142  1.0000
  C   C749      1.0  0.39681  0.13574  0.81313  1.0000
  C   C750      1.0  0.24841  0.37670  0.82341  1.0000
  C   C751      1.0  0.37983  0.46448  0.64377  1.0000
  C   C752      1.0  0.23279  0.46185  0.70662  1.0000
  C   C753      1.0  0.35206  0.47163  0.53047  1.0000
  H   H571      1.0  0.34456  0.11319  0.73167  1.0000
  C   C754      1.0  0.25623  0.39129  0.90142  1.0000
  C   C755      1.0  0.37431  0.16870  0.81767  1.0000
  C   C756      1.0  0.23841  0.47560  0.73579  1.0000
  H   H572      1.0  0.22911  0.48041  0.93083  1.0000
  H   H573      1.0  0.36707  0.20805  0.78170  1.0000
  H   H574      1.0  0.38195  0.45080  0.64800  1.0000
  H   H575      1.0  0.33401  0.43733  0.96250  1.0000
  C   C757      1.0  0.23002  0.42515  0.92427  1.0000
  C   C758      1.0  0.36859  0.19392  0.78270  1.0000
  H   H576      1.0  0.42119  0.11266  0.58555  1.0000
  S   S102      1.0  0.28827  0.31027  0.97816  1.0000
  H   H577      1.0  0.40520  0.19353  0.56845  1.0000
  H   H578      1.0  0.46599  0.19140  0.51517  1.0000
  H   H579      1.0  0.24539  0.37381  0.94944  1.0000
  C   C759      1.0  0.30934  0.46750  0.56112  1.0000
  C   C760      1.0  0.37588  0.38570  0.92736  1.0000
  H   H580      1.0  0.31611  0.30986  0.56490  1.0000
  C   C761      1.0  0.32247  0.08727  0.84487  1.0000
  H   H581      1.0  0.22941  0.47748  0.81223  1.0000
  H   H582      1.0  0.34538  0.13672  0.84003  1.0000
  C   C762      1.0  0.36746  0.30975  0.84310  1.0000
  C   C763      1.0  0.38684  0.31766  0.83175  1.0000
  C   C764      1.0  0.39500  0.33728  0.82133  1.0000
  C   C765      1.0  0.38368  0.34893  0.82170  1.0000
  C   C766      1.0  0.36393  0.34089  0.83166  1.0000
  C   C767      1.0  0.35606  0.32131  0.84332  1.0000
  P   P26       1.0  0.34961  0.35628  0.83232  1.0000
  C   C768      1.0  0.36106  0.37570  0.86629  1.0000
  C   C769      1.0  0.34721  0.36572  0.78749  1.0000
  C   C770      1.0  0.33443  0.37576  0.78268  1.0000
  C   C771      1.0  0.33311  0.38412  0.74891  1.0000
  C   C772      1.0  0.34400  0.38195  0.71924  1.0000
  C   C773      1.0  0.35606  0.37121  0.72320  1.0000
  C   C774      1.0  0.35767  0.36310  0.75715  1.0000
  C   C775      1.0  0.36198  0.39495  0.86098  1.0000
  C   C776      1.0  0.36945  0.40931  0.88890  1.0000
  H   H583      1.0  0.33118  0.33736  0.95418  1.0000
  H   H584      1.0  0.34268  0.16557  0.93576  1.0000
  C   C777      1.0  0.36819  0.37122  0.89967  1.0000
  C   C778      1.0  0.32500  0.34202  0.84609  1.0000
  C   C779      1.0  0.31787  0.34601  0.87964  1.0000
  C   C780      1.0  0.29929  0.33395  0.89103  1.0000
  C   C781      1.0  0.28765  0.31788  0.86903  1.0000
  C   C782      1.0  0.29438  0.31419  0.83505  1.0000
  C   C783      1.0  0.31295  0.32629  0.82346  1.0000
  H   H585      1.0  0.36136  0.29459  0.85182  1.0000
  H   H586      1.0  0.39553  0.30852  0.83142  1.0000
  H   H587      1.0  0.41016  0.34345  0.81322  1.0000
  H   H588      1.0  0.39031  0.36423  0.81421  1.0000
  H   H589      1.0  0.34124  0.31483  0.85303  1.0000
  H   H590      1.0  0.32591  0.37767  0.80544  1.0000
  H   H591      1.0  0.32396  0.39268  0.74598  1.0000
  H   H592      1.0  0.34319  0.38876  0.69329  1.0000
  H   H593      1.0  0.36442  0.36948  0.70005  1.0000
  H   H594      1.0  0.36715  0.35495  0.75941  1.0000
  H   H595      1.0  0.35671  0.39903  0.83576  1.0000
  H   H596      1.0  0.36957  0.42398  0.88487  1.0000
  H   H597      1.0  0.36743  0.35643  0.90468  1.0000
  H   H598      1.0  0.32658  0.35826  0.89735  1.0000
  H   H599      1.0  0.29413  0.33686  0.91742  1.0000
  H   H600      1.0  0.27352  0.30818  0.87855  1.0000
  H   H601      1.0  0.28533  0.30174  0.81801  1.0000
  H   H602      1.0  0.31816  0.32309  0.79734  1.0000
  H   H603      1.0  0.43664  0.14764  0.92841  1.0000
  C   C784      1.0  0.34237  0.12140  0.83395  1.0000
  H   H604      1.0  0.38181  0.41580  0.94389  1.0000
  C   C785      1.0  0.35935  0.10631  0.68627  1.0000
  H   H605      1.0  0.40754  0.13273  0.74282  1.0000
  C   C786      1.0  0.26279  0.38188  0.75159  1.0000
  H   H606      1.0  0.37772  0.10085  0.64559  1.0000
  C   C787      1.0  0.33394  0.08133  0.82093  1.0000
  H   H607      1.0  0.38844  0.10431  0.81974  1.0000
  H   H608      1.0  0.29141  0.39028  0.77763  1.0000
  C   C788      1.0  0.43659  0.20763  0.56633  1.0000
  C   C789      1.0  0.43857  0.14115  0.51096  1.0000
  C   C790      1.0  0.43207  0.13859  0.84839  1.0000
  H   H609      1.0  0.44108  0.16987  0.84160  1.0000
  C   C791      1.0  0.26236  0.46591  0.88517  1.0000
  H   H610      1.0  0.31185  0.46376  0.53322  1.0000
  H   H611      1.0  0.36407  0.18833  0.72430  1.0000
  H   H612      1.0  0.41064  0.16749  0.80947  1.0000
  H   H613      1.0  0.35189  0.32278  0.50280  1.0000
  H   H614      1.0  0.40307  0.16749  0.52303  1.0000
  H   H615      1.0  0.45052  0.10475  0.57447  1.0000
  H   H616      1.0  0.40850  0.11813  0.68165  1.0000
  C   C792      1.0  0.44747  0.11525  0.55731  1.0000
  H   H617      1.0  0.43737  0.21910  0.58627  1.0000
  C   C793      1.0  0.35120  0.98709  0.85081  1.0000
  H   H618      1.0  0.26844  0.38429  0.72395  1.0000
  H   H619      1.0  0.27887  0.38474  0.84029  1.0000
  C   C794      1.0  0.42948  0.15559  0.83703  1.0000
  H   H620      1.0  0.25882  0.38470  0.54720  1.0000
  H   H621      1.0  0.33109  0.27818  0.92864  1.0000
  H   H622      1.0  0.42573  0.23787  0.96939  1.0000
  C   C795      1.0  0.36854  0.16437  0.75170  1.0000
  H   H623      1.0  0.46779  0.21792  0.55976  1.0000
  H   H624      1.0  0.31064  0.07641  0.85922  1.0000
  C   C796      1.0  0.35411  0.11558  0.81003  1.0000
  C   C797      1.0  0.30242  0.29519  0.98209  1.0000
  C   C798      1.0  0.31394  0.24782  0.57976  1.0000
  C   C799      1.0  0.29381  0.24310  0.57530  1.0000
  C   C800      1.0  0.28542  0.25607  0.58846  1.0000
  C   C801      1.0  0.29717  0.27375  0.60608  1.0000
  C   C802      1.0  0.31752  0.27882  0.60993  1.0000
  C   C803      1.0  0.32581  0.26562  0.59690  1.0000
  P   P27       1.0  0.33243  0.30156  0.63351  1.0000
  C   C804      1.0  0.33240  0.29788  0.68264  1.0000
  C   C805      1.0  0.35750  0.30913  0.61896  1.0000
  C   C806      1.0  0.37003  0.30099  0.63545  1.0000
  C   C807      1.0  0.38942  0.30657  0.62444  1.0000
  C   C808      1.0  0.39645  0.32025  0.59671  1.0000
  C   C809      1.0  0.38411  0.32847  0.58018  1.0000
  C   C810      1.0  0.36470  0.32295  0.59123  1.0000
  C   C811      1.0  0.34717  0.31126  0.70543  1.0000
  C   C812      1.0  0.34855  0.30747  0.74277  1.0000
  C   C813      1.0  0.33510  0.29042  0.75773  1.0000
  C   C814      1.0  0.32014  0.27723  0.73545  1.0000
  C   C815      1.0  0.31877  0.28090  0.69804  1.0000
  C   C816      1.0  0.32288  0.32016  0.62162  1.0000
  C   C817      1.0  0.32230  0.33422  0.64782  1.0000
  C   C818      1.0  0.31450  0.34825  0.63813  1.0000
  C   C819      1.0  0.30719  0.34829  0.60238  1.0000
  C   C820      1.0  0.30787  0.33446  0.57611  1.0000
  C   C821      1.0  0.31572  0.32049  0.58564  1.0000
  H   H625      1.0  0.32042  0.23780  0.56930  1.0000
  H   H626      1.0  0.28475  0.22944  0.56143  1.0000
  H   H627      1.0  0.26982  0.25247  0.58478  1.0000
  H   H628      1.0  0.29038  0.28354  0.61638  1.0000
  H   H629      1.0  0.34142  0.26908  0.59934  1.0000
  H   H630      1.0  0.36472  0.29007  0.65643  1.0000
  H   H631      1.0  0.39883  0.29984  0.63678  1.0000
  H   H632      1.0  0.41130  0.32410  0.58743  1.0000
  H   H633      1.0  0.38936  0.33860  0.55789  1.0000
  H   H634      1.0  0.35530  0.32907  0.57727  1.0000
  H   H635      1.0  0.35804  0.32427  0.69402  1.0000
  H   H636      1.0  0.36045  0.31737  0.75987  1.0000
  H   H637      1.0  0.33657  0.28711  0.78636  1.0000
  H   H638      1.0  0.30996  0.26382  0.74697  1.0000
  H   H639      1.0  0.30742  0.27015  0.68115  1.0000
  H   H640      1.0  0.32771  0.33435  0.67568  1.0000
  H   H641      1.0  0.31402  0.35910  0.65831  1.0000
  H   H642      1.0  0.30096  0.35902  0.59501  1.0000
  H   H643      1.0  0.30224  0.33446  0.54831  1.0000
  C   C822      1.0  0.37225  0.15716  0.78545  1.0000
  C   C823      1.0  0.24617  0.45381  0.69378  1.0000
  C   C824      1.0  0.34516  0.12696  0.49987  1.0000
  C   C825      1.0  0.27574  0.38525  0.78173  1.0000
  H   H644      1.0  0.29230  0.43708  0.90429  1.0000
  C   C826      1.0  0.35864  0.11452  0.72096  1.0000
  S   S103      1.0  0.33937  0.10099  0.49815  1.0000
  H   H645      1.0  0.41226  0.32837  0.50055  1.0000
  C   C827      1.0  0.39444  0.00765  0.98081  1.0000
  C   C828      1.0  0.45982  0.12401  0.52848  1.0000
  C   C829      1.0  0.39959  0.11877  0.82471  1.0000
  H   H646      1.0  0.24191  0.44318  0.67114  1.0000
  C   C830      1.0  0.34205  0.13573  0.93561  1.0000
  H   H647      1.0  0.31283  0.30067  0.92663  1.0000
  H   H648      1.0  0.25960  0.43799  0.82989  1.0000
  H   H649      1.0  0.36291  0.45387  0.59423  1.0000
  P   P28       1.0  0.23943  0.37337  0.86983  1.0000
  C   C831      1.0  0.36679  0.18272  0.75040  1.0000
  H   H650      1.0  0.38108  0.38207  0.95323  1.0000
  H   H651      1.0  0.31791  0.11185  0.87029  1.0000
  C   C832      1.0  0.39398  0.12552  0.72730  1.0000
  C   C833      1.0  0.37732  0.10769  0.67209  1.0000
  H   H652      1.0  0.33489  0.44363  0.55361  1.0000
  C   C834      1.0  0.24514  0.38646  0.54092  1.0000
  C   C835      1.0  0.42635  0.13246  0.54026  1.0000
  C   C836      1.0  0.24761  0.32550  0.91232  1.0000
  S   S104      1.0  0.43988  0.27230  0.48997  1.0000
  H   H653      1.0  0.33085  0.06583  0.81625  1.0000
  C   C837      1.0  0.34294  0.45105  0.53011  1.0000
  H   H654      1.0  0.37741  0.16360  0.84394  1.0000
  S   S105      1.0  0.42996  0.28116  0.98316  1.0000
  C   C838      1.0  0.37593  0.12390  0.74201  1.0000
  C   C839      1.0  0.41725  0.17865  0.53007  1.0000
  H   H655      1.0  0.33403  0.37203  0.96313  1.0000
  C   C840      1.0  0.28078  0.41960  0.95174  1.0000
  C   C841      1.0  0.41842  0.19331  0.55606  1.0000
  S   S106      1.0  0.36292  0.05925  0.97527  1.0000
  H   H656      1.0  0.27135  0.46134  0.61838  1.0000
  C   C842      1.0  0.35243  0.16794  0.49769  1.0000
  C   C843      1.0  0.36252  0.48084  0.49950  1.0000
  H   H657      1.0  0.29074  0.43017  0.97114  1.0000
  H   H658      1.0  0.42160  0.11552  0.95794  1.0000
  S   S107      1.0  0.37868  0.23618  0.97733  1.0000
  C   C844      1.0  0.23417  0.37730  0.50949  1.0000
  C   C845      1.0  0.33804  0.34556  0.97904  1.0000
  C   C846      1.0  0.33757  0.29128  0.50564  1.0000
  C   C847      1.0  0.34392  0.43988  0.49924  1.0000
  C   C848      1.0  0.31981  0.27535  0.49989  1.0000
  H   H659      1.0  0.27048  0.47569  0.82965  1.0000
  C   C849      1.0  0.32112  0.48283  0.62088  1.0000
  H   H660      1.0  0.22583  0.40251  0.96420  1.0000
  C   C850      1.0  0.33827  0.31034  0.49844  1.0000
  H   H661      1.0  0.31901  0.26061  0.50502  1.0000
  Fe  Fe54      1.0  0.36262  0.48108  0.75639  1.0000
  H   H662      1.0  0.33653  0.42399  0.49904  1.0000
  H   H663      1.0  0.29897  0.48042  0.66066  1.0000
  C   C851      1.0  0.32509  0.47794  0.58519  1.0000
  H   H664      1.0  0.22731  0.29545  0.91310  1.0000
  H   H665      1.0  0.29521  0.47394  0.95683  1.0000
  H   H666      1.0  0.30358  0.99489  0.97261  1.0000
  C   C852      1.0  0.30184  0.47684  0.63279  1.0000
  H   H667      1.0  0.23257  0.37222  0.73368  1.0000
  C   C853      1.0  0.22981  0.31016  0.90384  1.0000
  S   S108      1.0  0.33372  0.25094  0.98536  1.0000
  S   S109      1.0  0.29470  0.48211  0.75878  1.0000
  C   C854      1.0  0.25739  0.48151  0.75158  1.0000
  H   H668      1.0  0.22830  0.48204  0.74551  1.0000
  H   H669      1.0  0.47254  0.12037  0.52352  1.0000
  C   C855      1.0  0.30285  0.48227  0.90091  1.0000
  C   C856      1.0  0.36521  0.48355  0.60842  1.0000
  C   C857      1.0  0.29578  0.48279  0.86520  1.0000
  H   H670      1.0  0.23940  0.36862  0.49120  1.0000
  C   C858      1.0  0.30294  0.27853  0.48771  1.0000
  S   S110      1.0  0.38140  0.24929  0.48722  1.0000
  C   C859      1.0  0.23127  0.79417  0.45319  1.0000
  Fe  Fe55      1.0  0.28510  0.87357  0.09008  1.0000
  S   S111      1.0  0.25723  0.87786  0.07562  1.0000
  S   S112      1.0  0.29765  0.87315  0.14832  1.0000
  C   C860      1.0  0.24075  0.81094  0.12019  1.0000
  Fe  Fe56      1.0  0.27457  0.89625  0.02883  1.0000
  C   C861      1.0  0.29385  0.94715  0.99697  1.0000
  S   S113      1.0  0.27770  0.84659  0.05338  1.0000
  S   S114      1.0  0.30268  0.89317  0.04560  1.0000
  Fe  Fe57      1.0  0.26475  0.89438  0.44455  1.0000
  S   S115      1.0  0.29057  0.89124  0.41756  1.0000
  C   C862      1.0  0.25039  0.92928  0.32929  1.0000
  C   C863      1.0  0.32053  0.94380  0.08809  1.0000
  S   S116      1.0  0.26077  0.84828  0.38546  1.0000
  Fe  Fe58      1.0  0.27802  0.86024  0.43844  1.0000
  Fe  Fe59      1.0  0.27066  0.87963  0.36736  1.0000
  S   S117      1.0  0.27511  0.89280  0.30951  1.0000
  S   S118      1.0  0.24525  0.88435  0.39382  1.0000
  C   C864      1.0  0.28792  0.94461  0.48213  1.0000
  H   H671      1.0  0.27767  0.96625  0.00019  1.0000
  H   H672      1.0  0.30626  0.93606  0.44586  1.0000
  C   C865      1.0  0.27947  0.88497  0.26495  1.0000
  C   C866      1.0  0.29135  0.87412  0.25978  1.0000
  C   C867      1.0  0.29656  0.87053  0.22392  1.0000
  C   C868      1.0  0.28945  0.87708  0.19263  1.0000
  C   C869      1.0  0.27696  0.88729  0.19773  1.0000
  C   C870      1.0  0.27236  0.89155  0.23367  1.0000
  H   H673      1.0  0.29722  0.86924  0.28346  1.0000
  H   H674      1.0  0.30634  0.86273  0.22040  1.0000
  H   H675      1.0  0.27145  0.89255  0.17405  1.0000
  S   S119      1.0  0.26491  0.87036  0.98845  1.0000
  H   H676      1.0  0.22905  0.80454  0.39890  1.0000
  H   H677      1.0  0.33019  0.91477  0.39483  1.0000
  C   C871      1.0  0.34708  0.95059  0.13282  1.0000
  C   C872      1.0  0.26937  0.93847  0.31620  1.0000
  C   C873      1.0  0.32098  0.93511  0.36505  1.0000
  H   H678      1.0  0.29295  0.95730  0.39768  1.0000
  C   C874      1.0  0.34497  0.97698  0.09551  1.0000
  H   H679      1.0  0.26346  0.90026  0.23729  1.0000
  C   C875      1.0  0.33017  0.93727  0.11517  1.0000
  H   H680      1.0  0.36779  0.98040  0.13650  1.0000
  H   H681      1.0  0.35457  0.94543  0.15369  1.0000
  C   C876      1.0  0.26095  0.78860  0.46738  1.0000
  C   C877      1.0  0.33393  0.92994  0.38724  1.0000
  Fe  Fe60      1.0  0.25033  0.85156  0.03662  1.0000
  H   H682      1.0  0.31376  0.93226  0.98945  1.0000
  S   S120      1.0  0.29592  0.84467  0.46643  1.0000
  P   P29       1.0  0.30967  0.96108  0.32405  1.0000
  H   H683      1.0  0.26118  0.80435  0.37971  1.0000
  H   H684      1.0  0.23960  0.80293  0.09434  1.0000
  H   H685      1.0  0.36141  0.94033  0.41764  1.0000
  C   C878      1.0  0.24400  0.83295  0.18528  1.0000
  C   C879      1.0  0.30245  0.95939  0.24810  1.0000
  C   C880      1.0  0.31899  0.98229  0.48473  1.0000
  H   H686      1.0  0.27371  0.83416  0.18847  1.0000
  H   H687      1.0  0.27100  0.81526  0.13040  1.0000
  C   C881      1.0  0.31667  0.92961  0.23449  1.0000
  C   C882      1.0  0.25838  0.81785  0.14044  1.0000
  C   C883      1.0  0.25004  0.78239  0.00213  1.0000
  C   C884      1.0  0.32795  0.96351  0.07813  1.0000
  S   S121      1.0  0.27458  0.92689  0.01634  1.0000
  C   C885      1.0  0.23457  0.81276  0.28157  1.0000
  H   H688      1.0  0.32703  0.91363  0.46609  1.0000
  C   C886      1.0  0.29128  0.96508  0.99221  1.0000
  H   H689      1.0  0.27172  0.93652  0.28741  1.0000
  H   H690      1.0  0.26048  0.78884  0.02457  1.0000
  H   H691      1.0  0.30719  0.92381  0.35585  1.0000
  C   C887      1.0  0.28119  0.95004  0.37805  1.0000
  C   C888      1.0  0.34387  0.96897  0.36673  1.0000
  H   H692      1.0  0.25942  0.94194  0.42000  1.0000
  C   C889      1.0  0.35659  0.96384  0.38955  1.0000
  C   C890      1.0  0.30850  0.93661  0.20570  1.0000
  H   H693      1.0  0.23817  0.79734  0.23303  1.0000
  H   H694      1.0  0.23451  0.87690  0.28551  1.0000
  C   C891      1.0  0.25584  0.79952  0.40688  1.0000
  H   H695      1.0  0.36376  0.96570  0.29154  1.0000
  C   C892      1.0  0.26217  0.94113  0.39092  1.0000
  H   H696      1.0  0.29614  0.97036  0.25318  1.0000
  C   C893      1.0  0.32034  0.96657  0.46369  1.0000
  H   H697      1.0  0.35205  0.96965  0.22887  1.0000
  C   C894      1.0  0.35162  0.94432  0.39979  1.0000
  H   H698      1.0  0.24423  0.75250  0.01730  1.0000
  H   H699      1.0  0.24733  0.82594  0.27676  1.0000
  H   H700      1.0  0.30740  0.93356  0.07429  1.0000
  H   H701      1.0  0.33338  0.96890  0.44820  1.0000
  Fe  Fe61      1.0  0.23615  0.85337  0.41410  1.0000
  C   C895      1.0  0.32593  0.95466  0.35441  1.0000
  H   H702      1.0  0.32455  0.92183  0.12229  1.0000
  C   C896      1.0  0.31767  0.93741  0.27019  1.0000
  H   H703      1.0  0.28197  0.79515  0.42414  1.0000
  C   C897      1.0  0.24677  0.93076  0.36658  1.0000
  C   C898      1.0  0.25990  0.82861  0.17316  1.0000
  C   C899      1.0  0.30499  0.94787  0.46243  1.0000
  C   C900      1.0  0.22938  0.79665  0.25701  1.0000
  H   H704      1.0  0.30690  0.92986  0.17848  1.0000
  H   H705      1.0  0.32327  0.93106  0.29210  1.0000
  H   H706      1.0  0.32134  0.91743  0.22946  1.0000
  C   C901      1.0  0.31057  0.95240  0.27735  1.0000
  C   C902      1.0  0.28495  0.94921  0.34045  1.0000
  C   C903      1.0  0.35450  0.97040  0.12305  1.0000
  H   H707      1.0  0.23858  0.92064  0.31061  1.0000
  Fe  Fe62      1.0  0.29234  0.86651  0.00741  1.0000
  C   C904      1.0  0.26750  0.79420  0.43184  1.0000
  C   C905      1.0  0.30153  0.95160  0.21241  1.0000
  H   H708      1.0  0.32054  0.96814  0.05632  1.0000
  H   H709      1.0  0.24589  0.84173  0.21021  1.0000
  C   C906      1.0  0.36794  0.98025  0.28016  1.0000
  C   C907      1.0  0.23776  0.79958  0.41763  1.0000
  S   S122      1.0  0.25295  0.86376  0.46779  1.0000
  C   C908      1.0  0.24088  0.76195  0.99799  1.0000
  S   S123      1.0  0.26776  0.92148  0.48028  1.0000
  H   H710      1.0  0.23226  0.86641  0.22004  1.0000
  C   C909      1.0  0.36135  0.98247  0.24485  1.0000
  H   H711      1.0  0.29479  0.95666  0.19014  1.0000
  H   H712      1.0  0.35828  0.97307  0.02666  1.0000
  C   C910      1.0  0.22623  0.82615  0.16497  1.0000
  H   H713      1.0  0.22702  0.82450  0.33117  1.0000
  C   C911      1.0  0.24255  0.78817  0.47824  1.0000
  H   H714      1.0  0.33902  0.88652  0.47557  1.0000
  H   H715      1.0  0.37015  0.97507  0.39980  1.0000
  H   H716      1.0  0.23214  0.92344  0.37688  1.0000
  S   S124      1.0  0.22508  0.82117  0.03159  1.0000
  C   C912      1.0  0.22473  0.81494  0.13248  1.0000
  H   H717      1.0  0.34041  0.90399  0.98756  1.0000
  H   H718      1.0  0.37585  0.92489  0.98779  1.0000
  C   C913      1.0  0.28899  0.90909  0.59829  1.0000
  C   C914      1.0  0.25091  0.80456  0.72224  1.0000
  H   H719      1.0  0.33982  0.96100  0.96269  1.0000
  S   S125      1.0  0.38994  0.51039  0.76536  1.0000
  H   H720      1.0  0.25544  0.82407  0.52420  1.0000
  H   H721      1.0  0.28384  0.80169  0.62657  1.0000
  Fe  Fe63      1.0  0.35316  0.81845  0.71972  1.0000
  S   S126      1.0  0.33921  0.84119  0.72772  1.0000
  S   S127      1.0  0.38724  0.83000  0.72361  1.0000
  Fe  Fe64      1.0  0.31319  0.78579  0.70406  1.0000
  S   S128      1.0  0.29713  0.80586  0.71114  1.0000
  S   S129      1.0  0.29583  0.75411  0.68596  1.0000
  Fe  Fe65      1.0  0.32029  0.82734  0.67754  1.0000
  S   S130      1.0  0.30781  0.84537  0.64122  1.0000
  Fe  Fe66      1.0  0.31655  0.81850  0.76090  1.0000
  S   S131      1.0  0.29752  0.82427  0.80554  1.0000
  S   S132      1.0  0.33561  0.80638  0.66683  1.0000
  S   S133      1.0  0.33125  0.79643  0.75631  1.0000
  C   C915      1.0  0.25654  0.81809  0.69394  1.0000
  H   H722      1.0  0.34073  0.54678  0.53503  1.0000
  C   C916      1.0  0.25179  0.73508  0.75951  1.0000
  H   H723      1.0  0.45910  0.54086  0.61438  1.0000
  H   H724      1.0  0.25152  0.91512  0.92901  1.0000
  S   S134      1.0  0.46117  0.80299  0.74214  1.0000
  C   C917      1.0  0.23243  0.79204  0.82696  1.0000
  H   H725      1.0  0.28506  0.90474  0.53902  1.0000
  H   H726      1.0  0.24767  0.74054  0.78457  1.0000
  C   C918      1.0  0.30875  0.95646  0.60174  1.0000
  C   C919      1.0  0.32631  0.96231  0.97093  1.0000
  H   H727      1.0  0.24272  0.76229  0.64641  1.0000
  C   C920      1.0  0.35835  0.51163  0.55904  1.0000
  H   H728      1.0  0.39328  0.82840  0.80486  1.0000
  H   H729      1.0  0.25488  0.73732  0.62384  1.0000
  H   H730      1.0  0.28038  0.75069  0.56287  1.0000
  C   C921      1.0  0.30956  0.85211  0.92267  1.0000
  C   C922      1.0  0.29094  0.84632  0.90594  1.0000
  C   C923      1.0  0.28770  0.83833  0.86974  1.0000
  C   C924      1.0  0.30299  0.83608  0.84978  1.0000
  C   C925      1.0  0.32172  0.84239  0.86613  1.0000
  C   C926      1.0  0.32494  0.85029  0.90240  1.0000
  H   H731      1.0  0.27898  0.84769  0.92111  1.0000
  H   H732      1.0  0.27316  0.83358  0.85734  1.0000
  H   H733      1.0  0.33367  0.84107  0.85099  1.0000
  H   H734      1.0  0.33943  0.85485  0.91500  1.0000
  C   C927      1.0  0.30382  0.84400  0.59266  1.0000
  C   C928      1.0  0.29364  0.85491  0.57689  1.0000
  C   C929      1.0  0.29109  0.85520  0.53840  1.0000
  C   C930      1.0  0.29836  0.84427  0.51516  1.0000
  C   C931      1.0  0.30813  0.83299  0.53094  1.0000
  C   C932      1.0  0.31091  0.83289  0.56947  1.0000
  H   H735      1.0  0.28801  0.86352  0.59441  1.0000
  H   H736      1.0  0.28382  0.86419  0.52670  1.0000
  C   C933      1.0  0.30605  0.98145  0.97679  1.0000
  H   H737      1.0  0.31876  0.82441  0.58115  1.0000
  C   C934      1.0  0.40746  0.82187  0.72776  1.0000
  C   C935      1.0  0.40502  0.80245  0.73565  1.0000
  C   C936      1.0  0.42153  0.79705  0.73991  1.0000
  C   C937      1.0  0.44083  0.81080  0.73580  1.0000
  C   C938      1.0  0.44326  0.83018  0.72758  1.0000
  C   C939      1.0  0.42677  0.83565  0.72394  1.0000
  H   H738      1.0  0.39039  0.79159  0.73865  1.0000
  H   H739      1.0  0.41930  0.78201  0.74615  1.0000
  H   H740      1.0  0.45786  0.84100  0.72410  1.0000
  H   H741      1.0  0.42900  0.85070  0.71777  1.0000
  C   C940      1.0  0.27423  0.74002  0.70890  1.0000
  C   C941      1.0  0.26331  0.72073  0.69621  1.0000
  C   C942      1.0  0.24656  0.70872  0.71478  1.0000
  C   C943      1.0  0.26822  0.74728  0.74034  1.0000
  H   H742      1.0  0.26796  0.71497  0.67209  1.0000
  C   C944      1.0  0.25864  0.89796  0.63211  1.0000
  H   H743      1.0  0.27663  0.76203  0.75059  1.0000
  C   C945      1.0  0.41383  0.52804  0.75374  1.0000
  C   C946      1.0  0.42143  0.54649  0.77243  1.0000
  C   C947      1.0  0.43987  0.56100  0.76364  1.0000
  C   C948      1.0  0.45119  0.55742  0.73576  1.0000
  C   C949      1.0  0.44372  0.53889  0.71751  1.0000
  C   C950      1.0  0.42534  0.52438  0.72634  1.0000
  H   H744      1.0  0.41294  0.54963  0.79389  1.0000
  H   H745      1.0  0.44527  0.57500  0.77840  1.0000
  H   H746      1.0  0.45230  0.53566  0.69634  1.0000
  H   H747      1.0  0.42027  0.51027  0.71215  1.0000
  C   C951      1.0  0.27521  0.76248  0.56828  1.0000
  C   C952      1.0  0.23147  0.78645  0.94947  1.0000
  C   C953      1.0  0.25757  0.89427  0.56577  1.0000
  C   C954      1.0  0.23025  0.79603  0.65490  1.0000
  H   H748      1.0  0.27794  0.80380  0.92640  1.0000
  C   C955      1.0  0.24157  0.82144  0.53722  1.0000
  H   H749      1.0  0.32918  0.51166  0.55000  1.0000
  C   C956      1.0  0.33961  0.95876  0.57568  1.0000
  H   H750      1.0  0.30590  0.48922  0.84328  1.0000
  H   H751      1.0  0.26060  0.88672  0.91274  1.0000
  H   H752      1.0  0.24930  0.89003  0.53996  1.0000
  C   C957      1.0  0.32465  0.91142  0.55960  1.0000
  C   C958      1.0  0.27802  0.90278  0.56533  1.0000
  H   H753      1.0  0.25112  0.89628  0.65796  1.0000
  H   H754      1.0  0.26181  0.49255  0.77352  1.0000
  C   C959      1.0  0.27711  0.79114  0.60432  1.0000
  H   H755      1.0  0.33300  0.89097  0.59184  1.0000
  C   C960      1.0  0.28360  0.77585  0.59736  1.0000
  P   P30       1.0  0.23401  0.78182  0.52461  1.0000
  C   C961      1.0  0.26014  0.76424  0.54645  1.0000
  H   H756      1.0  0.33588  0.80956  0.84996  1.0000
  C   C962      1.0  0.28664  0.96025  0.50356  1.0000
  H   H757      1.0  0.25796  0.80539  0.58788  1.0000
  H   H758      1.0  0.29478  0.94806  0.61353  1.0000
  H   H759      1.0  0.32262  0.88075  0.69977  1.0000
  H   H760      1.0  0.36421  0.83541  0.82285  1.0000
  H   H761      1.0  0.34506  0.94808  0.65000  1.0000
  H   H762      1.0  0.25376  0.75372  0.52406  1.0000
  P   P31       1.0  0.31536  0.92132  0.59763  1.0000
  C   C963      1.0  0.34758  0.93017  0.69432  1.0000
  H   H763      1.0  0.25196  0.81046  0.98186  1.0000
  C   C964      1.0  0.26226  0.79313  0.58225  1.0000
  H   H764      1.0  0.47249  0.57711  0.62332  1.0000
  C   C965      1.0  0.23495  0.78674  0.71694  1.0000
  H   H765      1.0  0.23201  0.88547  0.59928  1.0000
  C   C966      1.0  0.24620  0.81385  0.66032  1.0000
  S   S135      1.0  0.31422  0.86117  0.96896  1.0000
  C   C967      1.0  0.32727  0.89553  0.68925  1.0000
  H   H766      1.0  0.22750  0.79622  0.93189  1.0000
  C   C968      1.0  0.24093  0.71575  0.74685  1.0000
  C   C969      1.0  0.33990  0.93334  0.66059  1.0000
  C   C970      1.0  0.34131  0.91127  0.70860  1.0000
  P   P32       1.0  0.35017  0.48591  0.57034  1.0000
  H   H767      1.0  0.23844  0.69380  0.70505  1.0000
  H   H768      1.0  0.34359  0.97189  0.76107  1.0000
  H   H769      1.0  0.35856  0.94237  0.70921  1.0000
  H   H770      1.0  0.37631  0.56698  0.53483  1.0000
  C   C971      1.0  0.22690  0.48395  0.83759  1.0000
  H   H771      1.0  0.27357  0.95793  0.51904  1.0000
  H   H772      1.0  0.33290  0.49124  0.63966  1.0000
  H   H773      1.0  0.25938  0.80766  0.74791  1.0000
  H   H774      1.0  0.26931  0.83162  0.69768  1.0000
  H   H775      1.0  0.29519  0.77443  0.61451  1.0000
  C   C972      1.0  0.30202  0.97898  0.50479  1.0000
  C   C973      1.0  0.33196  0.89646  0.56481  1.0000
  C   C974      1.0  0.24787  0.89181  0.59912  1.0000
  H   H776      1.0  0.38922  0.51672  0.56487  1.0000
  C   C975      1.0  0.22679  0.48570  0.90418  1.0000
  C   C976      1.0  0.33616  0.95136  0.84599  1.0000
  C   C977      1.0  0.33613  0.95259  0.80741  1.0000
  P   P33       1.0  0.32600  0.92782  0.86819  1.0000
  C   C978      1.0  0.34180  0.92710  0.90633  1.0000
  C   C979      1.0  0.30196  0.92389  0.88544  1.0000
  C   C980      1.0  0.29649  0.93984  0.89399  1.0000
  C   C981      1.0  0.27823  0.93661  0.90909  1.0000
  C   C982      1.0  0.26533  0.91750  0.91596  1.0000
  C   C983      1.0  0.27052  0.90153  0.90705  1.0000
  C   C984      1.0  0.28874  0.90467  0.89188  1.0000
  C   C985      1.0  0.33420  0.91457  0.93586  1.0000
  C   C986      1.0  0.22703  0.75373  0.96950  1.0000
  C   C987      1.0  0.36641  0.92557  0.96511  1.0000
  C   C988      1.0  0.37418  0.93787  0.93561  1.0000
  C   C989      1.0  0.36196  0.93856  0.90622  1.0000
  C   C990      1.0  0.32366  0.90800  0.83588  1.0000
  C   C991      1.0  0.30795  0.90160  0.81017  1.0000
  C   C992      1.0  0.30560  0.88585  0.78585  1.0000
  C   C993      1.0  0.31891  0.87642  0.78697  1.0000
  C   C994      1.0  0.33470  0.88283  0.81214  1.0000
  C   C995      1.0  0.33708  0.89853  0.83660  1.0000
  C   C996      1.0  0.31941  0.89868  0.65580  1.0000
  H   H777      1.0  0.47118  0.81284  0.82049  1.0000
  H   H778      1.0  0.38970  0.94677  0.93539  1.0000
  H   H779      1.0  0.33034  0.93951  0.79001  1.0000
  H   H780      1.0  0.30638  0.95484  0.89009  1.0000
  H   H781      1.0  0.27436  0.94902  0.91671  1.0000
  C   C997      1.0  0.37850  0.52317  0.55870  1.0000
  C   C998      1.0  0.38494  0.54310  0.55028  1.0000
  H   H782      1.0  0.29270  0.89210  0.88613  1.0000
  H   H783      1.0  0.31887  0.90513  0.93647  1.0000
  H   H784      1.0  0.28716  0.91185  0.65746  1.0000
  H   H785      1.0  0.34743  0.90875  0.73447  1.0000
  C   C999      1.0  0.35263  0.73922  0.95691  1.0000
  H   H786      1.0  0.36831  0.94795  0.88336  1.0000
  H   H787      1.0  0.29739  0.90865  0.80925  1.0000
  H   H788      1.0  0.29330  0.88073  0.76647  1.0000
  H   H789      1.0  0.31680  0.86388  0.76877  1.0000
  H   H790      1.0  0.34482  0.87526  0.81324  1.0000
  H   H791      1.0  0.34920  0.90297  0.85634  1.0000
  C   C1000     1.0  0.35407  0.53784  0.66786  1.0000
  C   C1001     1.0  0.35499  0.53374  0.70511  1.0000
  C   C1002     1.0  0.37189  0.54405  0.72615  1.0000
  C   C1003     1.0  0.38786  0.55854  0.71014  1.0000
  C   C1004     1.0  0.38699  0.56299  0.67289  1.0000
  C   C1005     1.0  0.37011  0.55220  0.65164  1.0000
  P   P34       1.0  0.40832  0.58054  0.65168  1.0000
  C   C1006     1.0  0.40138  0.59130  0.61208  1.0000
  C   C1007     1.0  0.42094  0.60015  0.68473  1.0000
  C   C1008     1.0  0.43525  0.59838  0.70878  1.0000
  C   C1009     1.0  0.44521  0.61342  0.73426  1.0000
  C   C1010     1.0  0.44090  0.63039  0.73612  1.0000
  C   C1011     1.0  0.42660  0.63230  0.71248  1.0000
  C   C1012     1.0  0.41659  0.61723  0.68693  1.0000
  C   C1013     1.0  0.41351  0.59650  0.58144  1.0000
  C   C1014     1.0  0.40853  0.60563  0.55156  1.0000
  C   C1015     1.0  0.39143  0.60967  0.55203  1.0000
  C   C1016     1.0  0.37928  0.60456  0.58240  1.0000
  C   C1017     1.0  0.38424  0.59547  0.61237  1.0000
  C   C1018     1.0  0.42428  0.56804  0.63822  1.0000
  C   C1019     1.0  0.41682  0.54751  0.63306  1.0000
  C   C1020     1.0  0.42928  0.53777  0.62401  1.0000
  C   C1021     1.0  0.44931  0.54845  0.62014  1.0000
  C   C1022     1.0  0.45685  0.56889  0.62501  1.0000
  C   C1023     1.0  0.44440  0.57869  0.63378  1.0000
  H   H792      1.0  0.34103  0.52966  0.65152  1.0000
  H   H793      1.0  0.34273  0.52239  0.71770  1.0000
  H   H794      1.0  0.37279  0.54051  0.75484  1.0000
  H   H795      1.0  0.40097  0.56595  0.72685  1.0000
  H   H796      1.0  0.36937  0.55466  0.62250  1.0000
  H   H797      1.0  0.43881  0.58540  0.70776  1.0000
  H   H798      1.0  0.45636  0.61192  0.75246  1.0000
  H   H799      1.0  0.44868  0.64207  0.75586  1.0000
  H   H800      1.0  0.42336  0.64553  0.71399  1.0000
  H   H801      1.0  0.40557  0.61908  0.66909  1.0000
  H   H802      1.0  0.42698  0.59382  0.58069  1.0000
  H   H803      1.0  0.41808  0.60980  0.52819  1.0000
  H   H804      1.0  0.38771  0.61695  0.52902  1.0000
  H   H805      1.0  0.36614  0.60792  0.58299  1.0000
  H   H806      1.0  0.37491  0.59206  0.63609  1.0000
  H   H807      1.0  0.40150  0.53894  0.63687  1.0000
  H   H808      1.0  0.42352  0.52186  0.62122  1.0000
  H   H809      1.0  0.34371  0.96829  0.89721  1.0000
  C   C1024     1.0  0.32324  0.91772  0.52375  1.0000
  H   H810      1.0  0.45062  0.59451  0.63818  1.0000
  C   C1025     1.0  0.28527  0.79053  0.87851  1.0000
  C   C1026     1.0  0.28697  0.79631  0.91562  1.0000
  C   C1027     1.0  0.30097  0.79325  0.93840  1.0000
  C   C1028     1.0  0.31321  0.78430  0.92414  1.0000
  C   C1029     1.0  0.31150  0.77837  0.88685  1.0000
  C   C1030     1.0  0.29761  0.78182  0.86404  1.0000
  P   P35       1.0  0.32808  0.76813  0.86712  1.0000
  C   C1031     1.0  0.33741  0.75661  0.90236  1.0000
  C   C1032     1.0  0.31459  0.75008  0.83212  1.0000
  C   C1033     1.0  0.32269  0.74931  0.79766  1.0000
  C   C1034     1.0  0.31193  0.73544  0.77078  1.0000
  C   C1035     1.0  0.29310  0.72216  0.77814  1.0000
  C   C1036     1.0  0.28480  0.72297  0.81209  1.0000
  C   C1037     1.0  0.29546  0.73690  0.83898  1.0000
  C   C1038     1.0  0.35307  0.76826  0.92554  1.0000
  C   C1039     1.0  0.23280  0.74704  0.64499  1.0000
  C   C1040     1.0  0.31378  0.97664  0.59688  1.0000
  C   C1041     1.0  0.33709  0.72751  0.93393  1.0000
  C   C1042     1.0  0.32949  0.73614  0.90673  1.0000
  C   C1043     1.0  0.34882  0.78746  0.84807  1.0000
  C   C1044     1.0  0.36550  0.78370  0.83827  1.0000
  C   C1045     1.0  0.38152  0.79848  0.82302  1.0000
  C   C1046     1.0  0.38107  0.81712  0.81765  1.0000
  C   C1047     1.0  0.36466  0.82106  0.82780  1.0000
  C   C1048     1.0  0.34859  0.80631  0.84307  1.0000
  H   H811      1.0  0.27509  0.79371  0.86038  1.0000
  H   H812      1.0  0.34235  0.87575  0.53872  1.0000
  H   H813      1.0  0.24809  0.85223  0.54757  1.0000
  H   H814      1.0  0.32415  0.78241  0.94215  1.0000
  H   H815      1.0  0.29663  0.77831  0.83477  1.0000
  H   H816      1.0  0.33710  0.75959  0.79093  1.0000
  H   H817      1.0  0.31795  0.73534  0.74377  1.0000
  H   H818      1.0  0.28468  0.71166  0.75699  1.0000
  H   H819      1.0  0.26988  0.71310  0.81703  1.0000
  H   H820      1.0  0.28873  0.73749  0.86501  1.0000
  H   H821      1.0  0.35945  0.78408  0.92262  1.0000
  C   C1049     1.0  0.35128  0.54020  0.54183  1.0000
  H   H822      1.0  0.33098  0.71170  0.93706  1.0000
  C   C1050     1.0  0.36061  0.75959  0.95271  1.0000
  H   H823      1.0  0.31759  0.72673  0.88914  1.0000
  H   H824      1.0  0.36597  0.76925  0.84179  1.0000
  H   H825      1.0  0.39419  0.79544  0.81461  1.0000
  H   H826      1.0  0.36934  0.51200  0.63279  1.0000
  C   C1051     1.0  0.25348  0.77959  0.55326  1.0000
  C   C1052     1.0  0.34478  0.52027  0.55039  1.0000
  H   H827      1.0  0.35854  0.73251  0.97788  1.0000
  C   C1053     1.0  0.32867  0.90899  0.49362  1.0000
  C   C1054     1.0  0.27911  0.90669  0.63172  1.0000
  C   C1055     1.0  0.22800  0.80216  0.54111  1.0000
  H   H828      1.0  0.25090  0.82425  0.63823  1.0000
  H   H829      1.0  0.36976  0.49665  0.49876  1.0000
  C   C1056     1.0  0.37133  0.55160  0.54173  1.0000
  S   S136      1.0  0.47430  0.57550  0.72159  1.0000
  H   H830      1.0  0.40050  0.55193  0.55017  1.0000
  H   H831      1.0  0.30263  0.79830  0.96691  1.0000
  H   H832      1.0  0.31383  0.82449  0.51325  1.0000
  H   H833      1.0  0.31738  0.92902  0.51898  1.0000
  H   H834      1.0  0.30856  0.88629  0.64121  1.0000
  H   H835      1.0  0.34982  0.95211  0.56738  1.0000
  H   H836      1.0  0.31850  0.48828  0.90675  1.0000
  H   H837      1.0  0.24749  0.79955  0.81874  1.0000
  H   H838      1.0  0.23464  0.73967  0.89881  1.0000
  C   C1057     1.0  0.32163  0.94735  0.59112  1.0000
  H   H839      1.0  0.38870  0.50878  0.68593  1.0000
  H   H840      1.0  0.24037  0.77897  0.87387  1.0000
  H   H841      1.0  0.23300  0.70210  0.62055  1.0000
  C   C1058     1.0  0.32575  0.91757  0.64100  1.0000
  C   C1059     1.0  0.23973  0.73292  0.63168  1.0000
  C   C1060     1.0  0.33742  0.88778  0.53459  1.0000
  C   C1061     1.0  0.23739  0.83743  0.55026  1.0000
  C   C1062     1.0  0.37260  0.49887  0.63487  1.0000
  H   H842      1.0  0.30375  0.98362  0.60471  1.0000
  H   H843      1.0  0.23424  0.70875  0.87007  1.0000
  C   C1063     1.0  0.33556  0.89387  0.49899  1.0000
  C   C1064     1.0  0.34367  0.97096  0.79080  1.0000
  H   H844      1.0  0.23773  0.64322  0.85463  1.0000
  C   C1065     1.0  0.34373  0.96879  0.86747  1.0000
  H   H845      1.0  0.22756  0.62880  0.91591  1.0000
  C   C1066     1.0  0.38363  0.49709  0.66518  1.0000
  C   C1067     1.0  0.34448  0.97889  0.57053  1.0000
  C   C1068     1.0  0.34645  0.91388  0.96512  1.0000
  C   C1069     1.0  0.31152  0.94590  0.98619  1.0000
  C   C1070     1.0  0.22746  0.71304  0.63019  1.0000
  H   H846      1.0  0.37908  0.97642  0.97299  1.0000
  C   C1071     1.0  0.24532  0.79460  0.97790  1.0000
  H   H847      1.0  0.23133  0.77629  0.73888  1.0000
  H   H848      1.0  0.37270  0.76868  0.97044  1.0000
  C   C1072     1.0  0.22839  0.78051  0.85833  1.0000
  H   H849      1.0  0.46708  0.84229  0.79587  1.0000
  C   C1073     1.0  0.32379  0.98028  0.96626  1.0000
  H   H850      1.0  0.27074  0.78544  0.48638  1.0000
  H   H851      1.0  0.48134  0.04711  0.29648  1.0000
  S   S137      1.0  0.49127  0.13297  0.18911  1.0000
  H   H852      1.0  0.57707  0.35525  0.15749  1.0000
  H   H853      1.0  0.60050  0.43217  0.32877  1.0000
  S   S138      1.0  0.49583  0.14204  0.28021  1.0000
  H   H854      1.0  0.57748  0.08247  0.37667  1.0000
  H   H855      1.0  0.62175  0.02179  0.38253  1.0000
  C   C1074     1.0  0.63459  0.40235  0.02373  1.0000
  Fe  Fe67      1.0  0.50225  0.12156  0.23914  1.0000
  S   S139      1.0  0.52949  0.11302  0.23402  1.0000
  C   C1075     1.0  0.47509  0.22153  0.33009  1.0000
  Fe  Fe68      1.0  0.65107  0.13748  0.24413  1.0000
  S   S140      1.0  0.65543  0.10864  0.24914  1.0000
  S   S141      1.0  0.62354  0.14445  0.25757  1.0000
  Fe  Fe69      1.0  0.69428  0.15951  0.22441  1.0000
  S   S142      1.0  0.70137  0.13245  0.22818  1.0000
  Fe  Fe70      1.0  0.67308  0.11695  0.19743  1.0000
  S   S143      1.0  0.67274  0.09284  0.15652  1.0000
  Fe  Fe71      1.0  0.68377  0.12586  0.27971  1.0000
  S   S144      1.0  0.69615  0.11028  0.32172  1.0000
  S   S145      1.0  0.66668  0.14439  0.19001  1.0000
  S   S146      1.0  0.67868  0.15438  0.27842  1.0000
  H   H856      1.0  0.70425  0.19315  0.12216  1.0000
  C   C1076     1.0  0.62439  0.04119  0.05187  1.0000
  Fe  Fe72      1.0  0.64607  0.46404  0.24899  1.0000
  H   H857      1.0  0.69487  0.98664  0.43118  1.0000
  S   S147      1.0  0.62034  0.43352  0.25429  1.0000
  H   H858      1.0  0.54103  0.39941  0.35777  1.0000
  S   S148      1.0  0.66395  0.46930  0.19732  1.0000
  S   S149      1.0  0.67242  0.46946  0.28728  1.0000
  Fe  Fe73      1.0  0.50919  0.29149  0.24570  1.0000
  H   H859      1.0  0.64690  0.03055  0.26132  1.0000
  S   S150      1.0  0.52537  0.27071  0.25374  1.0000
  Fe  Fe74      1.0  0.51290  0.33408  0.23760  1.0000
  C   C1077     1.0  0.64035  0.06716  0.44350  1.0000
  S   S151      1.0  0.53260  0.36733  0.23278  1.0000
  C   C1078     1.0  0.62635  0.05653  0.11208  1.0000
  H   H860      1.0  0.65267  0.10292  0.37980  1.0000
  C   C1079     1.0  0.58499  0.08555  0.35077  1.0000
  C   C1080     1.0  0.48413  0.21855  0.21759  1.0000
  S   S152      1.0  0.51137  0.31545  0.28746  1.0000
  S   S153      1.0  0.51238  0.31046  0.19608  1.0000
  H   H861      1.0  0.51726  0.26213  0.33457  1.0000
  H   H862      1.0  0.60961  0.40407  0.34497  1.0000
  H   H863      1.0  0.52807  0.25091  0.10161  1.0000
  H   H864      1.0  0.64738  0.17332  0.32483  1.0000
  C   C1081     1.0  0.71137  0.19065  0.09773  1.0000
  C   C1082     1.0  0.60893  0.98946  0.03365  1.0000
  H   H865      1.0  0.49323  0.27839  0.33929  1.0000
  C   C1083     1.0  0.58439  0.07998  0.28481  1.0000
  C   C1084     1.0  0.59575  0.41531  0.24867  1.0000
  C   C1085     1.0  0.57967  0.42021  0.23887  1.0000
  C   C1086     1.0  0.56064  0.40542  0.23460  1.0000
  C   C1087     1.0  0.55716  0.38536  0.23973  1.0000
  C   C1088     1.0  0.57325  0.38042  0.24930  1.0000
  C   C1089     1.0  0.59228  0.39525  0.25393  1.0000
  H   H866      1.0  0.58185  0.43544  0.23477  1.0000
  H   H867      1.0  0.54848  0.40956  0.22702  1.0000
  H   H868      1.0  0.57111  0.36515  0.25259  1.0000
  H   H869      1.0  0.60447  0.39110  0.26130  1.0000
  H   H870      1.0  0.56444  0.34963  0.43477  1.0000
  C   C1090     1.0  0.68413  0.09747  0.11299  1.0000
  C   C1091     1.0  0.68871  0.08259  0.09526  1.0000
  C   C1092     1.0  0.69703  0.08543  0.06008  1.0000
  C   C1093     1.0  0.70033  0.10294  0.04171  1.0000
  H   H871      1.0  0.62086  0.14182  0.33750  1.0000
  C   C1094     1.0  0.68809  0.11529  0.09520  1.0000
  H   H872      1.0  0.68588  0.06881  0.10882  1.0000
  P   P36       1.0  0.66015  0.01907  0.37806  1.0000
  C   C1095     1.0  0.69930  0.11113  0.37031  1.0000
  C   C1096     1.0  0.69372  0.12362  0.39293  1.0000
  H   H873      1.0  0.71885  0.01797  0.08612  1.0000
  H   H874      1.0  0.57648  0.07319  0.25962  1.0000
  H   H875      1.0  0.71193  0.08894  0.36933  1.0000
  C   C1097     1.0  0.65018  0.03589  0.35835  1.0000
  H   H876      1.0  0.68779  0.13354  0.38055  1.0000
  H   H877      1.0  0.52315  0.37861  0.43026  1.0000
  H   H878      1.0  0.48660  0.16368  0.12216  1.0000
  H   H879      1.0  0.71035  0.17692  0.48314  1.0000
  C   C1098     1.0  0.55571  0.12240  0.24043  1.0000
  C   C1099     1.0  0.56650  0.11253  0.22302  1.0000
  C   C1100     1.0  0.58715  0.11916  0.22730  1.0000
  C   C1101     1.0  0.59743  0.13562  0.24985  1.0000
  C   C1102     1.0  0.58665  0.14554  0.26718  1.0000
  C   C1103     1.0  0.56602  0.13910  0.26238  1.0000
  H   H880      1.0  0.55883  0.09968  0.20576  1.0000
  H   H881      1.0  0.59508  0.11149  0.21319  1.0000
  H   H882      1.0  0.59431  0.15833  0.28456  1.0000
  H   H883      1.0  0.55807  0.14687  0.27610  1.0000
  C   C1104     1.0  0.51212  0.24525  0.24484  1.0000
  C   C1105     1.0  0.52009  0.23140  0.25562  1.0000
  C   C1106     1.0  0.51000  0.21115  0.24762  1.0000
  H   H884      1.0  0.65597  0.99315  0.08223  1.0000
  C   C1107     1.0  0.63313  0.40577  0.06135  1.0000
  H   H885      1.0  0.62768  0.07099  0.31470  1.0000
  C   C1108     1.0  0.70738  0.09852  0.38664  1.0000
  C   C1109     1.0  0.69902  0.02162  0.38090  1.0000
  C   C1110     1.0  0.63516  0.48141  0.11886  1.0000
  C   C1111     1.0  0.70502  0.01829  0.07626  1.0000
  C   C1112     1.0  0.56077  0.38380  0.36285  1.0000
  C   C1113     1.0  0.65372  0.14132  0.40429  1.0000
  H   H886      1.0  0.60898  0.38050  0.14141  1.0000
  C   C1114     1.0  0.57806  0.36988  0.15049  1.0000
  C   C1115     1.0  0.61401  0.10222  0.31564  1.0000
  H   H887      1.0  0.53419  0.23638  0.26982  1.0000
  H   H888      1.0  0.61869  0.03897  0.02378  1.0000
  P   P37       1.0  0.61717  0.11130  0.39101  1.0000
  H   H889      1.0  0.60894  0.05998  0.06658  1.0000
  H   H890      1.0  0.60750  0.04408  0.35450  1.0000
  C   C1116     1.0  0.69557  0.12298  0.43155  1.0000
  H   H891      1.0  0.54934  0.39670  0.14237  1.0000
  H   H892      1.0  0.65042  0.40709  0.23447  1.0000
  H   H893      1.0  0.58099  0.42216  0.12591  1.0000
  C   C1117     1.0  0.63423  0.14642  0.35413  1.0000
  H   H894      1.0  0.62262  0.06631  0.13048  1.0000
  C   C1118     1.0  0.63391  0.06123  0.32699  1.0000
  H   H895      1.0  0.62914  0.11220  0.31386  1.0000
  C   C1119     1.0  0.55589  0.40011  0.35490  1.0000
  C   C1120     1.0  0.61519  0.46957  0.17217  1.0000
  C   C1121     1.0  0.64646  0.00287  0.23919  1.0000
  H   H896      1.0  0.70599  0.18707  0.00444  1.0000
  C   C1122     1.0  0.66857  0.15950  0.39758  1.0000
  C   C1123     1.0  0.62214  0.06728  0.45337  1.0000
  H   H897      1.0  0.60548  0.43860  0.18118  1.0000
  H   H898      1.0  0.62708  0.00032  0.32522  1.0000
  H   H899      1.0  0.66301  0.43491  0.10971  1.0000
  C   C1124     1.0  0.66639  0.17098  0.36878  1.0000
  C   C1125     1.0  0.59462  0.40294  0.34810  1.0000
  S   S154      1.0  0.47966  0.32471  0.23401  1.0000
  H   H900      1.0  0.55974  0.06634  0.31945  1.0000
  H   H901      1.0  0.70599  0.48372  0.14526  1.0000
  C   C1126     1.0  0.68528  0.02192  0.32005  1.0000
  C   C1127     1.0  0.61500  0.08056  0.43732  1.0000
  C   C1128     1.0  0.60108  0.11775  0.42087  1.0000
  C   C1129     1.0  0.51823  0.35768  0.36008  1.0000
  C   C1130     1.0  0.61878  0.05306  0.07603  1.0000
  P   P38       1.0  0.54231  0.36118  0.37807  1.0000
  H   H902      1.0  0.68465  0.12688  0.10844  1.0000
  C   C1131     1.0  0.58036  0.38553  0.36029  1.0000
  C   C1132     1.0  0.54661  0.33975  0.36220  1.0000
  C   C1133     1.0  0.55627  0.34006  0.32908  1.0000
  C   C1134     1.0  0.55838  0.32303  0.31551  1.0000
  C   C1135     1.0  0.55054  0.30547  0.33453  1.0000
  C   C1136     1.0  0.54063  0.30496  0.36724  1.0000
  C   C1137     1.0  0.53854  0.32199  0.38091  1.0000
  C   C1138     1.0  0.65128  0.08005  0.41702  1.0000
  C   C1139     1.0  0.69597  0.11792  0.05962  1.0000
  H   H903      1.0  0.68189  0.16458  0.41443  1.0000
  C   C1140     1.0  0.66960  0.02521  0.18349  1.0000
  C   C1141     1.0  0.58950  0.41886  0.33906  1.0000
  H   H904      1.0  0.58462  0.37338  0.36729  1.0000
  H   H905      1.0  0.56150  0.35324  0.31301  1.0000
  H   H906      1.0  0.56542  0.32323  0.28947  1.0000
  H   H907      1.0  0.55165  0.29216  0.32322  1.0000
  H   H908      1.0  0.64159  0.99839  0.44585  1.0000
  H   H909      1.0  0.53021  0.32118  0.40556  1.0000
  H   H910      1.0  0.61360  0.05713  0.47366  1.0000
  C   C1142     1.0  0.51375  0.24969  0.11081  1.0000
  H   H911      1.0  0.68756  0.04352  0.01733  1.0000
  C   C1143     1.0  0.53296  0.37432  0.48421  1.0000
  H   H912      1.0  0.68580  0.05429  0.41765  1.0000
  C   C1144     1.0  0.59261  0.12529  0.48210  1.0000
  C   C1145     1.0  0.64495  0.03604  0.10006  1.0000
  C   C1146     1.0  0.66371  0.02540  0.42661  1.0000
  C   C1147     1.0  0.66935  0.01854  0.04829  1.0000
  C   C1148     1.0  0.69853  0.00166  0.48416  1.0000
  C   C1149     1.0  0.63068  0.03345  0.36509  1.0000
  H   H913      1.0  0.68934  0.19257  0.06003  1.0000
  H   H914      1.0  0.53417  0.29126  0.38155  1.0000
  C   C1150     1.0  0.49212  0.20473  0.22796  1.0000
  C   C1151     1.0  0.64416  0.09330  0.40080  1.0000
  H   H915      1.0  0.68434  0.42061  0.21139  1.0000
  H   H916      1.0  0.60077  0.08029  0.44502  1.0000
  H   H917      1.0  0.60611  0.43461  0.05569  1.0000
  H   H918      1.0  0.64543  0.05098  0.15186  1.0000
  Fe  Fe75      1.0  0.68995  0.47584  0.23568  1.0000
  H   H919      1.0  0.52484  0.27661  0.14355  1.0000
  C   C1152     1.0  0.62331  0.41785  0.07321  1.0000
  C   C1153     1.0  0.62255  0.04601  0.34926  1.0000
  H   H920      1.0  0.54729  0.36334  0.15813  1.0000
  C   C1154     1.0  0.57494  0.07623  0.31849  1.0000
  C   C1155     1.0  0.60445  0.09901  0.34940  1.0000
  C   C1156     1.0  0.54315  0.36324  0.42761  1.0000
  H   H921      1.0  0.56623  0.42980  0.33535  1.0000
  C   C1157     1.0  0.70328  0.11008  0.44790  1.0000
  H   H922      1.0  0.71862  0.04361  0.04291  1.0000
  H   H923      1.0  0.48072  0.30061  0.38336  1.0000
  Fe  Fe76      1.0  0.48360  0.15199  0.23038  1.0000
  Fe  Fe77      1.0  0.47916  0.29991  0.19591  1.0000
  C   C1158     1.0  0.57335  0.12765  0.42909  1.0000
  H   H924      1.0  0.67313  0.02117  0.30224  1.0000
  C   C1159     1.0  0.60397  0.09277  0.28350  1.0000
  H   H925      1.0  0.62286  0.40708  0.19551  1.0000
  C   C1160     1.0  0.66403  0.00474  0.18273  1.0000
  C   C1161     1.0  0.70313  0.02376  0.30455  1.0000
  H   H926      1.0  0.70475  0.02469  0.27497  1.0000
  H   H927      1.0  0.71560  0.08821  0.43735  1.0000
  S   S155      1.0  0.47658  0.27976  0.24323  1.0000
  C   C1162     1.0  0.49395  0.23862  0.22633  1.0000
  C   C1163     1.0  0.48823  0.26249  0.33758  1.0000
  C   C1164     1.0  0.61434  0.42582  0.04704  1.0000
  H   H928      1.0  0.63951  0.39886  0.08111  1.0000
  C   C1165     1.0  0.61333  0.45036  0.16305  1.0000
  H   H929      1.0  0.51633  0.20066  0.25563  1.0000
  C   C1166     1.0  0.62624  0.09406  0.41168  1.0000
  C   C1167     1.0  0.50144  0.34645  0.37924  1.0000
  C   C1168     1.0  0.53100  0.16051  0.10104  1.0000
  C   C1169     1.0  0.52587  0.14123  0.11294  1.0000
  C   C1170     1.0  0.53293  0.13775  0.14695  1.0000
  C   C1171     1.0  0.54470  0.15351  0.16950  1.0000
  C   C1172     1.0  0.54963  0.17290  0.15810  1.0000
  C   C1173     1.0  0.54313  0.17628  0.12324  1.0000
  P   P39       1.0  0.56676  0.19297  0.18518  1.0000
  C   C1174     1.0  0.56161  0.21504  0.18053  1.0000
  C   C1175     1.0  0.56440  0.18859  0.23390  1.0000
  C   C1176     1.0  0.54578  0.18153  0.24941  1.0000
  C   C1177     1.0  0.54397  0.18021  0.28766  1.0000
  C   C1178     1.0  0.56065  0.18551  0.31056  1.0000
  C   C1179     1.0  0.57923  0.19255  0.29532  1.0000
  C   C1180     1.0  0.58113  0.19438  0.25721  1.0000
  C   C1181     1.0  0.54224  0.21367  0.17437  1.0000
  C   C1182     1.0  0.53784  0.23062  0.17444  1.0000
  C   C1183     1.0  0.55259  0.24902  0.18169  1.0000
  C   C1184     1.0  0.57184  0.25050  0.18846  1.0000
  C   C1185     1.0  0.57634  0.23356  0.18817  1.0000
  C   C1186     1.0  0.59064  0.19470  0.17058  1.0000
  C   C1187     1.0  0.60138  0.20902  0.14580  1.0000
  C   C1188     1.0  0.61988  0.21001  0.13488  1.0000
  C   C1189     1.0  0.62760  0.19655  0.14820  1.0000
  C   C1190     1.0  0.61671  0.18189  0.17199  1.0000
  C   C1191     1.0  0.59820  0.18081  0.18276  1.0000
  H   H930      1.0  0.52580  0.16320  0.07440  1.0000
  H   H931      1.0  0.51655  0.12896  0.09577  1.0000
  H   H932      1.0  0.52914  0.12279  0.15612  1.0000
  H   H933      1.0  0.55012  0.15055  0.19565  1.0000
  H   H934      1.0  0.54753  0.19108  0.11308  1.0000
  H   H935      1.0  0.53269  0.17745  0.23203  1.0000
  H   H936      1.0  0.52964  0.17525  0.29968  1.0000
  H   H937      1.0  0.55916  0.18429  0.34012  1.0000
  H   H938      1.0  0.59220  0.19681  0.31304  1.0000
  H   H939      1.0  0.59570  0.20058  0.24621  1.0000
  H   H940      1.0  0.53031  0.19951  0.17099  1.0000
  H   H941      1.0  0.52277  0.22938  0.17080  1.0000
  H   H942      1.0  0.54892  0.26202  0.18341  1.0000
  H   H943      1.0  0.58315  0.26473  0.19502  1.0000
  H   H944      1.0  0.59114  0.23488  0.19509  1.0000
  H   H945      1.0  0.59548  0.21930  0.13469  1.0000
  H   H946      1.0  0.62824  0.22117  0.11600  1.0000
  H   H947      1.0  0.64196  0.19736  0.13991  1.0000
  H   H948      1.0  0.62257  0.17131  0.18218  1.0000
  H   H949      1.0  0.58986  0.16916  0.20083  1.0000
  C   C1192     1.0  0.57017  0.41747  0.34260  1.0000
  H   H950      1.0  0.70079  0.07408  0.04698  1.0000
  C   C1193     1.0  0.51197  0.26419  0.13426  1.0000
  H   H951      1.0  0.69854  0.13159  0.04578  1.0000
  H   H952      1.0  0.65540  0.03000  0.10973  1.0000
  H   H953      1.0  0.66244  0.07634  0.30478  1.0000
  H   H954      1.0  0.67931  0.98740  0.26007  1.0000
  H   H955      1.0  0.60377  0.00068  0.04308  1.0000
  H   H956      1.0  0.64597  0.05705  0.45632  1.0000
  C   C1194     1.0  0.70947  0.09806  0.42520  1.0000
  P   P40       1.0  0.64638  0.01909  0.03114  1.0000
  S   S156      1.0  0.47966  0.17998  0.21332  1.0000
  C   C1195     1.0  0.49703  0.23367  0.09911  1.0000
  C   C1196     1.0  0.49347  0.26276  0.14552  1.0000
  H   H957      1.0  0.50268  0.34043  0.40574  1.0000
  C   C1197     1.0  0.70490  0.03275  0.05185  1.0000
  C   C1198     1.0  0.62909  0.98902  0.34159  1.0000
  C   C1199     1.0  0.47842  0.23202  0.11107  1.0000
  H   H958      1.0  0.50566  0.22584  0.32865  1.0000
  H   H959      1.0  0.58292  0.12162  0.37643  1.0000
  H   H960      1.0  0.65563  0.13270  0.42689  1.0000
  H   H961      1.0  0.69088  0.13243  0.44891  1.0000
  C   C1200     1.0  0.63924  0.04784  0.12416  1.0000
  C   C1201     1.0  0.65227  0.99335  0.21047  1.0000
  H   H962      1.0  0.69158  0.06332  0.48380  1.0000
  H   H963      1.0  0.71369  0.48032  0.33198  1.0000
  H   H964      1.0  0.67804  0.18488  0.36305  1.0000
  H   H965      1.0  0.67718  0.05493  0.33358  1.0000
  C   C1202     1.0  0.64915  0.16450  0.34727  1.0000
  C   C1203     1.0  0.50173  0.25333  0.33511  1.0000
  C   C1204     1.0  0.55541  0.35632  0.44829  1.0000
  C   C1205     1.0  0.66332  0.03449  0.21165  1.0000
  C   C1206     1.0  0.62602  0.41071  0.99778  1.0000
  C   C1207     1.0  0.65351  0.06421  0.32131  1.0000
  H   H966      1.0  0.49183  0.27399  0.16314  1.0000
  H   H967      1.0  0.47719  0.20711  0.39944  1.0000
  H   H968      1.0  0.69769  0.02058  0.41048  1.0000
  H   H969      1.0  0.69054  0.43460  0.14933  1.0000
  C   C1208     1.0  0.65280  0.01246  0.45337  1.0000
  C   C1209     1.0  0.63673  0.13435  0.38173  1.0000
  C   C1210     1.0  0.56124  0.37439  0.15067  1.0000
  C   C1211     1.0  0.56242  0.39326  0.14184  1.0000
  C   C1212     1.0  0.58045  0.40771  0.13309  1.0000
  C   C1213     1.0  0.59755  0.40348  0.13402  1.0000
  C   C1214     1.0  0.59612  0.38429  0.14175  1.0000
  P   P41       1.0  0.62081  0.42182  0.12161  1.0000
  C   C1215     1.0  0.62207  0.44646  0.13144  1.0000
  C   C1216     1.0  0.64072  0.41997  0.14883  1.0000
  C   C1217     1.0  0.65999  0.42804  0.13623  1.0000
  C   C1218     1.0  0.67562  0.42793  0.15854  1.0000
  C   C1219     1.0  0.67214  0.42007  0.19369  1.0000
  C   C1220     1.0  0.65306  0.41238  0.20663  1.0000
  C   C1221     1.0  0.63741  0.41236  0.18435  1.0000
  S   S157      1.0  0.71183  0.46236  0.21952  1.0000
  C   C1222     1.0  0.53224  0.37262  0.44577  1.0000
  C   C1223     1.0  0.66176  0.05181  0.33737  1.0000
  H   H970      1.0  0.49863  0.22279  0.08034  1.0000
  C   C1224     1.0  0.58554  0.12219  0.40595  1.0000
  H   H971      1.0  0.61125  0.09587  0.25735  1.0000
  C   C1225     1.0  0.64398  0.99379  0.36895  1.0000
  C   C1226     1.0  0.49517  0.23286  0.33155  1.0000
  C   C1227     1.0  0.68322  0.02129  0.35837  1.0000
  C   C1228     1.0  0.49740  0.35989  0.30919  1.0000
  H   H972      1.0  0.64109  0.45974  0.08630  1.0000
  C   C1229     1.0  0.63333  0.46218  0.10973  1.0000
  H   H973      1.0  0.66530  0.07981  0.40902  1.0000
  Fe  Fe78      1.0  0.47847  0.30468  0.28122  1.0000
  C   C1230     1.0  0.65168  0.02330  0.23942  1.0000
  H   H974      1.0  0.66755  0.05037  0.21194  1.0000
  H   H975      1.0  0.66098  0.06086  0.01274  1.0000
  C   C1231     1.0  0.62878  0.99413  0.02593  1.0000
  C   C1232     1.0  0.71678  0.02320  0.36536  1.0000
  C   C1233     1.0  0.63775  0.03280  0.06357  1.0000
  H   H976      1.0  0.67885  0.03398  0.16224  1.0000
  H   H977      1.0  0.68752  0.99253  0.10521  1.0000
  H   H978      1.0  0.48764  0.24900  0.21784  1.0000
  S   S158      1.0  0.71720  0.18662  0.19978  1.0000
  H   H979      1.0  0.52876  0.37175  0.30859  1.0000
  C   C1234     1.0  0.47680  0.24680  0.13411  1.0000
  C   C1235     1.0  0.67752  0.04389  0.43782  1.0000
  C   C1236     1.0  0.71889  0.02441  0.32722  1.0000
  C   C1237     1.0  0.70302  0.19032  0.06281  1.0000
  C   C1238     1.0  0.68718  0.03266  0.03734  1.0000
  C   C1239     1.0  0.51605  0.36400  0.32466  1.0000
  C   C1240     1.0  0.48278  0.34241  0.36375  1.0000
  H   H980      1.0  0.66918  0.99799  0.16072  1.0000
  H   H981      1.0  0.49593  0.36462  0.28156  1.0000
  C   C1241     1.0  0.60483  0.11981  0.45903  1.0000
  C   C1242     1.0  0.68735  0.00396  0.08691  1.0000
  H   H982      1.0  0.63784  0.99442  0.26135  1.0000
  C   C1243     1.0  0.66954  0.00422  0.07339  1.0000
  H   H983      1.0  0.60864  0.47243  0.19698  1.0000
  H   H984      1.0  0.56128  0.13090  0.41743  1.0000
  H   H985      1.0  0.64226  0.39308  0.01469  1.0000
  H   H986      1.0  0.70848  0.01561  0.47438  1.0000
  H   H987      1.0  0.72310  0.12337  0.15243  1.0000
  C   C1244     1.0  0.61583  0.42238  0.00944  1.0000
  C   C1245     1.0  0.48075  0.34906  0.32870  1.0000
  S   S159      1.0  0.70914  0.10651  0.99602  1.0000
  H   H988      1.0  0.48160  0.18164  0.35825  1.0000
  H   H989      1.0  0.47491  0.29128  0.44902  1.0000
  C   C1246     1.0  0.71238  0.18719  0.03154  1.0000
  H   H990      1.0  0.47488  0.30542  0.09083  1.0000
  C   C1247     1.0  0.69075  0.98517  0.45972  1.0000
  H   H991      1.0  0.71907  0.98756  0.02757  1.0000
  C   C1248     1.0  0.68090  0.04905  0.47524  1.0000
  H   H992      1.0  0.60896  0.42865  0.98934  1.0000
  C   C1249     1.0  0.47871  0.16860  0.10161  1.0000
  H   H993      1.0  0.47825  0.19259  0.13569  1.0000
  C   C1250     1.0  0.57681  0.12909  0.46716  1.0000
  H   H994      1.0  0.61726  0.11732  0.47095  1.0000
  H   H995      1.0  0.47662  0.14562  0.06203  1.0000
  H   H996      1.0  0.56738  0.13337  0.48506  1.0000
  C   C1251     1.0  0.64989  0.03151  0.98773  1.0000
  C   C1252     1.0  0.65700  0.05218  0.98732  1.0000
  C   C1253     1.0  0.71546  0.02617  0.66759  1.0000
  S   S160      1.0  0.70213  0.05698  0.93582  1.0000
  Fe  Fe79      1.0  0.71934  0.09276  0.53087  1.0000
  C   C1254     1.0  0.69547  0.01863  0.65824  1.0000
  C   C1255     1.0  0.64567  0.02080  0.95419  1.0000
  S   S161      1.0  0.70359  0.07183  0.57520  1.0000
  S   S162      1.0  0.70314  0.05991  0.82613  1.0000
  C   C1256     1.0  0.71785  0.99569  0.64634  1.0000
  C   C1257     1.0  0.65493  0.05118  0.92070  1.0000
  H   H997      1.0  0.68765  0.00145  0.93888  1.0000
  C   C1258     1.0  0.71599  0.00479  0.79422  1.0000
  C   C1259     1.0  0.69786  0.98818  0.63707  1.0000
  C   C1260     1.0  0.70588  0.01510  0.85132  1.0000
  H   H998      1.0  0.67360  0.03944  0.53073  1.0000
  H   H999      1.0  0.59549  0.12672  0.51157  1.0000
  H   H1000     1.0  0.69382  0.01735  0.79808  1.0000
  H   H1001     1.0  0.66530  0.07791  0.95393  1.0000
  C   C1261     1.0  0.72430  0.08872  0.71433  1.0000
  C   C1262     1.0  0.65650  0.01752  0.49077  1.0000
  H   H1002     1.0  0.65729  0.05879  0.89481  1.0000
  C   C1263     1.0  0.72012  0.16124  0.52349  1.0000
  C   C1264     1.0  0.71021  0.06964  0.71594  1.0000
  H   H1003     1.0  0.67132  0.99407  0.63470  1.0000
  C   C1265     1.0  0.54483  0.36697  0.50470  1.0000
  C   C1266     1.0  0.67058  0.03574  0.50169  1.0000
  C   C1267     1.0  0.70414  0.01271  0.81307  1.0000
  H   H1004     1.0  0.62709  0.40799  0.96864  1.0000
  C   C1268     1.0  0.64818  0.03064  0.92082  1.0000
  C   C1269     1.0  0.72155  0.17136  0.49074  1.0000
  Fe  Fe80      1.0  0.71802  0.06853  0.88310  1.0000
  C   C1270     1.0  0.70523  0.99696  0.98301  1.0000
  H   H1005     1.0  0.54534  0.36827  0.53449  1.0000
  S   S163      1.0  0.70411  0.10892  0.49661  1.0000
  C   C1271     1.0  0.68667  0.99966  0.64297  1.0000
  H   H1006     1.0  0.69691  0.02157  0.86582  1.0000
  Fe  Fe81      1.0  0.72046  0.05355  0.55500  1.0000
  C   C1272     1.0  0.55612  0.35807  0.48674  1.0000
  S   S164      1.0  0.70418  0.01976  0.55450  1.0000
  H   H1007     1.0  0.56547  0.35255  0.50263  1.0000
  H   H1008     1.0  0.70769  0.15868  0.54102  1.0000
  C   C1273     1.0  0.71960  0.00982  0.87077  1.0000
  C   C1274     1.0  0.70404  0.06101  0.75030  1.0000
  C   C1275     1.0  0.68884  0.99130  0.95917  1.0000
  H   H1009     1.0  0.52433  0.38137  0.49812  1.0000
  C   C1276     1.0  0.71195  0.07128  0.78354  1.0000
  H   H1010     1.0  0.70378  0.06172  0.69069  1.0000
  C   C1277     1.0  0.69382  0.99991  0.52147  1.0000
  H   H1011     1.0  0.64518  0.02238  0.89496  1.0000
  H   H1012     1.0  0.69293  0.04634  0.75113  1.0000
  H   H1013     1.0  0.68689  0.02769  0.66192  1.0000
  H   H1014     1.0  0.72097  0.01207  0.90040  1.0000
  H   H1015     1.0  0.64867  0.00718  0.51141  1.0000
  C   C1278     1.0  0.65939  0.06194  0.95396  1.0000
  Fe  Fe82      1.0  0.72024  0.08669  0.96123  1.0000
  H   H1016     1.0  0.64060  0.00492  0.95362  1.0000
  H   H1017     1.0  0.72205  0.04107  0.67841  1.0000
  H   H1018     1.0  0.71460  0.00311  0.76453  1.0000
  S   S165      1.0  0.69643  0.50809  0.23914  1.0000
  S   S166      1.0  0.67102  0.52502  0.16199  1.0000
  C   C1279     1.0  0.58280  0.74267  0.08720  1.0000
  S   S167      1.0  0.68925  0.52741  0.33081  1.0000
  Fe  Fe83      1.0  0.64750  0.86557  0.04232  1.0000
  S   S168      1.0  0.62007  0.85775  0.07453  1.0000
  C   C1280     1.0  0.70731  0.63786  0.08489  1.0000
  Fe  Fe84      1.0  0.64684  0.90627  0.02044  1.0000
  S   S169      1.0  0.61907  0.90040  0.05173  1.0000
  H   H1019     1.0  0.70731  0.56154  0.19823  1.0000
  Fe  Fe85      1.0  0.63303  0.88889  0.09710  1.0000
  S   S170      1.0  0.64095  0.89992  0.15703  1.0000
  Fe  Fe86      1.0  0.60895  0.86979  0.02577  1.0000
  S   S171      1.0  0.66128  0.89629  0.06670  1.0000
  H   H1020     1.0  0.68139  0.55799  0.11387  1.0000
  Fe  Fe87      1.0  0.60055  0.68234  0.02003  1.0000
  Fe  Fe88      1.0  0.61668  0.69860  0.09985  1.0000
  S   S172      1.0  0.64489  0.71946  0.07686  1.0000
  S   S173      1.0  0.60841  0.70290  0.15951  1.0000
  Fe  Fe89      1.0  0.62658  0.72587  0.03247  1.0000
  S   S174      1.0  0.62260  0.75310  0.01017  1.0000
  Fe  Fe90      1.0  0.64347  0.69341  0.04060  1.0000
  H   H1021     1.0  0.69289  0.95425  0.03125  1.0000
  S   S175      1.0  0.59852  0.70627  0.05686  1.0000
  S   S176      1.0  0.61586  0.67222  0.06542  1.0000
  C   C1281     1.0  0.71345  0.60852  0.09956  1.0000
  H   H1022     1.0  0.55603  0.70881  0.14775  1.0000
  Fe  Fe91      1.0  0.62127  0.88581  0.37693  1.0000
  S   S177      1.0  0.65336  0.89590  0.39038  1.0000
  S   S178      1.0  0.60715  0.88199  0.31893  1.0000
  Fe  Fe92      1.0  0.64514  0.87031  0.42881  1.0000
  S   S179      1.0  0.66160  0.84930  0.43011  1.0000
  Fe  Fe93      1.0  0.64786  0.91353  0.43781  1.0000
  C   C1282     1.0  0.66987  0.78582  0.12684  1.0000
  S   S180      1.0  0.61339  0.85938  0.41283  1.0000
  S   S181      1.0  0.61568  0.90439  0.42226  1.0000
  H   H1023     1.0  0.66322  0.75465  0.12931  1.0000
  C   C1283     1.0  0.59487  0.81818  0.15238  1.0000
  Fe  Fe94      1.0  0.59835  0.68518  0.45079  1.0000
  C   C1284     1.0  0.55377  0.76382  0.02561  1.0000
  Fe  Fe95      1.0  0.62427  0.69305  0.38102  1.0000
  S   S182      1.0  0.64866  0.71804  0.41019  1.0000
  S   S183      1.0  0.62985  0.68343  0.32292  1.0000
  S   S184      1.0  0.57845  0.85242  0.00042  1.0000
  C   C1285     1.0  0.57915  0.73638  0.16286  1.0000
  Fe  Fe96      1.0  0.62451  0.72736  0.43061  1.0000
  C   C1286     1.0  0.65499  0.56037  0.46324  1.0000
  S   S185      1.0  0.61968  0.67245  0.42896  1.0000
  S   S186      1.0  0.60044  0.70297  0.39975  1.0000
  C   C1287     1.0  0.66519  0.95200  0.32441  1.0000
  H   H1024     1.0  0.57794  0.82558  0.45611  1.0000
  Fe  Fe97      1.0  0.61067  0.87860  0.45982  1.0000
  C   C1288     1.0  0.69153  0.96451  0.01142  1.0000
  C   C1289     1.0  0.64220  0.94321  0.27249  1.0000
  C   C1290     1.0  0.64967  0.82322  0.42698  1.0000
  H   H1025     1.0  0.60552  0.79674  0.24320  1.0000
  H   H1026     1.0  0.64409  0.49359  0.10245  1.0000
  C   C1291     1.0  0.63124  0.78154  0.42474  1.0000
  C   C1292     1.0  0.62032  0.79350  0.42008  1.0000
  C   C1293     1.0  0.62940  0.81416  0.42142  1.0000
  H   H1027     1.0  0.57558  0.95924  0.20842  1.0000
  H   H1028     1.0  0.70648  0.56939  0.44305  1.0000
  H   H1029     1.0  0.60464  0.78673  0.41583  1.0000
  H   H1030     1.0  0.62064  0.82302  0.41840  1.0000
  C   C1294     1.0  0.56246  0.78954  0.07283  1.0000
  S   S187      1.0  0.70889  0.53974  0.00230  1.0000
  C   C1295     1.0  0.63409  0.77780  0.16184  1.0000
  H   H1031     1.0  0.59258  0.82475  0.12711  1.0000
  H   H1032     1.0  0.64091  0.80918  0.15809  1.0000
  C   C1296     1.0  0.61516  0.69784  0.20467  1.0000
  C   C1297     1.0  0.60763  0.70427  0.23556  1.0000
  C   C1298     1.0  0.61214  0.70027  0.27182  1.0000
  C   C1299     1.0  0.62420  0.68964  0.27781  1.0000
  C   C1300     1.0  0.63183  0.68333  0.24692  1.0000
  C   C1301     1.0  0.62745  0.68746  0.21067  1.0000
  H   H1033     1.0  0.59810  0.71228  0.23143  1.0000
  H   H1034     1.0  0.60601  0.70511  0.29512  1.0000
  H   H1035     1.0  0.64114  0.67508  0.25107  1.0000
  H   H1036     1.0  0.63339  0.68242  0.18739  1.0000
  C   C1302     1.0  0.65872  0.95199  0.10854  1.0000
  C   C1303     1.0  0.61254  0.93380  0.19298  1.0000
  H   H1037     1.0  0.54641  0.74842  0.01801  1.0000
  H   H1038     1.0  0.63032  0.85631  0.16491  1.0000
  Fe  Fe98      1.0  0.64258  0.69783  0.45903  1.0000
  C   C1304     1.0  0.61719  0.88501  0.27409  1.0000
  C   C1305     1.0  0.60433  0.87923  0.24321  1.0000
  C   C1306     1.0  0.61141  0.88264  0.20707  1.0000
  C   C1307     1.0  0.63147  0.89231  0.20139  1.0000
  C   C1308     1.0  0.64438  0.89766  0.23221  1.0000
  C   C1309     1.0  0.63735  0.89369  0.26829  1.0000
  H   H1039     1.0  0.58871  0.87244  0.24733  1.0000
  H   H1040     1.0  0.60129  0.87860  0.18372  1.0000
  H   H1041     1.0  0.65992  0.90514  0.22816  1.0000
  H   H1042     1.0  0.64749  0.89793  0.29163  1.0000
  C   C1310     1.0  0.65183  0.81910  0.03876  1.0000
  C   C1311     1.0  0.63180  0.81059  0.02975  1.0000
  C   C1312     1.0  0.62281  0.79014  0.02309  1.0000
  C   C1313     1.0  0.63364  0.77796  0.02569  1.0000
  C   C1314     1.0  0.65348  0.78635  0.03606  1.0000
  H   H1043     1.0  0.70352  0.91106  0.35098  1.0000
  H   H1044     1.0  0.62337  0.81982  0.02683  1.0000
  H   H1045     1.0  0.60746  0.78382  0.01512  1.0000
  H   H1046     1.0  0.60713  0.76910  0.10115  1.0000
  C   C1315     1.0  0.59245  0.92309  0.18816  1.0000
  H   H1047     1.0  0.60508  0.96576  0.31400  1.0000
  H   H1048     1.0  0.70461  0.60673  0.24023  1.0000
  C   C1316     1.0  0.69476  0.64846  0.99386  1.0000
  C   C1317     1.0  0.68919  0.53128  0.37954  1.0000
  C   C1318     1.0  0.68030  0.51605  0.40386  1.0000
  C   C1319     1.0  0.68092  0.52006  0.44221  1.0000
  C   C1320     1.0  0.69047  0.53930  0.45684  1.0000
  C   C1321     1.0  0.69923  0.55451  0.43245  1.0000
  C   C1322     1.0  0.69860  0.55052  0.39422  1.0000
  C   C1323     1.0  0.65023  0.95853  0.13748  1.0000
  C   C1324     1.0  0.69614  0.89738  0.33567  1.0000
  H   H1049     1.0  0.66412  0.57086  0.99657  1.0000
  S   S188      1.0  0.66891  0.94638  0.43948  1.0000
  C   C1325     1.0  0.68294  0.52936  0.11882  1.0000
  C   C1326     1.0  0.68874  0.51536  0.10132  1.0000
  C   C1327     1.0  0.69695  0.51889  0.06601  1.0000
  C   C1328     1.0  0.69957  0.53648  0.04778  1.0000
  C   C1329     1.0  0.69426  0.55070  0.06572  1.0000
  C   C1330     1.0  0.68588  0.54708  0.10084  1.0000
  H   H1050     1.0  0.62790  0.50006  0.15747  1.0000
  C   C1331     1.0  0.59548  0.97006  0.02930  1.0000
  H   H1051     1.0  0.67296  0.50117  0.39319  1.0000
  H   H1052     1.0  0.63787  0.96271  0.13159  1.0000
  C   C1332     1.0  0.65844  0.76656  0.13608  1.0000
  H   H1053     1.0  0.59511  0.82483  0.24519  1.0000
  C   C1333     1.0  0.69479  0.89726  0.29726  1.0000
  H   H1054     1.0  0.58726  0.90763  0.18020  1.0000
  C   C1334     1.0  0.65774  0.57316  0.02207  1.0000
  H   H1055     1.0  0.57832  0.81901  0.05434  1.0000
  H   H1056     1.0  0.56355  0.92387  0.19020  1.0000
  H   H1057     1.0  0.64306  0.65092  0.00033  1.0000
  C   C1335     1.0  0.61660  0.96942  0.33495  1.0000
  C   C1336     1.0  0.65878  0.56745  0.42754  1.0000
  C   C1337     1.0  0.66475  0.58769  0.42128  1.0000
  C   C1338     1.0  0.66709  0.60068  0.45144  1.0000
  P   P42       1.0  0.67212  0.59738  0.37612  1.0000
  C   C1339     1.0  0.66810  0.62014  0.37196  1.0000
  C   C1340     1.0  0.69780  0.60168  0.37160  1.0000
  C   C1341     1.0  0.71036  0.60599  0.40277  1.0000
  H   H1058     1.0  0.70921  0.64796  0.99186  1.0000
  C   C1342     1.0  0.64817  0.93888  0.30691  1.0000
  C   C1343     1.0  0.68155  0.94674  0.15173  1.0000
  C   C1344     1.0  0.70539  0.60052  0.33679  1.0000
  C   C1345     1.0  0.65062  0.62140  0.38444  1.0000
  C   C1346     1.0  0.64719  0.63880  0.38063  1.0000
  C   C1347     1.0  0.66117  0.65507  0.36447  1.0000
  C   C1348     1.0  0.67867  0.65401  0.35231  1.0000
  C   C1349     1.0  0.68215  0.63661  0.35597  1.0000
  C   C1350     1.0  0.65812  0.57995  0.34050  1.0000
  C   C1351     1.0  0.64318  0.58302  0.32006  1.0000
  C   C1352     1.0  0.63280  0.56958  0.29218  1.0000
  C   C1353     1.0  0.63719  0.55297  0.28450  1.0000
  C   C1354     1.0  0.65205  0.54984  0.30455  1.0000
  C   C1355     1.0  0.66252  0.56330  0.33224  1.0000
  H   H1059     1.0  0.65757  0.55707  0.40532  1.0000
  H   H1060     1.0  0.67256  0.61642  0.44772  1.0000
  H   H1061     1.0  0.70505  0.60725  0.42994  1.0000
  H   H1062     1.0  0.53503  0.67792  0.46655  1.0000
  H   H1063     1.0  0.63599  0.94739  0.39742  1.0000
  H   H1064     1.0  0.62861  0.55323  0.00678  1.0000
  H   H1065     1.0  0.69604  0.59751  0.31234  1.0000
  H   H1066     1.0  0.63959  0.60889  0.39693  1.0000
  H   H1067     1.0  0.63367  0.63974  0.39009  1.0000
  H   H1068     1.0  0.65840  0.66851  0.36142  1.0000
  H   H1069     1.0  0.68952  0.66674  0.34007  1.0000
  H   H1070     1.0  0.69580  0.63613  0.34643  1.0000
  H   H1071     1.0  0.63947  0.59574  0.32533  1.0000
  H   H1072     1.0  0.62126  0.57201  0.27661  1.0000
  H   H1073     1.0  0.62907  0.54249  0.26308  1.0000
  H   H1074     1.0  0.65551  0.53695  0.29877  1.0000
  H   H1075     1.0  0.67404  0.56064  0.34723  1.0000
  H   H1076     1.0  0.58145  0.74679  0.99290  1.0000
  C   C1356     1.0  0.60864  0.74772  0.29907  1.0000
  H   H1077     1.0  0.57911  0.80889  0.99016  1.0000
  H   H1078     1.0  0.58019  0.96650  0.03540  1.0000
  H   H1079     1.0  0.63151  0.74736  0.15907  1.0000
  C   C1357     1.0  0.65736  0.95922  0.17384  1.0000
  C   C1358     1.0  0.57914  0.93224  0.19382  1.0000
  C   C1359     1.0  0.62597  0.75908  0.24261  1.0000
  H   H1080     1.0  0.58483  0.74478  0.05792  1.0000
  H   H1081     1.0  0.65104  0.54481  0.46804  1.0000
  C   C1360     1.0  0.65285  0.64462  0.16327  1.0000
  C   C1361     1.0  0.64640  0.65190  0.13252  1.0000
  C   C1362     1.0  0.64902  0.64563  0.09723  1.0000
  C   C1363     1.0  0.65812  0.63214  0.09252  1.0000
  C   C1364     1.0  0.66471  0.62477  0.12323  1.0000
  C   C1365     1.0  0.66198  0.63110  0.15873  1.0000
  P   P43       1.0  0.67633  0.60725  0.11628  1.0000
  C   C1366     1.0  0.66147  0.58957  0.08201  1.0000
  C   C1367     1.0  0.70090  0.61897  0.09969  1.0000
  H   H1082     1.0  0.69603  0.65411  0.43620  1.0000
  H   H1083     1.0  0.70093  0.50774  0.05250  1.0000
  C   C1368     1.0  0.59638  0.81826  0.21887  1.0000
  H   H1084     1.0  0.70495  0.67659  0.02291  1.0000
  C   C1369     1.0  0.62947  0.56682  0.06018  1.0000
  C   C1370     1.0  0.66956  0.58629  0.04895  1.0000
  H   H1085     1.0  0.66202  0.77718  0.03777  1.0000
  C   C1371     1.0  0.64677  0.97854  0.38808  1.0000
  H   H1086     1.0  0.69327  0.94155  0.15727  1.0000
  C   C1372     1.0  0.64125  0.58002  0.08708  1.0000
  C   C1373     1.0  0.67812  0.59584  0.15931  1.0000
  C   C1374     1.0  0.66584  0.57639  0.16659  1.0000
  C   C1375     1.0  0.66747  0.56806  0.20024  1.0000
  H   H1087     1.0  0.61087  0.97829  0.21686  1.0000
  H   H1088     1.0  0.70116  0.91089  0.28269  1.0000
  C   C1376     1.0  0.69222  0.60663  0.18605  1.0000
  H   H1089     1.0  0.65071  0.64949  0.19063  1.0000
  H   H1090     1.0  0.63938  0.66242  0.13593  1.0000
  H   H1091     1.0  0.64411  0.65137  0.07344  1.0000
  H   H1092     1.0  0.66012  0.62757  0.06486  1.0000
  H   H1093     1.0  0.66668  0.62562  0.18300  1.0000
  H   H1094     1.0  0.69793  0.64621  0.08417  1.0000
  S   S189      1.0  0.63590  0.87606  0.99252  1.0000
  C   C1377     1.0  0.60606  0.96292  0.20911  1.0000
  H   H1095     1.0  0.56204  0.79409  0.10119  1.0000
  C   C1378     1.0  0.65748  0.65038  0.99840  1.0000
  H   H1096     1.0  0.68489  0.59401  0.04323  1.0000
  H   H1097     1.0  0.69620  0.56428  0.05214  1.0000
  C   C1379     1.0  0.72168  0.49084  0.14208  1.0000
  H   H1098     1.0  0.68259  0.57236  0.25274  1.0000
  H   H1099     1.0  0.63459  0.58287  0.11176  1.0000
  H   H1100     1.0  0.65525  0.56738  0.14631  1.0000
  C   C1380     1.0  0.69164  0.65775  0.46271  1.0000
  C   C1381     1.0  0.56831  0.72568  0.10006  1.0000
  C   C1382     1.0  0.56661  0.72246  0.13785  1.0000
  H   H1101     1.0  0.70195  0.62160  0.18089  1.0000
  C   C1383     1.0  0.58594  0.95216  0.20418  1.0000
  H   H1102     1.0  0.62263  0.92641  0.18859  1.0000
  C   C1384     1.0  0.59277  0.75765  0.24860  1.0000
  H   H1103     1.0  0.67803  0.81331  0.04919  1.0000
  H   H1104     1.0  0.56240  0.79226  0.42738  1.0000
  H   H1105     1.0  0.61706  0.63949  0.48473  1.0000
  H   H1106     1.0  0.56829  0.76400  0.45449  1.0000
  C   C1385     1.0  0.68763  0.87986  0.35449  1.0000
  C   C1386     1.0  0.67755  0.86225  0.33505  1.0000
  C   C1387     1.0  0.67637  0.86192  0.29643  1.0000
  C   C1388     1.0  0.68502  0.87961  0.27763  1.0000
  P   P44       1.0  0.66297  0.83905  0.27184  1.0000
  C   C1389     1.0  0.67553  0.82208  0.27367  1.0000
  C   C1390     1.0  0.63962  0.82836  0.29401  1.0000
  C   C1391     1.0  0.62922  0.84027  0.30365  1.0000
  C   C1392     1.0  0.61194  0.83256  0.32336  1.0000
  C   C1393     1.0  0.60509  0.81301  0.33426  1.0000
  C   C1394     1.0  0.61541  0.80108  0.32515  1.0000
  C   C1395     1.0  0.63258  0.80866  0.30505  1.0000
  C   C1396     1.0  0.68984  0.82392  0.30100  1.0000
  C   C1397     1.0  0.69887  0.81021  0.30253  1.0000
  C   C1398     1.0  0.69376  0.79465  0.27674  1.0000
  C   C1399     1.0  0.67956  0.79274  0.24941  1.0000
  C   C1400     1.0  0.67036  0.80630  0.24804  1.0000
  C   C1401     1.0  0.66034  0.84436  0.22402  1.0000
  C   C1402     1.0  0.67542  0.84589  0.19953  1.0000
  C   C1403     1.0  0.67408  0.85093  0.16291  1.0000
  C   C1404     1.0  0.65766  0.85434  0.15034  1.0000
  C   C1405     1.0  0.64274  0.85307  0.17457  1.0000
  C   C1406     1.0  0.64416  0.84838  0.21140  1.0000
  S   S190      1.0  0.66413  0.84495  0.04451  1.0000
  H   H1107     1.0  0.67644  0.81813  0.43514  1.0000
  C   C1407     1.0  0.67438  0.94610  0.11569  1.0000
  H   H1108     1.0  0.67053  0.84892  0.35027  1.0000
  H   H1109     1.0  0.68402  0.87999  0.24795  1.0000
  H   H1110     1.0  0.63469  0.85569  0.29680  1.0000
  H   H1111     1.0  0.60415  0.84194  0.33108  1.0000
  H   H1112     1.0  0.59206  0.80728  0.35061  1.0000
  H   H1113     1.0  0.61046  0.78612  0.33474  1.0000
  H   H1114     1.0  0.64048  0.79918  0.29926  1.0000
  H   H1115     1.0  0.69400  0.83574  0.32141  1.0000
  H   H1116     1.0  0.70975  0.81158  0.32395  1.0000
  H   H1117     1.0  0.70072  0.78400  0.27809  1.0000
  H   H1118     1.0  0.67559  0.78066  0.22942  1.0000
  H   H1119     1.0  0.65907  0.80437  0.22724  1.0000
  H   H1120     1.0  0.68840  0.84354  0.20886  1.0000
  H   H1121     1.0  0.68579  0.85232  0.14411  1.0000
  H   H1122     1.0  0.63285  0.84838  0.22992  1.0000
  H   H1123     1.0  0.65297  0.95107  0.08058  1.0000
  C   C1408     1.0  0.69231  0.66471  0.01132  1.0000
  C   C1409     1.0  0.67368  0.66582  0.01352  1.0000
  C   C1410     1.0  0.64566  0.79715  0.15252  1.0000
  C   C1411     1.0  0.57165  0.80353  0.04657  1.0000
  H   H1124     1.0  0.51208  0.68764  0.42832  1.0000
  H   H1125     1.0  0.67398  0.50815  0.46068  1.0000
  H   H1126     1.0  0.63911  0.76204  0.22716  1.0000
  H   H1127     1.0  0.70864  0.59376  0.11013  1.0000
  H   H1128     1.0  0.60195  0.79596  0.12433  1.0000
  H   H1129     1.0  0.66962  0.94863  0.35131  1.0000
  Fe  Fe99      1.0  0.66934  0.50148  0.20423  1.0000
  C   C1412     1.0  0.64051  0.76250  0.15310  1.0000
  H   H1130     1.0  0.68637  0.50158  0.11453  1.0000
  H   H1131     1.0  0.68840  0.87995  0.38433  1.0000
  H   H1132     1.0  0.55896  0.71460  0.08071  1.0000
  C   C1413     1.0  0.59229  0.75051  0.28421  1.0000
  H   H1133     1.0  0.63947  0.92536  0.32027  1.0000
  H   H1134     1.0  0.65666  0.85829  0.12195  1.0000
  C   C1414     1.0  0.68133  0.57900  0.22687  1.0000
  C   C1415     1.0  0.59272  0.82626  0.18631  1.0000
  C   C1416     1.0  0.67308  0.95324  0.18078  1.0000
  H   H1135     1.0  0.68347  0.78886  0.11260  1.0000
  H   H1136     1.0  0.57921  0.74703  0.30031  1.0000
  H   H1137     1.0  0.67850  0.95306  0.20855  1.0000
  H   H1138     1.0  0.57795  0.73303  0.19172  1.0000
  H   H1139     1.0  0.63797  0.74940  0.28959  1.0000
  C   C1417     1.0  0.60217  0.80215  0.21756  1.0000
  H   H1140     1.0  0.61389  0.55943  0.06433  1.0000
  C   C1418     1.0  0.56333  0.77773  0.99914  1.0000
  H   H1141     1.0  0.57544  0.71135  0.99241  1.0000
  H   H1142     1.0  0.66022  0.78156  0.43354  1.0000
  C   C1419     1.0  0.67996  0.66924  0.46440  1.0000
  H   H1143     1.0  0.62903  0.93265  0.25965  1.0000
  C   C1420     1.0  0.61954  0.95378  0.20367  1.0000
  C   C1421     1.0  0.66074  0.81129  0.43078  1.0000
  C   C1422     1.0  0.57207  0.79768  0.00990  1.0000
  S   S191      1.0  0.61826  0.75569  0.42730  1.0000
  H   H1144     1.0  0.58861  0.83900  0.18740  1.0000
  C   C1423     1.0  0.51677  0.69441  0.45534  1.0000
  P   P45       1.0  0.64563  0.96692  0.21102  1.0000
  H   H1145     1.0  0.65822  0.55291  0.20533  1.0000
  H   H1146     1.0  0.60826  0.74206  0.32661  1.0000
  C   C1424     1.0  0.57171  0.79444  0.45175  1.0000
  H   H1147     1.0  0.67553  0.67438  0.43937  1.0000
  C   C1425     1.0  0.60963  0.76201  0.22739  1.0000
  C   C1426     1.0  0.61890  0.95446  0.35548  1.0000
  C   C1427     1.0  0.63400  0.95903  0.38193  1.0000
  H   H1148     1.0  0.49947  0.71242  0.45247  1.0000
  P   P46       1.0  0.61030  0.77191  0.18169  1.0000
  C   C1428     1.0  0.52971  0.68894  0.47682  1.0000
  C   C1429     1.0  0.69375  0.59827  0.21974  1.0000
  C   C1430     1.0  0.66343  0.80107  0.13489  1.0000
  H   H1149     1.0  0.54636  0.75886  0.08270  1.0000
  H   H1150     1.0  0.70554  0.56248  0.37589  1.0000
  H   H1151     1.0  0.67196  0.81584  0.12634  1.0000
  S   S192      1.0  0.64938  0.49621  0.25316  1.0000
  C   C1431     1.0  0.55354  0.76970  0.06235  1.0000
  C   C1432     1.0  0.60021  0.80177  0.15097  1.0000
  C   C1433     1.0  0.59544  0.75654  0.11203  1.0000
  H   H1152     1.0  0.71411  0.55898  0.26481  1.0000
  C   C1434     1.0  0.59348  0.75377  0.15020  1.0000
  H   H1153     1.0  0.65001  0.98251  0.00644  1.0000
  S   S193      1.0  0.62802  0.70210  0.99378  1.0000
  S   S194      1.0  0.67140  0.68686  0.03480  1.0000
  C   C1435     1.0  0.50976  0.70843  0.46890  1.0000
  H   H1154     1.0  0.60921  0.93924  0.35057  1.0000
  H   H1155     1.0  0.72443  0.51146  0.36879  1.0000
  H   H1156     1.0  0.57997  0.75977  0.23754  1.0000
  C   C1436     1.0  0.60360  0.79335  0.18360  1.0000
  C   C1437     1.0  0.62545  0.75199  0.27825  1.0000
  Fe  Fe100     1.0  0.67676  0.50172  0.28817  1.0000
  C   C1438     1.0  0.65322  0.96084  0.25530  1.0000
  C   C1439     1.0  0.57494  0.77855  0.46713  1.0000
  C   C1440     1.0  0.67795  0.96671  0.47190  1.0000
  C   C1441     1.0  0.58054  0.81323  0.46779  1.0000
  C   C1442     1.0  0.65159  0.79054  0.42976  1.0000
  C   C1443     1.0  0.63773  0.56334  0.02774  1.0000
  C   C1444     1.0  0.60171  0.95526  0.01699  1.0000
  H   H1157     1.0  0.68062  0.94056  0.09339  1.0000
  C   C1445     1.0  0.66254  0.80685  0.04230  1.0000
  S   S195      1.0  0.64253  0.88862  0.47773  1.0000
  C   C1446     1.0  0.67629  0.96951  0.30747  1.0000
  C   C1447     1.0  0.72430  0.55792  0.24444  1.0000
  H   H1158     1.0  0.68133  0.72085  0.98946  1.0000
  H   H1159     1.0  0.65864  0.98165  0.40817  1.0000
  C   C1448     1.0  0.72048  0.55939  0.20705  1.0000
  C   C1449     1.0  0.63484  0.97921  0.01307  1.0000
  C   C1450     1.0  0.70642  0.98343  0.00915  1.0000
  S   S196      1.0  0.56928  0.66688  0.47722  1.0000
  C   C1451     1.0  0.62138  0.95986  0.00880  1.0000
  H   H1160     1.0  0.72188  0.51948  0.15426  1.0000
  C   C1452     1.0  0.67041  0.97388  0.27298  1.0000
  S   S197      1.0  0.62093  0.70991  0.48242  1.0000
  H   H1161     1.0  0.59133  0.94022  0.01362  1.0000
  H   H1162     1.0  0.62621  0.94840  0.99904  1.0000
  H   H1163     1.0  0.68944  0.97966  0.32123  1.0000
  H   H1164     1.0  0.72423  0.50757  0.00319  1.0000
  C   C1453     1.0  0.62605  0.48509  0.15000  1.0000
  C   C1454     1.0  0.67541  0.95864  0.98690  1.0000
  Fe  Fe101     1.0  0.50233  0.65084  0.74305  1.0000
  S   S198      1.0  0.53476  0.66139  0.73954  1.0000
  H   H1165     1.0  0.60905  0.63995  0.80659  1.0000
  S   S199      1.0  0.52940  0.61575  0.72656  1.0000
  Fe  Fe102     1.0  0.53301  0.63634  0.77541  1.0000
  S   S200      1.0  0.56024  0.64437  0.81340  1.0000
  Fe  Fe103     1.0  0.52982  0.64078  0.69077  1.0000
  S   S201      1.0  0.55421  0.65661  0.65016  1.0000
  S   S202      1.0  0.52087  0.83982  0.74750  1.0000
  Fe  Fe104     1.0  0.52135  0.78792  0.72463  1.0000
  S   S203      1.0  0.54845  0.81491  0.73323  1.0000
  S   S204      1.0  0.52909  0.76162  0.70836  1.0000
  Fe  Fe105     1.0  0.53423  0.82241  0.78215  1.0000
  S   S205      1.0  0.55807  0.83467  0.82796  1.0000
  Fe  Fe106     1.0  0.53426  0.83075  0.69802  1.0000
  S   S206      1.0  0.55712  0.85333  0.66208  1.0000
  S   S207      1.0  0.50770  0.79414  0.77580  1.0000
  S   S208      1.0  0.50762  0.80312  0.68603  1.0000
  H   H1166     1.0  0.63091  0.61620  0.59174  1.0000
  S   S209      1.0  0.71400  0.63812  0.49123  1.0000
  P   P47       1.0  0.61159  0.80406  0.55521  1.0000
  Fe  Fe107     1.0  0.70683  0.60346  0.94769  1.0000
  S   S210      1.0  0.69697  0.57244  0.92457  1.0000
  C   C1455     1.0  0.54659  0.73126  0.92425  1.0000
  H   H1167     1.0  0.63702  0.65034  0.54170  1.0000
  C   C1456     1.0  0.57078  0.73702  0.97351  1.0000
  P   P48       1.0  0.56385  0.77020  0.95162  1.0000
  H   H1168     1.0  0.56063  0.79135  0.67613  1.0000
  H   H1169     1.0  0.53516  0.79987  0.58099  1.0000
  S   S211      1.0  0.49682  0.63151  0.69209  1.0000
  C   C1457     1.0  0.67421  0.97220  0.96080  1.0000
  C   C1458     1.0  0.65124  0.67964  0.83251  1.0000
  Fe  Fe108     1.0  0.70864  0.57303  0.53506  1.0000
  H   H1170     1.0  0.55950  0.72423  0.63822  1.0000
  H   H1171     1.0  0.58156  0.61126  0.82850  1.0000
  C   C1459     1.0  0.60160  0.73149  0.59287  1.0000
  H   H1172     1.0  0.53813  0.73629  0.90526  1.0000
  C   C1460     1.0  0.68792  0.66068  0.89526  1.0000
  S   S212      1.0  0.69651  0.59425  0.56079  1.0000
  H   H1173     1.0  0.63834  0.63591  0.78123  1.0000
  H   H1174     1.0  0.58332  0.57809  0.82581  1.0000
  H   H1175     1.0  0.65709  0.67261  0.74113  1.0000
  H   H1176     1.0  0.63457  0.56811  0.62525  1.0000
  H   H1177     1.0  0.67430  0.69010  0.95331  1.0000
  H   H1178     1.0  0.59926  0.83089  0.51118  1.0000
  H   H1179     1.0  0.62505  0.67664  0.73748  1.0000
  Fe  Fe109     1.0  0.49485  0.81100  0.73778  1.0000
  H   H1180     1.0  0.60662  0.56472  0.66549  1.0000
  H   H1181     1.0  0.47728  0.70619  0.76590  1.0000
  H   H1182     1.0  0.63771  0.82875  0.50092  1.0000
  C   C1461     1.0  0.71510  0.60771  0.74342  1.0000
  C   C1462     1.0  0.60992  0.63776  0.51102  1.0000
  C   C1463     1.0  0.72227  0.67420  0.88015  1.0000
  C   C1464     1.0  0.57027  0.79358  0.65310  1.0000
  C   C1465     1.0  0.57569  0.81109  0.63406  1.0000
  H   H1183     1.0  0.65490  0.56787  0.52067  1.0000
  C   C1466     1.0  0.67254  0.70255  0.94033  1.0000
  H   H1184     1.0  0.67036  0.88128  0.56340  1.0000
  C   C1467     1.0  0.52873  0.77640  0.94271  1.0000
  C   C1468     1.0  0.48041  0.84388  0.81104  1.0000
  H   H1185     1.0  0.57157  0.76485  0.65553  1.0000
  H   H1186     1.0  0.54566  0.69297  0.52810  1.0000
  H   H1187     1.0  0.70886  0.64819  0.91203  1.0000
  C   C1469     1.0  0.71929  0.68934  0.86128  1.0000
  H   H1188     1.0  0.71553  0.67293  0.76356  1.0000
  C   C1470     1.0  0.58950  0.62966  0.72141  1.0000
  H   H1189     1.0  0.65179  0.86683  0.61916  1.0000
  Fe  Fe110     1.0  0.72064  0.61755  0.53162  1.0000
  C   C1471     1.0  0.56327  0.83866  0.87627  1.0000
  C   C1472     1.0  0.58244  0.85052  0.88810  1.0000
  C   C1473     1.0  0.58740  0.85451  0.92588  1.0000
  C   C1474     1.0  0.57321  0.84671  0.95251  1.0000
  C   C1475     1.0  0.55409  0.83457  0.94076  1.0000
  C   C1476     1.0  0.54914  0.83057  0.90293  1.0000
  H   H1190     1.0  0.59351  0.85691  0.86785  1.0000
  H   H1191     1.0  0.60212  0.86396  0.93429  1.0000
  H   H1192     1.0  0.54297  0.82841  0.96103  1.0000
  H   H1193     1.0  0.53437  0.82136  0.89443  1.0000
  C   C1477     1.0  0.56449  0.85474  0.61520  1.0000
  C   C1478     1.0  0.58325  0.86813  0.60614  1.0000
  C   C1479     1.0  0.58948  0.87038  0.56928  1.0000
  C   C1480     1.0  0.57688  0.85946  0.54079  1.0000
  C   C1481     1.0  0.55826  0.84581  0.54995  1.0000
  C   C1482     1.0  0.55213  0.84340  0.58684  1.0000
  H   H1194     1.0  0.59296  0.87702  0.62776  1.0000
  H   H1195     1.0  0.60381  0.88095  0.56282  1.0000
  H   H1196     1.0  0.54833  0.83733  0.52821  1.0000
  H   H1197     1.0  0.53756  0.83333  0.59320  1.0000
  C   C1483     1.0  0.49938  0.69731  0.74202  1.0000
  C   C1484     1.0  0.51707  0.70371  0.72339  1.0000
  C   C1485     1.0  0.52600  0.72349  0.71356  1.0000
  C   C1486     1.0  0.51754  0.73717  0.72283  1.0000
  C   C1487     1.0  0.50008  0.73093  0.74220  1.0000
  H   H1198     1.0  0.67495  0.60066  0.71084  1.0000
  H   H1199     1.0  0.52356  0.69330  0.71554  1.0000
  H   H1200     1.0  0.53939  0.72816  0.69827  1.0000
  C   C1488     1.0  0.56294  0.65116  0.86104  1.0000
  C   C1489     1.0  0.54710  0.64591  0.88473  1.0000
  C   C1490     1.0  0.55037  0.65023  0.92288  1.0000
  C   C1491     1.0  0.56941  0.66025  0.93768  1.0000
  C   C1492     1.0  0.58510  0.66626  0.91366  1.0000
  C   C1493     1.0  0.58189  0.66140  0.87577  1.0000
  H   H1201     1.0  0.53241  0.63788  0.87396  1.0000
  H   H1202     1.0  0.53807  0.64553  0.94113  1.0000
  H   H1203     1.0  0.59974  0.67429  0.92442  1.0000
  H   H1204     1.0  0.59414  0.66534  0.85769  1.0000
  C   C1494     1.0  0.55756  0.65983  0.60189  1.0000
  C   C1495     1.0  0.57577  0.67285  0.58951  1.0000
  C   C1496     1.0  0.57955  0.67531  0.55160  1.0000
  C   C1497     1.0  0.56507  0.66488  0.52542  1.0000
  C   C1498     1.0  0.54665  0.65232  0.53779  1.0000
  C   C1499     1.0  0.54291  0.64976  0.57577  1.0000
  H   H1205     1.0  0.58715  0.68098  0.60930  1.0000
  H   H1206     1.0  0.59374  0.68508  0.54262  1.0000
  H   H1207     1.0  0.53530  0.64428  0.51783  1.0000
  H   H1208     1.0  0.52879  0.63982  0.58477  1.0000
  C   C1500     1.0  0.54324  0.71117  0.92428  1.0000
  C   C1501     1.0  0.66611  0.70114  0.90349  1.0000
  C   C1502     1.0  0.54800  0.89844  0.73030  1.0000
  C   C1503     1.0  0.56266  0.89082  0.72644  1.0000
  C   C1504     1.0  0.56837  0.88239  0.75646  1.0000
  C   C1505     1.0  0.55974  0.88196  0.79058  1.0000
  C   C1506     1.0  0.54546  0.89016  0.79501  1.0000
  C   C1507     1.0  0.53925  0.89791  0.76434  1.0000
  P   P49       1.0  0.53299  0.88784  0.83801  1.0000
  C   C1508     1.0  0.54919  0.88967  0.87698  1.0000
  C   C1509     1.0  0.52444  0.90765  0.84492  1.0000
  C   C1510     1.0  0.50695  0.90445  0.86340  1.0000
  H   H1209     1.0  0.64729  0.62243  0.96898  1.0000
  C   C1511     1.0  0.53576  0.92667  0.83352  1.0000
  C   C1512     1.0  0.54164  0.88049  0.91005  1.0000
  C   C1513     1.0  0.57421  0.89302  0.93805  1.0000
  H   H1210     1.0  0.50159  0.78088  0.93533  1.0000
  C   C1514     1.0  0.58177  0.90264  0.90561  1.0000
  C   C1515     1.0  0.56930  0.90114  0.87527  1.0000
  C   C1516     1.0  0.51295  0.86429  0.83441  1.0000
  C   C1517     1.0  0.49551  0.86236  0.81548  1.0000
  S   S213      1.0  0.66224  0.69134  0.50243  1.0000
  S   S214      1.0  0.58311  0.86275  0.49333  1.0000
  C   C1518     1.0  0.50022  0.82897  0.84292  1.0000
  C   C1519     1.0  0.51532  0.84741  0.84738  1.0000
  H   H1211     1.0  0.54305  0.90419  0.70653  1.0000
  H   H1212     1.0  0.56910  0.89080  0.69982  1.0000
  H   H1213     1.0  0.57901  0.87558  0.75291  1.0000
  H   H1214     1.0  0.56387  0.87476  0.81319  1.0000
  H   H1215     1.0  0.52737  0.90315  0.76642  1.0000
  H   H1216     1.0  0.49831  0.89004  0.87354  1.0000
  H   H1217     1.0  0.54961  0.92957  0.82023  1.0000
  H   H1218     1.0  0.52613  0.87193  0.91236  1.0000
  H   H1219     1.0  0.71392  0.93437  0.97697  1.0000
  C   C1520     1.0  0.62119  0.64390  0.54345  1.0000
  H   H1220     1.0  0.59736  0.91104  0.90387  1.0000
  H   H1221     1.0  0.57541  0.90880  0.85045  1.0000
  H   H1222     1.0  0.64500  0.76387  0.49822  1.0000
  C   C1521     1.0  0.62212  0.79246  0.92661  1.0000
  S   S215      1.0  0.65698  0.93435  0.98586  1.0000
  H   H1223     1.0  0.50232  0.81598  0.85246  1.0000
  H   H1224     1.0  0.52906  0.84845  0.85998  1.0000
  C   C1522     1.0  0.56929  0.72640  0.61531  1.0000
  C   C1523     1.0  0.58880  0.72874  0.62211  1.0000
  C   C1524     1.0  0.59154  0.63458  0.57875  1.0000
  C   C1525     1.0  0.61602  0.64442  0.94053  1.0000
  H   H1225     1.0  0.61659  0.73294  0.59799  1.0000
  H   H1226     1.0  0.69721  0.65160  0.55401  1.0000
  C   C1526     1.0  0.58875  0.64588  0.70291  1.0000
  C   C1527     1.0  0.64054  0.83693  0.52687  1.0000
  H   H1227     1.0  0.51770  0.66460  0.64751  1.0000
  H   H1228     1.0  0.66871  0.58600  0.64848  1.0000
  C   C1528     1.0  0.62388  0.62256  0.89880  1.0000
  C   C1529     1.0  0.58770  0.81400  0.60361  1.0000
  C   C1530     1.0  0.59503  0.73237  0.55692  1.0000
  C   C1531     1.0  0.63901  0.63865  0.88450  1.0000
  H   H1229     1.0  0.62102  0.60784  0.88818  1.0000
  C   C1532     1.0  0.57558  0.73014  0.55005  1.0000
  C   C1533     1.0  0.49621  0.67804  0.64876  1.0000
  C   C1534     1.0  0.49097  0.71102  0.75152  1.0000
  H   H1230     1.0  0.64679  0.59491  0.85049  1.0000
  C   C1535     1.0  0.60201  0.71892  0.91055  1.0000
  C   C1536     1.0  0.58976  0.71719  0.87979  1.0000
  C   C1537     1.0  0.59552  0.73118  0.85195  1.0000
  C   C1538     1.0  0.61405  0.74651  0.85499  1.0000
  P   P50       1.0  0.57949  0.72988  0.81271  1.0000
  C   C1539     1.0  0.58677  0.71957  0.77258  1.0000
  C   C1540     1.0  0.55446  0.71424  0.82190  1.0000
  C   C1541     1.0  0.54927  0.69378  0.82363  1.0000
  C   C1542     1.0  0.52982  0.68142  0.82891  1.0000
  C   C1543     1.0  0.55354  0.70401  0.94899  1.0000
  C   C1544     1.0  0.52031  0.70961  0.82984  1.0000
  C   C1545     1.0  0.53980  0.72208  0.82501  1.0000
  C   C1546     1.0  0.60632  0.72149  0.76823  1.0000
  C   C1547     1.0  0.61173  0.71357  0.73686  1.0000
  C   C1548     1.0  0.59766  0.70357  0.70976  1.0000
  C   C1549     1.0  0.57823  0.70173  0.71376  1.0000
  C   C1550     1.0  0.57281  0.70974  0.74490  1.0000
  C   C1551     1.0  0.58033  0.75423  0.80215  1.0000
  C   C1552     1.0  0.58589  0.76934  0.82928  1.0000
  C   C1553     1.0  0.58599  0.78796  0.82109  1.0000
  C   C1554     1.0  0.58014  0.79154  0.78615  1.0000
  C   C1555     1.0  0.57439  0.77657  0.75920  1.0000
  C   C1556     1.0  0.57440  0.75798  0.76709  1.0000
  H   H1231     1.0  0.64006  0.76055  0.88885  1.0000
  H   H1232     1.0  0.57574  0.70508  0.87851  1.0000
  H   H1233     1.0  0.61893  0.75740  0.83382  1.0000
  H   H1234     1.0  0.56019  0.68729  0.82034  1.0000
  H   H1235     1.0  0.53153  0.77817  0.83610  1.0000
  C   C1557     1.0  0.61208  0.64264  0.57754  1.0000
  C   C1558     1.0  0.62008  0.73456  0.91387  1.0000
  H   H1236     1.0  0.54315  0.73770  0.82284  1.0000
  H   H1237     1.0  0.61740  0.72903  0.78896  1.0000
  H   H1238     1.0  0.62682  0.71510  0.73369  1.0000
  H   H1239     1.0  0.60169  0.69725  0.68557  1.0000
  H   H1240     1.0  0.56725  0.69392  0.69283  1.0000
  H   H1241     1.0  0.55763  0.70813  0.74739  1.0000
  H   H1242     1.0  0.58967  0.76672  0.85705  1.0000
  H   H1243     1.0  0.59008  0.79956  0.84202  1.0000
  H   H1244     1.0  0.57969  0.80583  0.78021  1.0000
  H   H1245     1.0  0.56946  0.77927  0.73238  1.0000
  H   H1246     1.0  0.56926  0.74649  0.74602  1.0000
  H   H1247     1.0  0.48686  0.66770  0.66796  1.0000
  C   C1559     1.0  0.63573  0.67890  0.61950  1.0000
  C   C1560     1.0  0.64735  0.64432  0.61865  1.0000
  C   C1561     1.0  0.66574  0.65636  0.63368  1.0000
  C   C1562     1.0  0.68135  0.64985  0.63375  1.0000
  C   C1563     1.0  0.67876  0.63135  0.61883  1.0000
  C   C1564     1.0  0.66061  0.61940  0.60343  1.0000
  C   C1565     1.0  0.64491  0.62575  0.60361  1.0000
  C   C1566     1.0  0.64224  0.68950  0.65286  1.0000
  C   C1567     1.0  0.64931  0.71008  0.65369  1.0000
  C   C1568     1.0  0.65000  0.72023  0.62119  1.0000
  C   C1569     1.0  0.64344  0.70981  0.58796  1.0000
  C   C1570     1.0  0.63624  0.68926  0.58710  1.0000
  H   H1248     1.0  0.66823  0.67088  0.64473  1.0000
  H   H1249     1.0  0.69564  0.65926  0.64465  1.0000
  H   H1250     1.0  0.69094  0.62641  0.61862  1.0000
  H   H1251     1.0  0.65877  0.60525  0.59111  1.0000
  H   H1252     1.0  0.64208  0.68182  0.67806  1.0000
  H   H1253     1.0  0.65456  0.71818  0.67938  1.0000
  H   H1254     1.0  0.65582  0.73616  0.62160  1.0000
  H   H1255     1.0  0.64419  0.71753  0.56245  1.0000
  H   H1256     1.0  0.63136  0.68172  0.56084  1.0000
  C   C1571     1.0  0.68785  0.65466  0.73821  1.0000
  C   C1572     1.0  0.66968  0.62445  0.76968  1.0000
  C   C1573     1.0  0.67140  0.63719  0.74031  1.0000
  P   P51       1.0  0.64904  0.60130  0.77090  1.0000
  C   C1574     1.0  0.64421  0.59103  0.72451  1.0000
  C   C1575     1.0  0.62495  0.58075  0.71132  1.0000
  C   C1576     1.0  0.62150  0.57271  0.67550  1.0000
  C   C1577     1.0  0.63723  0.57461  0.65279  1.0000
  C   C1578     1.0  0.65642  0.58469  0.66579  1.0000
  C   C1579     1.0  0.65991  0.59302  0.70131  1.0000
  C   C1580     1.0  0.62771  0.60455  0.78926  1.0000
  C   C1581     1.0  0.62655  0.62321  0.79095  1.0000
  C   C1582     1.0  0.61000  0.62557  0.80522  1.0000
  C   C1583     1.0  0.59442  0.60933  0.81766  1.0000
  C   C1584     1.0  0.59544  0.59069  0.81611  1.0000
  C   C1585     1.0  0.61203  0.58829  0.80208  1.0000
  H   H1257     1.0  0.68939  0.66417  0.71503  1.0000
  H   H1258     1.0  0.66028  0.63336  0.71854  1.0000
  H   H1259     1.0  0.49372  0.87500  0.80340  1.0000
  H   H1260     1.0  0.61256  0.57871  0.72857  1.0000
  C   C1586     1.0  0.65286  0.58499  0.83803  1.0000
  H   H1261     1.0  0.62924  0.73612  0.93832  1.0000
  P   P52       1.0  0.62687  0.65229  0.61875  1.0000
  H   H1262     1.0  0.68350  0.62028  0.82043  1.0000
  H   H1263     1.0  0.49340  0.74134  0.74926  1.0000
  H   H1264     1.0  0.53249  0.70104  0.90542  1.0000
  H   H1265     1.0  0.62501  0.78417  0.49713  1.0000
  C   C1587     1.0  0.52925  0.94211  0.83916  1.0000
  C   C1588     1.0  0.70259  0.65961  0.76553  1.0000
  H   H1266     1.0  0.67325  0.67342  0.80160  1.0000
  C   C1589     1.0  0.62614  0.74830  0.88601  1.0000
  Fe  Fe111     1.0  0.72314  0.58379  0.88798  1.0000
  C   C1590     1.0  0.58949  0.63007  0.51237  1.0000
  S   S216      1.0  0.68084  0.61320  0.95298  1.0000
  C   C1591     1.0  0.56244  0.72665  0.57912  1.0000
  H   H1267     1.0  0.63371  0.67505  0.93745  1.0000
  H   H1268     1.0  0.55750  0.77287  0.87284  1.0000
  H   H1269     1.0  0.61258  0.57372  0.80111  1.0000
  H   H1270     1.0  0.53793  0.95672  0.82992  1.0000
  C   C1592     1.0  0.68434  0.62976  0.79745  1.0000
  C   C1593     1.0  0.64295  0.65775  0.89852  1.0000
  C   C1594     1.0  0.52115  0.70572  0.60141  1.0000
  H   H1271     1.0  0.59730  0.70832  0.93232  1.0000
  H   H1272     1.0  0.62658  0.68496  0.85467  1.0000
  H   H1273     1.0  0.62244  0.61949  0.66879  1.0000
  C   C1595     1.0  0.70079  0.64718  0.79513  1.0000
  C   C1596     1.0  0.66992  0.56012  0.80774  1.0000
  H   H1274     1.0  0.59320  0.76987  0.60201  1.0000
  P   P53       1.0  0.53713  0.72307  0.57025  1.0000
  C   C1597     1.0  0.69226  0.65624  0.52901  1.0000
  H   H1275     1.0  0.65187  0.77188  0.61586  1.0000
  C   C1598     1.0  0.54467  0.77416  0.92525  1.0000
  C   C1599     1.0  0.59496  0.79959  0.59288  1.0000
  Fe  Fe112     1.0  0.71655  0.56755  0.96816  1.0000
  H   H1276     1.0  0.53926  0.68834  0.60533  1.0000
  H   H1277     1.0  0.66756  0.57244  0.75600  1.0000
  C   C1600     1.0  0.51156  0.93872  0.85671  1.0000
  C   C1601     1.0  0.64554  0.77413  0.59008  1.0000
  C   C1602     1.0  0.61331  0.62717  0.67820  1.0000
  C   C1603     1.0  0.61268  0.64355  0.65951  1.0000
  H   H1278     1.0  0.58402  0.63366  0.60441  1.0000
  C   C1604     1.0  0.58705  0.78146  0.49849  1.0000
  C   C1605     1.0  0.65564  0.58482  0.79985  1.0000
  C   C1606     1.0  0.71550  0.59673  0.71139  1.0000
  H   H1279     1.0  0.52468  0.77747  0.63356  1.0000
  H   H1280     1.0  0.66316  0.95109  0.51903  1.0000
  C   C1607     1.0  0.52947  0.77258  0.60851  1.0000
  H   H1281     1.0  0.60187  0.60741  0.72297  1.0000
  H   H1282     1.0  0.54713  0.78916  0.52448  1.0000
  C   C1608     1.0  0.53032  0.75386  0.60641  1.0000
  C   C1609     1.0  0.54546  0.77470  0.88672  1.0000
  H   H1283     1.0  0.67712  0.55092  0.79629  1.0000
  C   C1610     1.0  0.63422  0.83950  0.59158  1.0000
  H   H1284     1.0  0.52652  0.74474  0.63041  1.0000
  H   H1285     1.0  0.55083  0.68843  0.94926  1.0000
  C   C1611     1.0  0.53624  0.74731  0.57390  1.0000
  H   H1286     1.0  0.66364  0.86189  0.50492  1.0000
  C   C1612     1.0  0.68474  0.67579  0.87627  1.0000
  H   H1287     1.0  0.58024  0.62416  0.74490  1.0000
  H   H1288     1.0  0.47758  0.69460  0.64450  1.0000
  C   C1613     1.0  0.53543  0.78523  0.57893  1.0000
  C   C1614     1.0  0.69796  0.65124  0.49496  1.0000
  P   P54       1.0  0.66137  0.67853  0.87757  1.0000
  C   C1615     1.0  0.60890  0.81705  0.91127  1.0000
  H   H1289     1.0  0.57036  0.82232  0.64277  1.0000
  C   C1616     1.0  0.52948  0.71228  0.52489  1.0000
  H   H1290     1.0  0.58393  0.89370  0.96125  1.0000
  H   H1291     1.0  0.50649  0.95067  0.86095  1.0000
  H   H1292     1.0  0.51006  0.72774  0.51411  1.0000
  C   C1617     1.0  0.59636  0.80038  0.51422  1.0000
  C   C1618     1.0  0.60172  0.62027  0.70900  1.0000
  S   S217      1.0  0.50033  0.62690  0.78298  1.0000
  H   H1293     1.0  0.62667  0.83332  0.61641  1.0000
  C   C1619     1.0  0.58875  0.78163  0.61119  1.0000
  C   C1620     1.0  0.63128  0.66051  0.92654  1.0000
  C   C1621     1.0  0.67453  0.73623  0.94460  1.0000
  C   C1622     1.0  0.54249  0.76022  0.54451  1.0000
  C   C1623     1.0  0.54215  0.77914  0.54708  1.0000
  C   C1624     1.0  0.66447  0.57246  0.78496  1.0000
  C   C1625     1.0  0.51533  0.68930  0.83179  1.0000
  C   C1626     1.0  0.67856  0.63316  0.97829  1.0000
  C   C1627     1.0  0.58734  0.78534  0.93357  1.0000
  Fe  Fe113     1.0  0.49646  0.60773  0.73166  1.0000
  C   C1628     1.0  0.57653  0.77871  0.64143  1.0000
  C   C1629     1.0  0.63260  0.67788  0.76378  1.0000
  H   H1294     1.0  0.59865  0.66471  0.65694  1.0000
  H   H1295     1.0  0.52593  0.66563  0.82982  1.0000
  C   C1630     1.0  0.70061  0.69020  0.85948  1.0000
  C   C1631     1.0  0.68093  0.98149  0.53357  1.0000
  C   C1632     1.0  0.63016  0.78101  0.52333  1.0000
  H   H1296     1.0  0.50327  0.78169  0.86711  1.0000
  H   H1297     1.0  0.50892  0.71560  0.83092  1.0000
  S   S218      1.0  0.48722  0.67227  0.75299  1.0000
  C   C1633     1.0  0.56036  0.74438  0.94906  1.0000
  C   C1634     1.0  0.60011  0.65267  0.67187  1.0000
  H   H1298     1.0  0.69349  0.94360  0.93204  1.0000
  H   H1299     1.0  0.57881  0.65277  0.71196  1.0000
  H   H1300     1.0  0.63944  0.82146  0.90813  1.0000
  C   C1635     1.0  0.65530  0.85570  0.52906  1.0000
  H   H1301     1.0  0.56447  0.62257  0.54716  1.0000
  H   H1302     1.0  0.59392  0.72831  0.65001  1.0000
  C   C1636     1.0  0.63372  0.78529  0.58955  1.0000
  C   C1637     1.0  0.65919  0.86658  0.56213  1.0000
  H   H1303     1.0  0.59146  0.82760  0.58877  1.0000
  C   C1638     1.0  0.64870  0.85845  0.59344  1.0000
  C   C1639     1.0  0.62563  0.78849  0.55617  1.0000
  C   C1640     1.0  0.62962  0.82883  0.55795  1.0000
  C   C1641     1.0  0.51383  0.77907  0.92177  1.0000
  H   H1304     1.0  0.67629  0.64984  0.90992  1.0000
  C   C1642     1.0  0.53064  0.77748  0.86586  1.0000
  C   C1643     1.0  0.51476  0.77955  0.88336  1.0000
  C   C1644     1.0  0.70926  0.95144  0.93286  1.0000
  H   H1305     1.0  0.64768  0.63621  0.86257  1.0000
  C   C1645     1.0  0.61232  0.62546  0.92669  1.0000
  H   H1306     1.0  0.66021  0.71734  0.85838  1.0000
  H   H1307     1.0  0.49873  0.71825  0.60091  1.0000
  S   S219      1.0  0.71230  0.60577  0.66717  1.0000
  C   C1646     1.0  0.62406  0.68139  0.79578  1.0000
  C   C1647     1.0  0.63341  0.68240  0.82995  1.0000
  H   H1308     1.0  0.60988  0.68278  0.79429  1.0000
  H   H1309     1.0  0.60696  0.64668  0.96206  1.0000
  C   C1648     1.0  0.60345  0.77951  0.93596  1.0000
  H   H1310     1.0  0.48683  0.91732  0.88285  1.0000
  C   C1649     1.0  0.59276  0.81621  0.49899  1.0000
  H   H1311     1.0  0.61107  0.83174  0.90235  1.0000
  C   C1650     1.0  0.51593  0.71720  0.50373  1.0000
  H   H1312     1.0  0.65873  0.75772  0.55738  1.0000
  C   C1651     1.0  0.64178  0.76970  0.52389  1.0000
  C   C1652     1.0  0.66867  0.73515  0.90761  1.0000
  C   C1653     1.0  0.66449  0.71770  0.88703  1.0000
  C   C1654     1.0  0.65980  0.67616  0.80026  1.0000
  H   H1313     1.0  0.63115  0.79172  0.61502  1.0000
  C   C1655     1.0  0.59023  0.80421  0.92090  1.0000
  C   C1656     1.0  0.66676  0.56010  0.84550  1.0000
  C   C1657     1.0  0.64947  0.76623  0.55725  1.0000
  C   C1658     1.0  0.50047  0.91992  0.86898  1.0000
  C   C1659     1.0  0.51361  0.67639  0.63763  1.0000
  H   H1314     1.0  0.71236  0.65074  0.81592  1.0000
  C   C1660     1.0  0.65059  0.67553  0.76594  1.0000
  H   H1315     1.0  0.67125  0.55065  0.86299  1.0000
  H   H1316     1.0  0.66559  0.60382  0.51008  1.0000
  H   H1317     1.0  0.66741  0.74788  0.89493  1.0000
  C   C1661     1.0  0.71704  0.60093  0.77901  1.0000
  C   C1662     1.0  0.68100  0.66815  0.53074  1.0000
  C   C1663     1.0  0.67488  0.67486  0.49849  1.0000
  C   C1664     1.0  0.65838  0.57265  0.86071  1.0000
  C   C1665     1.0  0.62487  0.81124  0.91437  1.0000
  H   H1318     1.0  0.67729  0.67250  0.55726  1.0000
  C   C1666     1.0  0.67298  0.96508  0.50906  1.0000
  H   H1319     1.0  0.69864  0.70238  0.84586  1.0000
  C   C1667     1.0  0.67664  0.72000  0.96082  1.0000
  H   H1320     1.0  0.54842  0.87432  0.96536  1.0000
  H   H1321     1.0  0.63458  0.78817  0.93040  1.0000
  C   C1668     1.0  0.55415  0.88204  0.94032  1.0000
  H   H1322     1.0  0.66190  0.96784  0.94151  1.0000
  S   S220      1.0  0.69092  0.54367  0.50547  1.0000
  H   H1323     1.0  0.67704  0.97988  0.56221  1.0000
  C   C1669     1.0  0.50325  0.70685  0.61145  1.0000
  C   C1670     1.0  0.70656  0.65982  0.89690  1.0000
  H   H1324     1.0  0.57819  0.80930  0.91953  1.0000
  H   H1325     1.0  0.54763  0.75565  0.51964  1.0000
  H   H1326     1.0  0.50013  0.67961  0.83444  1.0000
  H   H1327     1.0  0.65655  0.57310  0.89024  1.0000
  H   H1328     1.0  0.67751  0.74965  0.96076  1.0000
  H   H1329     1.0  0.70852  0.97076  0.89009  1.0000
  H   H1330     1.0  0.58073  0.62600  0.48710  1.0000
  C   C1671     1.0  0.72081  0.94618  0.95816  1.0000
  H   H1331     1.0  0.60197  0.76533  0.94632  1.0000
  C   C1672     1.0  0.53585  0.69764  0.51165  1.0000
  C   C1673     1.0  0.52598  0.69008  0.61392  1.0000
  H   H1332     1.0  0.69113  0.97371  0.62419  1.0000
  H   H1333     1.0  0.60048  0.61306  0.93765  1.0000
  C   C1674     1.0  0.49101  0.69325  0.63561  1.0000
  C   C1675     1.0  0.58033  0.62822  0.54625  1.0000
  H   H1334     1.0  0.60494  0.73458  0.53417  1.0000
  C   C1676     1.0  0.56736  0.71694  0.97348  1.0000
  H   H1335     1.0  0.58926  0.76896  0.51022  1.0000
  C   C1677     1.0  0.71751  0.57864  0.71559  1.0000
  Fe  Fe114     1.0  0.71881  0.59894  0.60744  1.0000
  H   H1336     1.0  0.57081  0.73086  0.52194  1.0000
  H   H1337     1.0  0.71983  0.55737  0.75387  1.0000
  C   C1678     1.0  0.48273  0.82720  0.82489  1.0000
  H   H1338     1.0  0.52776  0.77611  0.97240  1.0000
  S   S221      1.0  0.72200  0.57338  0.82717  1.0000
  H   H1339     1.0  0.71336  0.62162  0.74067  1.0000
  C   C1679     1.0  0.71895  0.57166  0.75115  1.0000
  H   H1340     1.0  0.71690  0.60965  0.80320  1.0000
  C   C1680     1.0  0.71791  0.96700  0.90917  1.0000
  C   C1681     1.0  0.65724  0.57340  0.49298  1.0000
  C   C1682     1.0  0.66324  0.59356  0.48705  1.0000
  H   H1341     1.0  0.71747  0.56979  0.69146  1.0000
  C   C1683     1.0  0.71906  0.58282  0.78317  1.0000
  C   C1684     1.0  0.65993  0.63419  0.98086  1.0000
  S   S222      1.0  0.57282  0.66446  0.98623  1.0000
  C   C1685     1.0  0.97388  0.27968  0.47418  1.0000
  Fe  Fe115     1.0  0.84505  0.29083  0.19701  1.0000
  S   S223      1.0  0.81742  0.29720  0.20209  1.0000
  S   S224      1.0  0.85691  0.27595  0.15252  1.0000
  Fe  Fe116     1.0  0.85600  0.29999  0.27938  1.0000
  S   S225      1.0  0.82968  0.30763  0.29003  1.0000
  S   S226      1.0  0.87976  0.29822  0.31899  1.0000
  Fe  Fe117     1.0  0.81274  0.28068  0.25508  1.0000
  S   S227      1.0  0.78522  0.25846  0.28024  1.0000
  Fe  Fe118     1.0  0.83616  0.32412  0.23664  1.0000
  S   S228      1.0  0.82978  0.35257  0.22876  1.0000
  S   S229      1.0  0.83877  0.27237  0.24765  1.0000
  S   S230      1.0  0.86404  0.31842  0.22840  1.0000
  H   H1342     1.0  0.81004  0.16578  0.44067  1.0000
  C   C1686     1.0  0.79319  0.34775  0.45967  1.0000
  C   C1687     1.0  0.92049  0.26091  0.14541  1.0000
  H   H1343     1.0  0.79403  0.10361  0.45101  1.0000
  H   H1344     1.0  0.76861  0.47475  0.35505  1.0000
  S   S231      1.0  0.86209  0.44724  0.24982  1.0000
  P   P55       1.0  0.82257  0.35563  0.36280  1.0000
  H   H1345     1.0  0.80127  0.31416  0.37827  1.0000
  H   H1346     1.0  0.80874  0.17633  0.18341  1.0000
  C   C1688     1.0  0.79343  0.21068  0.45532  1.0000
  P   P56       1.0  0.93918  0.29360  0.10236  1.0000
  C   C1689     1.0  0.75398  0.17499  0.32674  1.0000
  C   C1690     1.0  0.75899  0.48265  0.35938  1.0000
  C   C1691     1.0  0.76987  0.47459  0.23597  1.0000
  H   H1347     1.0  0.73911  0.14799  0.02438  1.0000
  C   C1692     1.0  0.94313  0.29594  0.02628  1.0000
  H   H1348     1.0  0.78340  0.21264  0.43511  1.0000
  C   C1693     1.0  0.73661  0.47436  0.23311  1.0000
  H   H1349     1.0  0.73588  0.46217  0.32515  1.0000
  H   H1350     1.0  0.90137  0.29223  0.12832  1.0000
  H   H1351     1.0  0.78264  0.32543  0.25144  1.0000
  H   H1352     1.0  0.83636  0.22873  0.08026  1.0000
  H   H1353     1.0  0.81066  0.24184  0.46043  1.0000
  C   C1694     1.0  0.87562  0.28843  0.36398  1.0000
  C   C1695     1.0  0.89080  0.28494  0.38285  1.0000
  C   C1696     1.0  0.88842  0.27795  0.41916  1.0000
  C   C1697     1.0  0.87088  0.27469  0.43729  1.0000
  C   C1698     1.0  0.85566  0.27808  0.41831  1.0000
  C   C1699     1.0  0.85791  0.28473  0.38179  1.0000
  H   H1354     1.0  0.90459  0.28783  0.36948  1.0000
  H   H1355     1.0  0.90031  0.27554  0.43343  1.0000
  H   H1356     1.0  0.84206  0.27568  0.43205  1.0000
  H   H1357     1.0  0.84612  0.28740  0.36770  1.0000
  C   C1700     1.0  0.85999  0.27556  0.10411  1.0000
  C   C1701     1.0  0.87066  0.26473  0.09010  1.0000
  C   C1702     1.0  0.87351  0.26359  0.05210  1.0000
  C   C1703     1.0  0.86565  0.27317  0.02724  1.0000
  C   C1704     1.0  0.85508  0.28419  0.04122  1.0000
  C   C1705     1.0  0.85225  0.28539  0.07947  1.0000
  H   H1358     1.0  0.87686  0.25715  0.10873  1.0000
  H   H1359     1.0  0.88197  0.25541  0.04223  1.0000
  H   H1360     1.0  0.84903  0.29181  0.02235  1.0000
  H   H1361     1.0  0.84407  0.29386  0.08980  1.0000
  C   C1706     1.0  0.83923  0.37896  0.23444  1.0000
  C   C1707     1.0  0.82647  0.38907  0.22908  1.0000
  C   C1708     1.0  0.83312  0.40983  0.23325  1.0000
  C   C1709     1.0  0.85273  0.42093  0.24295  1.0000
  C   C1710     1.0  0.86549  0.41081  0.24827  1.0000
  C   C1711     1.0  0.85885  0.39007  0.24403  1.0000
  H   H1362     1.0  0.81128  0.38077  0.22161  1.0000
  H   H1363     1.0  0.82303  0.41721  0.22908  1.0000
  H   H1364     1.0  0.88068  0.41910  0.25573  1.0000
  H   H1365     1.0  0.86899  0.38272  0.24794  1.0000
  H   H1366     1.0  0.95228  0.34269  0.20539  1.0000
  C   C1712     1.0  0.91041  0.24085  0.15125  1.0000
  C   C1713     1.0  0.75253  0.22432  0.27832  1.0000
  C   C1714     1.0  0.76657  0.23850  0.25727  1.0000
  C   C1715     1.0  0.76545  0.23639  0.21891  1.0000
  C   C1716     1.0  0.75023  0.22040  0.20180  1.0000
  H   H1367     1.0  0.76917  0.29192  0.27720  1.0000
  H   H1368     1.0  0.75333  0.22583  0.30803  1.0000
  H   H1369     1.0  0.77612  0.24724  0.20244  1.0000
  H   H1370     1.0  0.77855  0.28643  0.34040  1.0000
  H   H1371     1.0  0.79295  0.19489  0.38591  1.0000
  H   H1372     1.0  0.73713  0.18207  0.01058  1.0000
  H   H1373     1.0  0.89783  0.21188  0.12592  1.0000
  C   C1717     1.0  0.79744  0.34731  0.42235  1.0000
  H   H1374     1.0  0.90903  0.30793  0.07253  1.0000
  C   C1718     1.0  0.79652  0.31699  0.35136  1.0000
  H   H1375     1.0  0.92373  0.27114  0.16859  1.0000
  C   C1719     1.0  0.93295  0.29914  0.05657  1.0000
  H   H1376     1.0  0.74932  0.12787  0.45244  1.0000
  C   C1720     1.0  0.84719  0.20575  0.15356  1.0000
  H   H1377     1.0  0.82038  0.46388  0.36199  1.0000
  C   C1721     1.0  0.77254  0.18724  0.34012  1.0000
  C   C1722     1.0  0.73734  0.17415  0.46766  1.0000
  C   C1723     1.0  0.75164  0.16651  0.47694  1.0000
  H   H1378     1.0  0.96364  0.27056  0.11947  1.0000
  H   H1379     1.0  0.74949  0.17622  0.29862  1.0000
  H   H1380     1.0  0.78248  0.19800  0.32234  1.0000
  C   C1724     1.0  0.77842  0.30431  0.29422  1.0000
  C   C1725     1.0  0.73739  0.20824  0.26123  1.0000
  C   C1726     1.0  0.84088  0.21868  0.13380  1.0000
  S   S232      1.0  0.94872  0.24986  0.99128  1.0000
  H   H1381     1.0  0.75902  0.09915  0.45339  1.0000
  H   H1382     1.0  0.83640  0.22932  0.14819  1.0000
  H   H1383     1.0  0.82549  0.47810  0.06423  1.0000
  C   C1727     1.0  0.92171  0.25399  0.08030  1.0000
  C   C1728     1.0  0.80386  0.33605  0.33725  1.0000
  H   H1384     1.0  0.97224  0.32921  0.08497  1.0000
  H   H1385     1.0  0.85714  0.18145  0.14812  1.0000
  H   H1386     1.0  0.91712  0.33585  0.21510  1.0000
  C   C1729     1.0  0.80865  0.22729  0.46998  1.0000
  H   H1387     1.0  0.79658  0.40467  0.31818  1.0000
  C   C1730     1.0  0.84479  0.35119  0.35604  1.0000
  C   C1731     1.0  0.85496  0.35686  0.32325  1.0000
  C   C1732     1.0  0.87187  0.35301  0.31703  1.0000
  C   C1733     1.0  0.87855  0.34315  0.34332  1.0000
  C   C1734     1.0  0.86813  0.33684  0.37553  1.0000
  C   C1735     1.0  0.85120  0.34070  0.38181  1.0000
  C   C1736     1.0  0.82479  0.37962  0.34712  1.0000
  C   C1737     1.0  0.82803  0.41697  0.32350  1.0000
  C   C1738     1.0  0.84483  0.41348  0.33332  1.0000
  C   C1739     1.0  0.84326  0.39494  0.34534  1.0000
  H   H1388     1.0  0.86049  0.21843  0.27906  1.0000
  H   H1389     1.0  0.84956  0.36391  0.30219  1.0000
  H   H1390     1.0  0.87950  0.35725  0.29143  1.0000
  H   H1391     1.0  0.89146  0.33983  0.33825  1.0000
  H   H1392     1.0  0.87297  0.32852  0.39514  1.0000
  H   H1393     1.0  0.84300  0.33513  0.40634  1.0000
  H   H1394     1.0  0.95484  0.29052  0.03008  1.0000
  H   H1395     1.0  0.82944  0.43117  0.31294  1.0000
  H   H1396     1.0  0.85914  0.42505  0.33043  1.0000
  H   H1397     1.0  0.85649  0.39261  0.35275  1.0000
  C   C1740     1.0  0.79866  0.33895  0.30112  1.0000
  C   C1741     1.0  0.80957  0.40198  0.32617  1.0000
  C   C1742     1.0  0.77831  0.18564  0.37645  1.0000
  H   H1398     1.0  0.81803  0.44873  0.42302  1.0000
  C   C1743     1.0  0.72894  0.18764  0.10142  1.0000
  C   C1744     1.0  0.78594  0.32316  0.27978  1.0000
  C   C1745     1.0  0.97328  0.26747  0.98848  1.0000
  H   H1399     1.0  0.89977  0.31281  0.00963  1.0000
  C   C1746     1.0  0.74125  0.16097  0.34953  1.0000
  C   C1747     1.0  0.94131  0.33178  0.18815  1.0000
  C   C1748     1.0  0.79139  0.19179  0.46660  1.0000
  H   H1400     1.0  0.73832  0.18221  0.44258  1.0000
  C   C1749     1.0  0.81257  0.46039  0.41897  1.0000
  C   C1750     1.0  0.74687  0.15950  0.38597  1.0000
  H   H1401     1.0  0.78555  0.34054  0.40256  1.0000
  H   H1402     1.0  0.90604  0.23578  0.17873  1.0000
  H   H1403     1.0  0.90815  0.22355  0.06316  1.0000
  H   H1404     1.0  0.80506  0.35319  0.28867  1.0000
  C   C1751     1.0  0.80792  0.38342  0.33828  1.0000
  H   H1405     1.0  0.85722  0.18145  0.08025  1.0000
  H   H1406     1.0  0.72571  0.46363  0.13201  1.0000
  C   C1752     1.0  0.78738  0.17823  0.02306  1.0000
  C   C1753     1.0  0.76782  0.17086  0.03438  1.0000
  P   P57       1.0  0.76072  0.17986  0.07614  1.0000
  C   C1754     1.0  0.75805  0.16098  0.10918  1.0000
  C   C1755     1.0  0.77839  0.20331  0.09254  1.0000
  C   C1756     1.0  0.78165  0.20736  0.13050  1.0000
  C   C1757     1.0  0.79470  0.22577  0.14340  1.0000
  C   C1758     1.0  0.80434  0.24038  0.11852  1.0000
  C   C1759     1.0  0.80077  0.23668  0.08072  1.0000
  C   C1760     1.0  0.78765  0.21829  0.06775  1.0000
  C   C1761     1.0  0.77472  0.15790  0.12204  1.0000
  C   C1762     1.0  0.77280  0.14254  0.14596  1.0000
  C   C1763     1.0  0.75423  0.13024  0.15725  1.0000
  C   C1764     1.0  0.73756  0.13309  0.14422  1.0000
  C   C1765     1.0  0.73942  0.14826  0.11998  1.0000
  C   C1766     1.0  0.73818  0.18396  0.07028  1.0000
  H   H1407     1.0  0.78020  0.46785  0.22902  1.0000
  H   H1408     1.0  0.72701  0.15116  0.33890  1.0000
  C   C1767     1.0  0.85272  0.19185  0.09543  1.0000
  H   H1409     1.0  0.76177  0.47965  0.12663  1.0000
  H   H1410     1.0  0.75267  0.11832  0.17573  1.0000
  C   C1768     1.0  0.81689  0.35568  0.41084  1.0000
  H   H1411     1.0  0.79868  0.18965  0.03884  1.0000
  H   H1412     1.0  0.77372  0.19651  0.15016  1.0000
  H   H1413     1.0  0.79714  0.22884  0.17274  1.0000
  H   H1414     1.0  0.81446  0.25467  0.12857  1.0000
  H   H1415     1.0  0.80814  0.24815  0.06152  1.0000
  H   H1416     1.0  0.78464  0.21586  0.03842  1.0000
  H   H1417     1.0  0.78915  0.16721  0.11310  1.0000
  C   C1769     1.0  0.78369  0.30124  0.33002  1.0000
  H   H1418     1.0  0.74933  0.21907  0.17208  1.0000
  C   C1770     1.0  0.94688  0.32158  0.16040  1.0000
  H   H1419     1.0  0.78567  0.14007  0.15550  1.0000
  H   H1420     1.0  0.82781  0.14643  0.00737  1.0000
  H   H1421     1.0  0.73274  0.02582  0.31527  1.0000
  H   H1422     1.0  0.81945  0.13697  0.44428  1.0000
  C   C1771     1.0  0.97263  0.31417  0.25943  1.0000
  C   C1772     1.0  0.88575  0.26332  0.21796  1.0000
  C   C1773     1.0  0.88887  0.26498  0.25606  1.0000
  C   C1774     1.0  0.87992  0.24870  0.27789  1.0000
  C   C1775     1.0  0.86773  0.23077  0.26160  1.0000
  C   C1776     1.0  0.86422  0.22909  0.22329  1.0000
  C   C1777     1.0  0.87349  0.24547  0.20159  1.0000
  P   P58       1.0  0.84694  0.20629  0.20344  1.0000
  H   H1423     1.0  0.77492  0.17131  0.20202  1.0000
  C   C1778     1.0  0.85408  0.18721  0.22206  1.0000
  C   C1779     1.0  0.87336  0.18828  0.21770  1.0000
  C   C1780     1.0  0.87942  0.17403  0.23290  1.0000
  C   C1781     1.0  0.86633  0.15875  0.25292  1.0000
  C   C1782     1.0  0.84720  0.15775  0.25785  1.0000
  C   C1783     1.0  0.84108  0.17196  0.24263  1.0000
  H   H1424     1.0  0.77817  0.34114  0.46845  1.0000
  C   C1784     1.0  0.91220  0.30856  0.01439  1.0000
  C   C1785     1.0  0.82231  0.20311  0.21607  1.0000
  C   C1786     1.0  0.80636  0.18682  0.20211  1.0000
  C   C1787     1.0  0.78727  0.18390  0.21256  1.0000
  C   C1788     1.0  0.78395  0.19749  0.23614  1.0000
  C   C1789     1.0  0.79970  0.21389  0.24961  1.0000
  C   C1790     1.0  0.81880  0.21672  0.23966  1.0000
  H   H1425     1.0  0.89213  0.27609  0.20116  1.0000
  H   H1426     1.0  0.89775  0.27905  0.26883  1.0000
  H   H1427     1.0  0.88193  0.25024  0.30760  1.0000
  C   C1791     1.0  0.85280  0.19207  0.13399  1.0000
  H   H1428     1.0  0.87107  0.24480  0.17214  1.0000
  H   H1429     1.0  0.88372  0.20018  0.20263  1.0000
  H   H1430     1.0  0.89432  0.17492  0.22942  1.0000
  H   H1431     1.0  0.87108  0.14779  0.26493  1.0000
  H   H1432     1.0  0.83714  0.14606  0.27384  1.0000
  H   H1433     1.0  0.82634  0.17109  0.24759  1.0000
  C   C1792     1.0  0.74039  0.47544  0.34229  1.0000
  H   H1434     1.0  0.84693  0.37221  0.42838  1.0000
  C   C1793     1.0  0.75402  0.15477  0.01496  1.0000
  C   C1794     1.0  0.80413  0.46685  0.44805  1.0000
  H   H1435     1.0  0.76915  0.19545  0.24360  1.0000
  H   H1436     1.0  0.79716  0.22460  0.26759  1.0000
  H   H1437     1.0  0.83062  0.22967  0.25032  1.0000
  H   H1438     1.0  0.79352  0.37195  0.34016  1.0000
  C   C1795     1.0  0.83190  0.36515  0.43691  1.0000
  C   C1796     1.0  0.93780  0.29890  0.99047  1.0000
  C   C1797     1.0  0.77009  0.11374  0.45105  1.0000
  C   C1798     1.0  0.78981  0.11623  0.44913  1.0000
  C   C1799     1.0  0.80413  0.13503  0.44549  1.0000
  C   C1800     1.0  0.79875  0.15137  0.44415  1.0000
  C   C1801     1.0  0.77907  0.14909  0.44820  1.0000
  C   C1802     1.0  0.76469  0.13009  0.45060  1.0000
  P   P59       1.0  0.77208  0.17016  0.44733  1.0000
  C   C1803     1.0  0.76525  0.17220  0.40002  1.0000
  C   C1804     1.0  0.84684  0.20508  0.07610  1.0000
  H   H1439     1.0  0.73520  0.18793  0.12872  1.0000
  Fe  Fe119     1.0  0.85457  0.47528  0.24948  1.0000
  H   H1440     1.0  0.93218  0.27351  0.23777  1.0000
  H   H1441     1.0  0.89182  0.31077  0.17595  1.0000
  H   H1442     1.0  0.84706  0.20506  0.04620  1.0000
  C   C1805     1.0  0.84077  0.21836  0.09529  1.0000
  H   H1443     1.0  0.80303  0.46017  0.47471  1.0000
  C   C1806     1.0  0.75030  0.46615  0.22297  1.0000
  C   C1807     1.0  0.73281  0.47949  0.13456  1.0000
  C   C1808     1.0  0.90723  0.31384  0.17170  1.0000
  H   H1444     1.0  0.72622  0.14971  0.10940  1.0000
  C   C1809     1.0  0.91271  0.30348  0.14432  1.0000
  C   C1810     1.0  0.81397  0.46899  0.38459  1.0000
  H   H1445     1.0  0.96229  0.32466  0.15698  1.0000
  C   C1811     1.0  0.94731  0.28370  0.23779  1.0000
  C   C1812     1.0  0.91155  0.23396  0.08622  1.0000
  H   H1446     1.0  0.94241  0.30433  0.27534  1.0000
  H   H1447     1.0  0.95896  0.27411  0.46346  1.0000
  C   C1813     1.0  0.90581  0.22739  0.12161  1.0000
  H   H1448     1.0  0.92598  0.25865  0.05258  1.0000
  H   H1449     1.0  0.95651  0.26613  0.19994  1.0000
  C   C1814     1.0  0.93256  0.30747  0.13787  1.0000
  C   C1815     1.0  0.91748  0.30559  0.05028  1.0000
  H   H1450     1.0  0.74564  0.45293  0.20584  1.0000
  C   C1816     1.0  0.96533  0.29947  0.10333  1.0000
  C   C1817     1.0  0.92149  0.32795  0.19371  1.0000
  C   C1818     1.0  0.92614  0.26766  0.10983  1.0000
  C   C1819     1.0  0.73611  0.20629  0.22283  1.0000
  C   C1820     1.0  0.96103  0.27953  0.21664  1.0000
  C   C1821     1.0  0.95309  0.30105  0.25905  1.0000
  C   C1822     1.0  0.73000  0.18417  0.03518  1.0000
  H   H1451     1.0  0.73686  0.14843  0.40315  1.0000
  H   H1452     1.0  0.72660  0.19751  0.27769  1.0000
  H   H1453     1.0  0.72892  0.02352  0.38300  1.0000
  C   C1823     1.0  0.79264  0.17059  0.99122  1.0000
  C   C1824     1.0  0.79713  0.48194  0.44279  1.0000
  S   S233      1.0  0.89272  0.23320  0.99106  1.0000
  C   C1825     1.0  0.82761  0.36555  0.47419  1.0000
  C   C1826     1.0  0.97311  0.28525  0.11214  1.0000
  S   S234      1.0  0.86751  0.26729  0.48398  1.0000
  C   C1827     1.0  0.80827  0.35679  0.48560  1.0000
  Fe  Fe120     1.0  0.89540  0.23466  0.88473  1.0000
  S   S235      1.0  0.90570  0.21493  0.91991  1.0000
  S   S236      1.0  0.89917  0.22942  0.82298  1.0000
  Fe  Fe121     1.0  0.88312  0.25184  0.95373  1.0000
  S   S237      1.0  0.73376  0.09888  0.90703  1.0000
  Fe  Fe122     1.0  0.91988  0.24170  0.95720  1.0000
  H   H1454     1.0  0.84291  0.17039  0.90008  1.0000
  Fe  Fe123     1.0  0.87761  0.20851  0.95037  1.0000
  H   H1455     1.0  0.80497  0.35710  0.51451  1.0000
  S   S238      1.0  0.91101  0.26172  0.92101  1.0000
  S   S239      1.0  0.86665  0.22680  0.91394  1.0000
  C   C1828     1.0  0.75739  0.02831  0.59646  1.0000
  S   S240      1.0  0.72508  0.02021  0.98013  1.0000
  C   C1829     1.0  0.75611  0.03728  0.74636  1.0000
  S   S241      1.0  0.74237  0.05832  0.89684  1.0000
  H   H1456     1.0  0.85667  0.20805  0.79229  1.0000
  H   H1457     1.0  0.97003  0.27783  0.93483  1.0000
  Fe  Fe124     1.0  0.75766  0.08836  0.92335  1.0000
  S   S242      1.0  0.78839  0.10611  0.90304  1.0000
  C   C1830     1.0  0.96760  0.27681  0.67068  1.0000
  Fe  Fe125     1.0  0.92465  0.25094  0.54182  1.0000
  S   S243      1.0  0.91043  0.27199  0.55964  1.0000
  H   H1458     1.0  0.82112  0.06363  0.83757  1.0000
  Fe  Fe126     1.0  0.88459  0.21507  0.54650  1.0000
  S   S244      1.0  0.86893  0.23448  0.56438  1.0000
  S   S245      1.0  0.86892  0.18138  0.53961  1.0000
  Fe  Fe127     1.0  0.88580  0.25478  0.51996  1.0000
  Fe  Fe128     1.0  0.89505  0.24966  0.60224  1.0000
  S   S246      1.0  0.89110  0.25967  0.66103  1.0000
  S   S247      1.0  0.91018  0.22932  0.58648  1.0000
  Fe  Fe129     1.0  0.75878  0.09078  0.55081  1.0000
  S   S248      1.0  0.74392  0.11058  0.56980  1.0000
  S   S249      1.0  0.79165  0.10204  0.53937  1.0000
  C   C1831     1.0  0.78407  0.05096  0.63409  1.0000
  C   C1832     1.0  0.81910  0.20655  0.50920  1.0000
  H   H1459     1.0  0.80474  0.05975  0.77600  1.0000
  C   C1833     1.0  0.94462  0.22485  0.81399  1.0000
  S   S250      1.0  0.74581  0.06872  0.59505  1.0000
  C   C1834     1.0  0.84630  0.16044  0.54063  1.0000
  C   C1835     1.0  0.82814  0.16098  0.55117  1.0000
  C   C1836     1.0  0.81098  0.14338  0.55110  1.0000
  C   C1837     1.0  0.81197  0.12519  0.54059  1.0000
  C   C1838     1.0  0.83013  0.12490  0.53051  1.0000
  C   C1839     1.0  0.84698  0.14221  0.53053  1.0000
  H   H1460     1.0  0.82743  0.17487  0.55964  1.0000
  H   H1461     1.0  0.79710  0.14388  0.55907  1.0000
  H   H1462     1.0  0.75538  0.15628  0.71015  1.0000
  H   H1463     1.0  0.80165  0.17381  0.60696  1.0000
  H   H1464     1.0  0.73331  0.14613  0.55864  1.0000
  C   C1840     1.0  0.82154  0.22518  0.49666  1.0000
  H   H1465     1.0  0.93992  0.21127  0.79785  1.0000
  H   H1466     1.0  0.74471  0.14098  0.64832  1.0000
  H   H1467     1.0  0.78872  0.18104  0.72053  1.0000
  H   H1468     1.0  0.76052  0.06719  0.67332  1.0000
  C   C1841     1.0  0.77341  0.13192  0.82960  1.0000
  C   C1842     1.0  0.73199  0.09913  0.74758  1.0000
  H   H1469     1.0  0.80762  0.07189  0.60412  1.0000
  H   H1470     1.0  0.76429  0.09113  0.72355  1.0000
  C   C1843     1.0  0.89652  0.23802  0.77821  1.0000
  C   C1844     1.0  0.90293  0.23028  0.74748  1.0000
  C   C1845     1.0  0.90096  0.23632  0.71144  1.0000
  C   C1846     1.0  0.89281  0.25048  0.70558  1.0000
  C   C1847     1.0  0.88637  0.25821  0.73624  1.0000
  C   C1848     1.0  0.88806  0.25193  0.77225  1.0000
  H   H1471     1.0  0.90979  0.21976  0.75149  1.0000
  H   H1472     1.0  0.90627  0.23045  0.68832  1.0000
  H   H1473     1.0  0.88005  0.26919  0.73211  1.0000
  H   H1474     1.0  0.88279  0.25785  0.79534  1.0000
  C   C1849     1.0  0.83740  0.16040  0.95561  1.0000
  C   C1850     1.0  0.96320  0.28118  0.74660  1.0000
  C   C1851     1.0  0.80945  0.12923  0.96246  1.0000
  C   C1852     1.0  0.80609  0.12755  0.92434  1.0000
  C   C1853     1.0  0.81819  0.14258  0.90208  1.0000
  C   C1854     1.0  0.95141  0.24182  0.87332  1.0000
  C   C1855     1.0  0.74808  0.99007  0.70908  1.0000
  C   C1856     1.0  0.78596  0.05404  0.89621  1.0000
  H   H1475     1.0  0.83930  0.37271  0.49422  1.0000
  H   H1476     1.0  0.92654  0.27290  0.84593  1.0000
  H   H1477     1.0  0.74318  0.01651  0.59331  1.0000
  H   H1478     1.0  0.81970  0.15781  0.65118  1.0000
  C   C1857     1.0  0.78666  0.05611  0.93452  1.0000
  C   C1858     1.0  0.77252  0.15680  0.62376  1.0000
  H   H1479     1.0  0.76316  0.12214  0.84836  1.0000
  C   C1859     1.0  0.84528  0.21036  0.77605  1.0000
  C   C1860     1.0  0.83523  0.22141  0.79103  1.0000
  C   C1861     1.0  0.82106  0.22512  0.76979  1.0000
  C   C1862     1.0  0.81702  0.21786  0.73349  1.0000
  C   C1863     1.0  0.82701  0.20666  0.71827  1.0000
  C   C1864     1.0  0.84119  0.20294  0.73988  1.0000
  P   P60       1.0  0.82215  0.19821  0.67074  1.0000
  C   C1865     1.0  0.79761  0.17985  0.66416  1.0000
  C   C1866     1.0  0.82560  0.21980  0.64368  1.0000
  C   C1867     1.0  0.84041  0.23786  0.65406  1.0000
  C   C1868     1.0  0.84388  0.25452  0.63285  1.0000
  C   C1869     1.0  0.83245  0.25343  0.60128  1.0000
  C   C1870     1.0  0.81730  0.23573  0.59125  1.0000
  C   C1871     1.0  0.81387  0.21899  0.61225  1.0000
  C   C1872     1.0  0.84006  0.18821  0.65655  1.0000
  C   C1873     1.0  0.83464  0.16798  0.64877  1.0000
  C   C1874     1.0  0.84857  0.16061  0.63679  1.0000
  C   C1875     1.0  0.86813  0.17318  0.63394  1.0000
  C   C1876     1.0  0.87379  0.19311  0.64320  1.0000
  C   C1877     1.0  0.85983  0.20067  0.65395  1.0000
  C   C1878     1.0  0.78446  0.17453  0.69333  1.0000
  H   H1480     1.0  0.83873  0.22737  0.81891  1.0000
  H   H1481     1.0  0.81349  0.23395  0.78128  1.0000
  H   H1482     1.0  0.80631  0.22122  0.71706  1.0000
  H   H1483     1.0  0.79086  0.05658  0.66069  1.0000
  H   H1484     1.0  0.84965  0.23911  0.67821  1.0000
  H   H1485     1.0  0.85583  0.26818  0.64047  1.0000
  H   H1486     1.0  0.83552  0.26625  0.58439  1.0000
  H   H1487     1.0  0.80836  0.23494  0.56686  1.0000
  H   H1488     1.0  0.80210  0.20563  0.60345  1.0000
  H   H1489     1.0  0.76799  0.14989  0.59686  1.0000
  H   H1490     1.0  0.87883  0.16763  0.62350  1.0000
  H   H1491     1.0  0.88895  0.20282  0.64108  1.0000
  H   H1492     1.0  0.86457  0.21626  0.66015  1.0000
  H   H1493     1.0  0.84414  0.14528  0.62859  1.0000
  H   H1494     1.0  0.90020  0.28527  0.85407  1.0000
  C   C1879     1.0  0.77531  0.03577  0.87926  1.0000
  H   H1495     1.0  0.84944  0.19471  0.72887  1.0000
  H   H1496     1.0  0.78730  0.17820  0.79665  1.0000
  H   H1497     1.0  0.95952  0.27311  0.87246  1.0000
  S   S251      1.0  0.74529  0.07807  0.97904  1.0000
  H   H1498     1.0  0.95218  0.24144  0.90315  1.0000
  C   C1880     1.0  0.77354  0.15078  0.82417  1.0000
  C   C1881     1.0  0.76548  0.16051  0.68759  1.0000
  H   H1499     1.0  0.79241  0.05973  0.54294  1.0000
  C   C1882     1.0  0.75944  0.15184  0.65271  1.0000
  C   C1883     1.0  0.72679  0.01472  0.66193  1.0000
  H   H1500     1.0  0.79424  0.07048  0.94747  1.0000
  S   S252      1.0  0.90050  0.23457  0.50006  1.0000
  C   C1884     1.0  0.76558  0.03556  0.63148  1.0000
  C   C1885     1.0  0.75760  0.05091  0.77477  1.0000
  H   H1501     1.0  0.81553  0.14146  0.87271  1.0000
  C   C1886     1.0  0.94023  0.29245  0.80164  1.0000
  C   C1887     1.0  0.92621  0.28464  0.82874  1.0000
  C   C1888     1.0  0.91105  0.29154  0.83328  1.0000
  C   C1889     1.0  0.90955  0.30605  0.81039  1.0000
  C   C1890     1.0  0.92329  0.31375  0.78304  1.0000
  C   C1891     1.0  0.93860  0.30705  0.77872  1.0000
  C   C1892     1.0  0.94877  0.24277  0.79646  1.0000
  H   H1502     1.0  0.74854  0.13473  0.96842  1.0000
  C   C1893     1.0  0.82068  0.07638  0.82351  1.0000
  H   H1503     1.0  0.75347  0.02229  0.75335  1.0000
  H   H1504     1.0  0.78266  0.14921  0.94655  1.0000
  H   H1505     1.0  0.76135  0.08077  0.78853  1.0000
  H   H1506     1.0  0.94732  0.24275  0.76679  1.0000
  C   C1894     1.0  0.77677  0.03988  0.95594  1.0000
  C   C1895     1.0  0.76044  0.00524  0.68745  1.0000
  C   C1896     1.0  0.94905  0.27330  0.68464  1.0000
  C   C1897     1.0  0.94684  0.27540  0.72242  1.0000
  C   C1898     1.0  0.76714  0.03689  0.56470  1.0000
  C   C1899     1.0  0.81152  0.07421  0.78887  1.0000
  C   C1900     1.0  0.79371  0.05957  0.60220  1.0000
  P   P61       1.0  0.75280  0.02470  0.67259  1.0000
  C   C1901     1.0  0.77876  0.00508  0.67767  1.0000
  H   H1507     1.0  0.77426  0.03462  0.84953  1.0000
  H   H1508     1.0  0.89760  0.31112  0.81357  1.0000
  H   H1509     1.0  0.78856  0.01656  0.66101  1.0000
  H   H1510     1.0  0.92195  0.32479  0.76490  1.0000
  H   H1511     1.0  0.94903  0.31309  0.75720  1.0000
  H   H1512     1.0  0.75571  0.04634  0.80314  1.0000
  H   H1513     1.0  0.96921  0.27512  0.64128  1.0000
  H   H1514     1.0  0.76035  0.03170  0.53786  1.0000
  C   C1902     1.0  0.83366  0.15900  0.91757  1.0000
  S   S253      1.0  0.73494  0.07385  0.50898  1.0000
  C   C1903     1.0  0.75934  0.14711  0.98327  1.0000
  S   S254      1.0  0.73292  0.10023  0.67176  1.0000
  H   H1515     1.0  0.94223  0.21045  0.86599  1.0000
  H   H1516     1.0  0.93632  0.26893  0.66613  1.0000
  C   C1904     1.0  0.76391  0.98655  0.84894  1.0000
  C   C1905     1.0  0.79158  0.17050  0.62955  1.0000
  C   C1906     1.0  0.78708  0.16351  0.80059  1.0000
  C   C1907     1.0  0.80051  0.15738  0.78252  1.0000
  C   C1908     1.0  0.80058  0.13851  0.78816  1.0000
  C   C1909     1.0  0.78680  0.12574  0.81156  1.0000
  P   P62       1.0  0.81811  0.13090  0.76482  1.0000
  C   C1910     1.0  0.81948  0.10956  0.78742  1.0000
  C   C1911     1.0  0.81072  0.12462  0.71702  1.0000
  C   C1912     1.0  0.82130  0.11651  0.69455  1.0000
  C   C1913     1.0  0.81499  0.11045  0.65828  1.0000
  C   C1914     1.0  0.79793  0.11214  0.64434  1.0000
  C   C1915     1.0  0.78726  0.12003  0.66649  1.0000
  C   C1916     1.0  0.79364  0.12638  0.70260  1.0000
  C   C1917     1.0  0.82832  0.11149  0.82258  1.0000
  C   C1918     1.0  0.82890  0.09498  0.84049  1.0000
  H   H1517     1.0  0.94542  0.29585  0.96736  1.0000
  C   C1919     1.0  0.75726  0.04290  0.70940  1.0000
  C   C1920     1.0  0.81084  0.09069  0.77097  1.0000
  C   C1921     1.0  0.84178  0.15090  0.76995  1.0000
  C   C1922     1.0  0.84734  0.16112  0.80393  1.0000
  C   C1923     1.0  0.86603  0.17565  0.80927  1.0000
  C   C1924     1.0  0.87915  0.18053  0.78044  1.0000
  C   C1925     1.0  0.87349  0.17119  0.74600  1.0000
  C   C1926     1.0  0.85489  0.15641  0.74072  1.0000
  C   C1927     1.0  0.76073  0.07035  0.76657  1.0000
  H   H1518     1.0  0.81097  0.16739  0.76444  1.0000
  H   H1519     1.0  0.78658  0.11118  0.81682  1.0000
  H   H1520     1.0  0.83428  0.11463  0.70527  1.0000
  H   H1521     1.0  0.82328  0.10444  0.64088  1.0000
  H   H1522     1.0  0.79287  0.10724  0.61642  1.0000
  H   H1523     1.0  0.77383  0.12093  0.65573  1.0000
  H   H1524     1.0  0.78482  0.13209  0.71923  1.0000
  H   H1525     1.0  0.83450  0.12559  0.83676  1.0000
  H   H1526     1.0  0.83549  0.09667  0.86787  1.0000
  S   S255      1.0  0.95856  0.26189  0.54079  1.0000
  C   C1928     1.0  0.78519  0.05264  0.56756  1.0000
  H   H1527     1.0  0.80328  0.08851  0.74457  1.0000
  H   H1528     1.0  0.83733  0.15787  0.82653  1.0000
  H   H1529     1.0  0.87034  0.18336  0.83568  1.0000
  H   H1530     1.0  0.89362  0.19176  0.78490  1.0000
  H   H1531     1.0  0.88353  0.17546  0.72337  1.0000
  H   H1532     1.0  0.85097  0.14953  0.71380  1.0000
  C   C1929     1.0  0.76035  0.06251  0.70147  1.0000
  C   C1930     1.0  0.76236  0.07618  0.72999  1.0000
  H   H1533     1.0  0.86077  0.14145  0.52245  1.0000
  H   H1534     1.0  0.79277  0.06695  0.87983  1.0000
  C   C1931     1.0  0.95423  0.26035  0.81734  1.0000
  H   H1535     1.0  0.93232  0.27248  0.73270  1.0000
  H   H1536     1.0  0.76324  0.15554  0.83853  1.0000
  Fe  Fe130     1.0  0.72972  0.08786  0.61244  1.0000
  P   P63       1.0  0.96001  0.28374  0.79538  1.0000
  C   C1932     1.0  0.73462  0.15416  0.53345  1.0000
  C   C1933     1.0  0.94588  0.22437  0.85238  1.0000
  H   H1537     1.0  0.91765  0.30678  0.95673  1.0000
  C   C1934     1.0  0.76537  0.01934  0.90061  1.0000
  C   C1935     1.0  0.72979  0.99950  0.81362  1.0000
  H   H1538     1.0  0.74279  0.11397  0.74677  1.0000
  H   H1539     1.0  0.77660  0.04164  0.98559  1.0000
  C   C1936     1.0  0.75038  0.15680  0.51034  1.0000
  C   C1937     1.0  0.95555  0.25973  0.85589  1.0000
  C   C1938     1.0  0.73169  0.00204  0.85210  1.0000
  C   C1939     1.0  0.77858  0.15517  0.97114  1.0000
  C   C1940     1.0  0.76614  0.02158  0.93912  1.0000
  H   H1540     1.0  0.73205  0.09859  0.80722  1.0000
  H   H1541     1.0  0.83124  0.11111  0.52236  1.0000
  H   H1542     1.0  0.82922  0.20505  0.52983  1.0000
  H   H1543     1.0  0.75782  0.00958  0.95637  1.0000
  S   S256      1.0  0.85743  0.18006  0.97660  1.0000
  P   P64       1.0  0.75000  0.99646  0.87800  1.0000
  H   H1544     1.0  0.76139  0.15104  0.51831  1.0000
  H   H1545     1.0  0.79215  0.01000  0.85999  1.0000
  S   S257      1.0  0.86906  0.27202  0.97889  1.0000
  H   H1546     1.0  0.80770  0.17644  0.98233  1.0000
  Fe  Fe131     1.0  0.72764  0.04871  0.95098  1.0000
  C   C1941     1.0  0.78451  0.98988  0.68907  1.0000
  C   C1942     1.0  0.78425  0.99623  0.84551  1.0000
  H   H1547     1.0  0.80216  0.17564  0.50511  1.0000
  C   C1943     1.0  0.72602  0.09041  0.78196  1.0000
  H   H1548     1.0  0.73389  0.98990  0.71695  1.0000
  C   C1944     1.0  0.79478  0.98784  0.82388  1.0000
  C   C1945     1.0  0.82510  0.14548  0.97792  1.0000
  H   H1549     1.0  0.83344  0.23801  0.50776  1.0000
  H   H1550     1.0  0.72640  0.98683  0.64032  1.0000
  H   H1551     1.0  0.80036  0.11775  0.97996  1.0000
  H   H1552     1.0  0.81049  0.99532  0.82152  1.0000
  H   H1553     1.0  0.73907  0.99376  0.79848  1.0000
  H   H1554     1.0  0.79858  0.98973  0.68107  1.0000
  C   C1946     1.0  0.80392  0.18993  0.49467  1.0000
  C   C1947     1.0  0.92225  0.30510  0.98451  1.0000
  Fe  Fe132     1.0  0.86898  0.51511  0.29297  1.0000
  S   S258      1.0  0.88991  0.53869  0.33216  1.0000
  H   H1555     1.0  0.74854  0.55699  0.02665  1.0000
  S   S259      1.0  0.87006  0.53901  0.16761  1.0000
  S   S260      1.0  0.85029  0.52591  0.25770  1.0000
  C   C1948     1.0  0.79880  0.49090  0.40845  1.0000
  C   C1949     1.0  0.95071  0.63237  0.44047  1.0000
  H   H1556     1.0  0.74138  0.60835  0.08343  1.0000
  C   C1950     1.0  0.83053  0.55351  0.31997  1.0000
  H   H1557     1.0  0.96384  0.57042  0.38600  1.0000
  H   H1558     1.0  0.74326  0.55221  0.28438  1.0000
  H   H1559     1.0  0.93612  0.57929  0.43134  1.0000
  C   C1951     1.0  0.87458  0.54197  0.11970  1.0000
  C   C1952     1.0  0.88187  0.56115  0.10601  1.0000
  C   C1953     1.0  0.88532  0.56444  0.06821  1.0000
  C   C1954     1.0  0.88129  0.54855  0.04339  1.0000
  C   C1955     1.0  0.87411  0.52936  0.05706  1.0000
  C   C1956     1.0  0.87091  0.52607  0.09504  1.0000
  H   H1560     1.0  0.88488  0.57357  0.12481  1.0000
  H   H1561     1.0  0.89088  0.57927  0.05826  1.0000
  H   H1562     1.0  0.87101  0.51695  0.03819  1.0000
  H   H1563     1.0  0.86554  0.51125  0.10517  1.0000
  C   C1957     1.0  0.88637  0.54424  0.37866  1.0000
  C   C1958     1.0  0.89782  0.56287  0.39388  1.0000
  C   C1959     1.0  0.89580  0.56779  0.43089  1.0000
  C   C1960     1.0  0.88260  0.55394  0.45333  1.0000
  C   C1961     1.0  0.87087  0.53544  0.43793  1.0000
  C   C1962     1.0  0.87269  0.53061  0.40079  1.0000
  H   H1564     1.0  0.90833  0.57357  0.37695  1.0000
  H   H1565     1.0  0.90462  0.58219  0.44222  1.0000
  H   H1566     1.0  0.86053  0.52465  0.45502  1.0000
  H   H1567     1.0  0.86380  0.51621  0.38948  1.0000
  C   C1963     1.0  0.73999  0.51232  0.00691  1.0000
  C   C1964     1.0  0.93575  0.57045  0.31102  1.0000
  C   C1965     1.0  0.78731  0.63381  0.40766  1.0000
  H   H1568     1.0  0.73684  0.55550  0.37092  1.0000
  C   C1966     1.0  0.94552  0.64872  0.44534  1.0000
  H   H1569     1.0  0.75248  0.64158  0.05682  1.0000
  H   H1570     1.0  0.81134  0.53653  0.10253  1.0000
  H   H1571     1.0  0.80410  0.55355  0.29403  1.0000
  C   C1967     1.0  0.82687  0.63315  0.31528  1.0000
  H   H1572     1.0  0.84757  0.56947  0.43019  1.0000
  H   H1573     1.0  0.82729  0.62141  0.26069  1.0000
  C   C1968     1.0  0.74271  0.49148  0.25506  1.0000
  C   C1969     1.0  0.81732  0.50184  0.04580  1.0000
  C   C1970     1.0  0.94707  0.58065  0.14234  1.0000
  P   P65       1.0  0.80236  0.60399  0.40805  1.0000
  C   C1971     1.0  0.96058  0.66951  0.11467  1.0000
  H   H1574     1.0  0.82469  0.64062  0.37197  1.0000
  Fe  Fe133     1.0  0.86020  0.51374  0.20840  1.0000
  H   H1575     1.0  0.97045  0.67647  0.37503  1.0000
  C   C1972     1.0  0.96159  0.60079  0.06334  1.0000
  H   H1576     1.0  0.78237  0.53238  0.33947  1.0000
  H   H1577     1.0  0.93651  0.62174  0.15576  1.0000
  C   C1973     1.0  0.76517  0.50017  0.38060  1.0000
  C   C1974     1.0  0.83751  0.56599  0.05096  1.0000
  C   C1975     1.0  0.95674  0.57619  0.36545  1.0000
  C   C1976     1.0  0.93992  0.57628  0.02020  1.0000
  C   C1977     1.0  0.93679  0.58984  0.31340  1.0000
  C   C1978     1.0  0.79796  0.53623  0.34276  1.0000
  C   C1979     1.0  0.81750  0.64210  0.99988  1.0000
  C   C1980     1.0  0.75491  0.55222  0.08297  1.0000
  C   C1981     1.0  0.80567  0.59423  0.33435  1.0000
  H   H1578     1.0  0.76540  0.54770  0.23845  1.0000
  H   H1579     1.0  0.78687  0.63254  0.37795  1.0000
  C   C1982     1.0  0.82736  0.58425  0.42185  1.0000
  C   C1983     1.0  0.75531  0.56384  0.05259  1.0000
  H   H1580     1.0  0.93157  0.55275  0.16737  1.0000
  H   H1581     1.0  0.73067  0.66046  0.05784  1.0000
  C   C1984     1.0  0.79457  0.62397  0.46759  1.0000
  H   H1582     1.0  0.81781  0.57281  0.40337  1.0000
  C   C1985     1.0  0.77195  0.58170  0.11987  1.0000
  H   H1583     1.0  0.79810  0.57905  0.34163  1.0000
  P   P66       1.0  0.80709  0.53296  0.02227  1.0000
  C   C1986     1.0  0.81334  0.51846  0.05632  1.0000
  C   C1987     1.0  0.81419  0.52372  0.09383  1.0000
  C   C1988     1.0  0.81907  0.51262  0.12037  1.0000
  C   C1989     1.0  0.84412  0.58225  0.43692  1.0000
  H   H1584     1.0  0.91235  0.59933  0.19687  1.0000
  H   H1585     1.0  0.84715  0.65593  0.02046  1.0000
  C   C1990     1.0  0.81824  0.55862  0.03651  1.0000
  H   H1586     1.0  0.86941  0.59501  0.47288  1.0000
  C   C1991     1.0  0.84681  0.58594  0.06044  1.0000
  C   C1992     1.0  0.83683  0.59866  0.05620  1.0000
  C   C1993     1.0  0.81745  0.59137  0.04301  1.0000
  C   C1994     1.0  0.80816  0.57145  0.03313  1.0000
  H   H1587     1.0  0.82709  0.48771  0.13018  1.0000
  C   C1995     1.0  0.81031  0.54855  0.31706  1.0000
  H   H1588     1.0  0.82031  0.51702  0.14921  1.0000
  P   P67       1.0  0.78956  0.51023  0.40131  1.0000
  C   C1996     1.0  0.82208  0.49070  0.07245  1.0000
  H   H1589     1.0  0.94550  0.68254  0.07856  1.0000
  H   H1590     1.0  0.75255  0.60878  0.36211  1.0000
  H   H1591     1.0  0.77279  0.65451  0.40793  1.0000
  H   H1592     1.0  0.77407  0.50536  0.06282  1.0000
  H   H1593     1.0  0.80984  0.60134  0.03927  1.0000
  C   C1997     1.0  0.96997  0.64771  0.38801  1.0000
  H   H1594     1.0  0.86195  0.59163  0.07016  1.0000
  H   H1595     1.0  0.80868  0.58693  0.27756  1.0000
  C   C1998     1.0  0.72507  0.60302  0.33339  1.0000
  H   H1596     1.0  0.84553  0.55636  0.05404  1.0000
  S   S261      1.0  0.88467  0.55205  0.99523  1.0000
  H   H1597     1.0  0.94789  0.61720  0.34346  1.0000
  H   H1598     1.0  0.84011  0.56270  0.29964  1.0000
  C   C1999     1.0  0.76608  0.57567  0.38568  1.0000
  H   H1599     1.0  0.73825  0.49444  0.05411  1.0000
  H   H1600     1.0  0.78807  0.57824  0.47003  1.0000
  C   C2000     1.0  0.83619  0.61589  0.45334  1.0000
  C   C2001     1.0  0.73736  0.60694  0.36465  1.0000
  Fe  Fe134     1.0  0.82655  0.49632  0.26287  1.0000
  H   H1601     1.0  0.82038  0.54048  0.44543  1.0000
  C   C2002     1.0  0.95581  0.57798  0.99820  1.0000
  C   C2003     1.0  0.96596  0.59706  0.44793  1.0000
  C   C2004     1.0  0.77256  0.59324  0.08927  1.0000
  C   C2005     1.0  0.73406  0.50335  0.36653  1.0000
  H   H1602     1.0  0.84430  0.61427  0.06225  1.0000
  C   C2006     1.0  0.85278  0.61369  0.46872  1.0000
  S   S262      1.0  0.88041  0.50425  0.24354  1.0000
  C   C2007     1.0  0.80957  0.60939  0.36097  1.0000
  H   H1603     1.0  0.75744  0.52441  0.39879  1.0000
  C   C2008     1.0  0.73087  0.51118  0.14766  1.0000
  C   C2009     1.0  0.82319  0.60103  0.43020  1.0000
  C   C2010     1.0  0.82236  0.61806  0.28862  1.0000
  H   H1604     1.0  0.94538  0.62050  0.45971  1.0000
  P   P68       1.0  0.96492  0.61558  0.10507  1.0000
  C   C2011     1.0  0.85666  0.59682  0.46072  1.0000
  H   H1605     1.0  0.75932  0.50415  0.45711  1.0000
  H   H1606     1.0  0.94887  0.67739  0.42622  1.0000
  C   C2012     1.0  0.75323  0.55134  0.22909  1.0000
  C   C2013     1.0  0.78630  0.63622  0.48439  1.0000
  H   H1607     1.0  0.92657  0.56042  0.28992  1.0000
  S   S263      1.0  0.84469  0.48590  0.30161  1.0000
  C   C2014     1.0  0.93321  0.56803  0.16559  1.0000
  C   C2015     1.0  0.80568  0.52809  0.37080  1.0000
  H   H1608     1.0  0.94287  0.62532  0.04541  1.0000
  H   H1609     1.0  0.77942  0.60914  0.09155  1.0000
  C   C2016     1.0  0.81183  0.59861  0.29817  1.0000
  C   C2017     1.0  0.83839  0.54595  0.34835  1.0000
  C   C2018     1.0  0.82605  0.53314  0.37347  1.0000
  C   C2019     1.0  0.94732  0.58249  0.45271  1.0000
  C   C2020     1.0  0.94860  0.60022  0.13862  1.0000
  H   H1610     1.0  0.85404  0.54946  0.34997  1.0000
  H   H1611     1.0  0.83238  0.52679  0.39434  1.0000
  C   C2021     1.0  0.96313  0.63180  0.41193  1.0000
  S   S264      1.0  0.79908  0.50070  0.28092  1.0000
  H   H1612     1.0  0.76653  0.51249  0.28664  1.0000
  C   C2022     1.0  0.76235  0.50888  0.13709  1.0000
  C   C2023     1.0  0.75136  0.52035  0.14599  1.0000
  C   C2024     1.0  0.79522  0.62269  0.42914  1.0000
  P   P69       1.0  0.76353  0.54642  0.15629  1.0000
  C   C2025     1.0  0.94780  0.60246  0.34178  1.0000
  C   C2026     1.0  0.78841  0.55066  0.17181  1.0000
  C   C2027     1.0  0.79167  0.53897  0.19947  1.0000
  C   C2028     1.0  0.81073  0.54100  0.20974  1.0000
  C   C2029     1.0  0.82675  0.55437  0.19199  1.0000
  C   C2030     1.0  0.82374  0.56576  0.16391  1.0000
  C   C2031     1.0  0.80470  0.56391  0.15373  1.0000
  C   C2032     1.0  0.74940  0.55259  0.19137  1.0000
  H   H1613     1.0  0.79056  0.48662  0.46565  1.0000
  C   C2033     1.0  0.94915  0.66979  0.08374  1.0000
  C   C2034     1.0  0.78956  0.52193  0.44558  1.0000
  C   C2035     1.0  0.74822  0.56038  0.39224  1.0000
  C   C2036     1.0  0.76356  0.56106  0.11669  1.0000
  H   H1614     1.0  0.80837  0.49066  0.35243  1.0000
  C   C2037     1.0  0.73203  0.61673  0.08445  1.0000
  C   C2038     1.0  0.95787  0.59573  0.36813  1.0000
  H   H1615     1.0  0.90961  0.56478  0.20240  1.0000
  C   C2039     1.0  0.74467  0.55185  0.42683  1.0000
  C   C2040     1.0  0.76427  0.58430  0.05559  1.0000
  C   C2041     1.0  0.76215  0.49972  0.26845  1.0000
  C   C2042     1.0  0.82065  0.62882  0.35139  1.0000
  H   H1616     1.0  0.77810  0.51547  0.13517  1.0000
  H   H1617     1.0  0.95611  0.57494  0.12625  1.0000
  H   H1618     1.0  0.77948  0.52766  0.21219  1.0000
  H   H1619     1.0  0.81306  0.53173  0.23074  1.0000
  H   H1620     1.0  0.84149  0.55543  0.19923  1.0000
  H   H1621     1.0  0.83619  0.57562  0.14929  1.0000
  H   H1622     1.0  0.80294  0.57233  0.13080  1.0000
  C   C2043     1.0  0.94570  0.56363  0.33704  1.0000
  H   H1623     1.0  0.93011  0.58633  0.06880  1.0000
  C   C2044     1.0  0.75264  0.51056  0.38367  1.0000
  C   C2045     1.0  0.77267  0.51577  0.46698  1.0000
  H   H1624     1.0  0.76797  0.58294  0.35959  1.0000
  H   H1625     1.0  0.74763  0.53643  0.08009  1.0000
  H   H1626     1.0  0.93397  0.65394  0.03484  1.0000
  C   C2046     1.0  0.96481  0.66407  0.39306  1.0000
  C   C2047     1.0  0.78092  0.58189  0.41316  1.0000
  P   P70       1.0  0.97100  0.61133  0.40664  1.0000
  C   C2048     1.0  0.74072  0.55401  0.25544  1.0000
  C   C2049     1.0  0.96540  0.65309  0.12106  1.0000
  C   C2050     1.0  0.94260  0.65368  0.05917  1.0000
  C   C2051     1.0  0.94758  0.63735  0.06532  1.0000
  H   H1627     1.0  0.92534  0.56632  0.01185  1.0000
  C   C2052     1.0  0.72595  0.64604  0.06986  1.0000
  H   H1628     1.0  0.73060  0.54043  0.43234  1.0000
  H   H1629     1.0  0.77169  0.65640  0.47597  1.0000
  C   C2053     1.0  0.82294  0.49609  0.10968  1.0000
  C   C2054     1.0  0.77913  0.64616  0.42452  1.0000
  C   C2055     1.0  0.76825  0.51140  0.04071  1.0000
  C   C2056     1.0  0.74791  0.50498  0.03562  1.0000
  H   H1630     1.0  0.81270  0.65245  0.01433  1.0000
  H   H1631     1.0  0.94417  0.54834  0.33592  1.0000
  C   C2057     1.0  0.94274  0.58764  0.05256  1.0000
  H   H1632     1.0  0.76464  0.59323  0.03185  1.0000
  C   C2058     1.0  0.92081  0.57482  0.18540  1.0000
  C   C2059     1.0  0.92234  0.59430  0.18217  1.0000
  C   C2060     1.0  0.93612  0.60696  0.15879  1.0000
  H   H1633     1.0  0.83371  0.62924  0.45956  1.0000
  H   H1634     1.0  0.83539  0.64819  0.30807  1.0000
  S   S265      1.0  0.90714  0.60967  0.00382  1.0000
  H   H1635     1.0  0.92850  0.59484  0.29386  1.0000
  H   H1636     1.0  0.81703  0.49753  0.01713  1.0000
  H   H1637     1.0  0.77827  0.58883  0.14592  1.0000
  C   C2061     1.0  0.95898  0.63690  0.09627  1.0000
  C   C2062     1.0  0.78080  0.52526  0.01712  1.0000
  H   H1638     1.0  0.93641  0.64929  0.46811  1.0000
  H   H1639     1.0  0.96275  0.60114  0.24829  1.0000
  C   C2063     1.0  0.95263  0.66460  0.42181  1.0000
  H   H1640     1.0  0.97239  0.62848  0.20438  1.0000
  H   H1641     1.0  0.73952  0.61161  0.42362  1.0000
  C   C2064     1.0  0.75916  0.55827  0.45455  1.0000
  C   C2065     1.0  0.73826  0.63544  0.06941  1.0000
  H   H1642     1.0  0.79330  0.56638  0.02248  1.0000
  H   H1643     1.0  0.72921  0.55723  0.15181  1.0000
  S   S266      1.0  0.72490  0.59773  0.99333  1.0000
  C   C2066     1.0  0.77728  0.57306  0.44770  1.0000
  H   H1644     1.0  0.96579  0.68209  0.13351  1.0000
  C   C2067     1.0  0.73300  0.55687  0.18067  1.0000
  H   H1645     1.0  0.73229  0.49793  0.26288  1.0000
  C   C2068     1.0  0.80690  0.53623  0.46026  1.0000
  C   C2069     1.0  0.75312  0.48852  0.13181  1.0000
  C   C2070     1.0  0.77568  0.49112  0.25952  1.0000
  C   C2071     1.0  0.83713  0.64409  0.00337  1.0000
  C   C2072     1.0  0.73004  0.60852  0.39927  1.0000
  C   C2073     1.0  0.77852  0.64727  0.46289  1.0000
  H   H1646     1.0  0.97428  0.65308  0.14509  1.0000
  C   C2074     1.0  0.94284  0.57223  0.48552  1.0000
  C   C2075     1.0  0.72793  0.48576  0.34589  1.0000
  H   H1647     1.0  0.73076  0.60180  0.30655  1.0000
  H   H1648     1.0  0.75614  0.55225  0.48180  1.0000
  H   H1649     1.0  0.79989  0.61501  0.48462  1.0000
  C   C2076     1.0  0.77270  0.53233  0.98799  1.0000
  S   S267      1.0  0.86945  0.63570  0.99094  1.0000
  H   H1650     1.0  0.97383  0.67052  0.00903  1.0000
  S   S268      1.0  0.83481  0.48432  0.21091  1.0000
  C   C2077     1.0  0.80715  0.48419  0.37930  1.0000
  Fe  Fe135     1.0  0.90083  0.60559  0.89619  1.0000
  S   S269      1.0  0.91340  0.63446  0.92813  1.0000
  S   S270      1.0  0.89363  0.60893  0.83529  1.0000
  C   C2078     1.0  0.75388  0.97491  0.72043  1.0000
  H   H1651     1.0  0.83764  0.51767  0.88715  1.0000
  C   C2079     1.0  0.80717  0.54484  0.49497  1.0000
  S   S271      1.0  0.90773  0.61741  0.51404  1.0000
  H   H1652     1.0  0.95346  0.56951  0.97265  1.0000
  C   C2080     1.0  0.81215  0.54922  0.67379  1.0000
  S   S272      1.0  0.87534  0.59233  0.93407  1.0000
  S   S273      1.0  0.91957  0.59252  0.92769  1.0000
  Fe  Fe136     1.0  0.74953  0.60643  0.95274  1.0000
  H   H1653     1.0  0.78514  0.56562  0.90231  1.0000
  Fe  Fe137     1.0  0.89388  0.62322  0.56587  1.0000
  S   S274      1.0  0.88324  0.59221  0.58471  1.0000
  S   S275      1.0  0.87197  0.63854  0.56891  1.0000
  Fe  Fe138     1.0  0.93535  0.62401  0.54926  1.0000
  S   S276      1.0  0.92610  0.59252  0.56729  1.0000
  H   H1654     1.0  0.78212  0.54285  0.96919  1.0000
  Fe  Fe139     1.0  0.89819  0.58661  0.53467  1.0000
  Fe  Fe140     1.0  0.91204  0.60124  0.61572  1.0000
  S   S277      1.0  0.91673  0.59046  0.67297  1.0000
  S   S278      1.0  0.92239  0.63290  0.59943  1.0000
  Fe  Fe141     1.0  0.75119  0.59942  0.55446  1.0000
  C   C2081     1.0  0.79423  0.55645  0.75388  1.0000
  C   C2082     1.0  0.84612  0.62560  0.56527  1.0000
  C   C2083     1.0  0.85658  0.61436  0.71090  1.0000
  H   H1655     1.0  0.86199  0.64521  0.70795  1.0000
  C   C2084     1.0  0.75789  0.55199  0.78280  1.0000
  C   C2085     1.0  0.81751  0.59631  0.54909  1.0000
  C   C2086     1.0  0.83796  0.60585  0.55369  1.0000
  Fe  Fe142     1.0  0.93091  0.62083  0.96187  1.0000
  H   H1656     1.0  0.84744  0.59803  0.54739  1.0000
  H   H1657     1.0  0.75990  0.51958  0.51811  1.0000
  H   H1658     1.0  0.79341  0.96305  0.78974  1.0000
  C   C2087     1.0  0.90141  0.60441  0.79086  1.0000
  C   C2088     1.0  0.89693  0.61361  0.76023  1.0000
  C   C2089     1.0  0.90175  0.60979  0.72415  1.0000
  C   C2090     1.0  0.91098  0.59649  0.71809  1.0000
  C   C2091     1.0  0.91569  0.58745  0.74879  1.0000
  C   C2092     1.0  0.91103  0.59142  0.78493  1.0000
  H   H1659     1.0  0.88968  0.62383  0.76447  1.0000
  H   H1660     1.0  0.89830  0.61711  0.70102  1.0000
  H   H1661     1.0  0.92286  0.57716  0.74455  1.0000
  H   H1662     1.0  0.91454  0.58413  0.80805  1.0000
  C   C2093     1.0  0.77299  0.52434  0.50180  1.0000
  H   H1663     1.0  0.75494  0.61562  0.66062  1.0000
  C   C2094     1.0  0.76764  0.61313  0.67122  1.0000
  C   C2095     1.0  0.83158  0.52092  0.91228  1.0000
  C   C2096     1.0  0.81071  0.61381  0.95932  1.0000
  C   C2097     1.0  0.83073  0.61594  0.96255  1.0000
  H   H1664     1.0  0.75017  0.52881  0.69051  1.0000
  C   C2098     1.0  0.81244  0.50944  0.92186  1.0000
  H   H1665     1.0  0.80052  0.60212  0.94232  1.0000
  H   H1666     1.0  0.83585  0.60590  0.94788  1.0000
  H   H1667     1.0  0.85817  0.54501  0.92871  1.0000
  H   H1668     1.0  0.81269  0.60420  0.71088  1.0000
  C   C2099     1.0  0.80410  0.62706  0.97793  1.0000
  H   H1669     1.0  0.74395  0.55066  0.79431  1.0000
  H   H1670     1.0  0.80988  0.55055  0.91229  1.0000
  H   H1671     1.0  0.80339  0.63367  0.57464  1.0000
  C   C2100     1.0  0.76639  0.55067  0.65143  1.0000
  S   S279      1.0  0.88036  0.55894  0.50066  1.0000
  H   H1672     1.0  0.80359  0.49723  0.90408  1.0000
  C   C2101     1.0  0.75353  0.54436  0.58854  1.0000
  C   C2102     1.0  0.84307  0.56473  0.64363  1.0000
  H   H1673     1.0  0.73155  0.70066  0.84879  1.0000
  C   C2103     1.0  0.80016  0.60658  0.69938  1.0000
  C   C2104     1.0  0.78365  0.62883  0.68617  1.0000
  C   C2105     1.0  0.76497  0.95981  0.80967  1.0000
  C   C2106     1.0  0.76170  0.55692  0.74593  1.0000
  C   C2107     1.0  0.84405  0.63124  0.98471  1.0000
  P   P71       1.0  0.78459  0.56631  0.68384  1.0000
  H   H1674     1.0  0.96240  0.64059  0.88015  1.0000
  S   S280      1.0  0.73214  0.61509  0.90896  1.0000
  C   C2108     1.0  0.74988  0.97159  0.93518  1.0000
  C   C2109     1.0  0.79901  0.57130  0.88846  1.0000
  H   H1675     1.0  0.83960  0.65077  0.58197  1.0000
  H   H1676     1.0  0.75524  0.58224  0.65861  1.0000
  C   C2110     1.0  0.79018  0.53900  0.51566  1.0000
  H   H1677     1.0  0.82069  0.55587  0.50600  1.0000
  C   C2111     1.0  0.80485  0.60620  0.55642  1.0000
  C   C2112     1.0  0.73832  0.97734  0.91035  1.0000
  C   C2113     1.0  0.78516  0.96965  0.80599  1.0000
  S   S281      1.0  0.96425  0.63103  0.97475  1.0000
  C   C2114     1.0  0.95699  0.57641  0.51380  1.0000
  S   S282      1.0  0.73179  0.59602  0.50429  1.0000
  C   C2115     1.0  0.83345  0.63549  0.57301  1.0000
  H   H1678     1.0  0.81149  0.58123  0.53923  1.0000
  C   C2116     1.0  0.81290  0.62582  0.56886  1.0000
  H   H1679     1.0  0.78339  0.64350  0.68692  1.0000
  H   H1680     1.0  0.80861  0.55874  0.74376  1.0000
  H   H1681     1.0  0.95333  0.56882  0.53962  1.0000
  H   H1682     1.0  0.85692  0.56436  0.63473  1.0000
  H   H1683     1.0  0.97141  0.61774  0.61396  1.0000
  H   H1684     1.0  0.76567  0.97910  0.93604  1.0000
  H   H1685     1.0  0.84827  0.59334  0.62172  1.0000
  C   C2117     1.0  0.81636  0.52909  0.97823  1.0000
  C   C2118     1.0  0.79037  0.55148  0.79075  1.0000
  C   C2119     1.0  0.76766  0.55580  0.61431  1.0000
  Fe  Fe143     1.0  0.89528  0.58224  0.96883  1.0000
  C   C2120     1.0  0.77976  0.55884  0.73097  1.0000
  C   C2121     1.0  0.84313  0.53638  0.93558  1.0000
  H   H1686     1.0  0.81690  0.59420  0.64151  1.0000
  C   C2122     1.0  0.83824  0.58105  0.63648  1.0000
  H   H1687     1.0  0.78549  0.63670  0.51414  1.0000
  C   C2123     1.0  0.82993  0.54873  0.66190  1.0000
  C   C2124     1.0  0.83557  0.54051  0.96834  1.0000
  C   C2125     1.0  0.74112  0.95623  0.95928  1.0000
  H   H1688     1.0  0.73677  0.67366  0.88216  1.0000
  C   C2126     1.0  0.85579  0.63205  0.72396  1.0000
  C   C2127     1.0  0.84890  0.59741  0.73168  1.0000
  C   C2128     1.0  0.84024  0.59807  0.76542  1.0000
  C   C2129     1.0  0.83952  0.61584  0.77888  1.0000
  C   C2130     1.0  0.84730  0.63280  0.75783  1.0000
  P   P72       1.0  0.82748  0.61711  0.82120  1.0000
  C   C2131     1.0  0.82124  0.59519  0.84801  1.0000
  C   C2132     1.0  0.84398  0.63587  0.85158  1.0000
  C   C2133     1.0  0.83657  0.64343  0.88095  1.0000
  C   C2134     1.0  0.84937  0.65645  0.90687  1.0000
  C   C2135     1.0  0.86958  0.66148  0.90435  1.0000
  C   C2136     1.0  0.87704  0.65381  0.87546  1.0000
  C   C2137     1.0  0.86431  0.64105  0.84913  1.0000
  C   C2138     1.0  0.80316  0.58747  0.86564  1.0000
  C   C2139     1.0  0.83114  0.57078  0.87750  1.0000
  C   C2140     1.0  0.83539  0.58705  0.85499  1.0000
  C   C2141     1.0  0.80594  0.62168  0.80746  1.0000
  C   C2142     1.0  0.78971  0.60625  0.79201  1.0000
  C   C2143     1.0  0.77304  0.60954  0.78036  1.0000
  C   C2144     1.0  0.77257  0.62835  0.78347  1.0000
  C   C2145     1.0  0.78888  0.64394  0.79792  1.0000
  C   C2146     1.0  0.80559  0.64067  0.80966  1.0000
  H   H1689     1.0  0.85004  0.58385  0.72188  1.0000
  H   H1690     1.0  0.83433  0.58476  0.78086  1.0000
  H   H1691     1.0  0.84685  0.64664  0.76769  1.0000
  H   H1692     1.0  0.82092  0.63875  0.88469  1.0000
  H   H1693     1.0  0.84358  0.66191  0.92995  1.0000
  H   H1694     1.0  0.87940  0.67077  0.92554  1.0000
  H   H1695     1.0  0.89266  0.65718  0.87410  1.0000
  H   H1696     1.0  0.87040  0.63465  0.82789  1.0000
  H   H1697     1.0  0.79243  0.59423  0.86279  1.0000
  H   H1698     1.0  0.84991  0.59352  0.84363  1.0000
  H   H1699     1.0  0.78996  0.59168  0.78900  1.0000
  H   H1700     1.0  0.76048  0.59750  0.76883  1.0000
  H   H1701     1.0  0.75957  0.63080  0.77444  1.0000
  H   H1702     1.0  0.78858  0.65857  0.80006  1.0000
  H   H1703     1.0  0.81820  0.65297  0.82022  1.0000
  S   S283      1.0  0.74266  0.62352  0.57901  1.0000
  H   H1704     1.0  0.84222  0.56468  0.88266  1.0000
  H   H1705     1.0  0.81224  0.63767  0.71223  1.0000
  H   H1706     1.0  0.83356  0.53593  0.66669  1.0000
  C   C2147     1.0  0.80767  0.56601  0.66846  1.0000
  H   H1707     1.0  0.75429  0.54893  0.56018  1.0000
  H   H1708     1.0  0.76918  0.54544  0.83374  1.0000
  H   H1709     1.0  0.74415  0.96314  0.73670  1.0000
  H   H1710     1.0  0.75755  0.94554  0.79636  1.0000
  C   C2148     1.0  0.77216  0.54915  0.80513  1.0000
  H   H1711     1.0  0.80160  0.54971  0.80834  1.0000
  C   C2149     1.0  0.73811  0.52756  0.59962  1.0000
  H   H1712     1.0  0.86353  0.61389  0.68499  1.0000
  C   C2150     1.0  0.81296  0.56288  0.89423  1.0000
  C   C2151     1.0  0.75236  0.52597  0.98310  1.0000
  Fe  Fe144     1.0  0.88849  0.62037  0.96675  1.0000
  C   C2152     1.0  0.82049  0.58161  0.64835  1.0000
  H   H1713     1.0  0.77646  0.96290  0.71875  1.0000
  H   H1714     1.0  0.79042  0.54567  0.54261  1.0000
  H   H1715     1.0  0.77944  0.56890  0.60547  1.0000
  C   C2153     1.0  0.78434  0.59082  0.68361  1.0000
  C   C2154     1.0  0.75120  0.53346  0.66229  1.0000
  C   C2155     1.0  0.76792  0.59418  0.66999  1.0000
  H   H1716     1.0  0.75066  0.55948  0.72907  1.0000
  S   S284      1.0  0.74212  0.57592  0.92977  1.0000
  H   H1717     1.0  0.80196  0.53656  0.68734  1.0000
  H   H1718     1.0  0.97287  0.67432  0.50465  1.0000
  S   S285      1.0  0.77935  0.59349  0.54704  1.0000
  C   C2156     1.0  0.79990  0.62555  0.70033  1.0000
  C   C2157     1.0  0.80490  0.51338  0.95483  1.0000
  H   H1719     1.0  0.74608  0.53177  0.96118  1.0000
  C   C2158     1.0  0.77207  0.97478  0.71034  1.0000
  S   S286      1.0  0.96790  0.63507  0.53254  1.0000
  H   H1720     1.0  0.79025  0.50391  0.96232  1.0000
  H   H1721     1.0  0.75006  0.95210  0.97888  1.0000
  S   S287      1.0  0.77963  0.62637  0.97548  1.0000
  C   C2159     1.0  0.73705  0.52201  0.63642  1.0000
  H   H1722     1.0  0.73877  0.96029  0.83417  1.0000
  S   S288      1.0  0.72830  0.57524  0.58478  1.0000
  H   H1723     1.0  0.86260  0.62502  0.48718  1.0000
  H   H1724     1.0  0.72691  0.51896  0.57973  1.0000
  C   C2160     1.0  0.75438  0.96820  0.83108  1.0000
  H   H1725     1.0  0.97364  0.61252  0.68082  1.0000
  H   H1726     1.0  0.72513  0.50892  0.64493  1.0000
  H   H1727     1.0  0.92821  0.56137  0.48935  1.0000
  H   H1728     1.0  0.84501  0.55240  0.98600  1.0000
