data_image0
_chemical_formula_structural       HS2C2HSHSC2S2H2CHS2H2C6H4C6H4C2HC2H2C6H4C6H4C3FeC6PC7H2C3PSHCH4C2HCH3S2C4PC18H7Fe2H8FeCHC6PC11H3CH10CH6C3H2C2SC2HCH2FeH2SHSH3CH2C3HSHC2H2C2H3C2HCH2C2HC2HCHC2HCHC5H2C3H2CHSH2C4H2SC2FeCH2CSHSH2SH2SC6H4C6H4CHC4H3SC2SCSC11H2CFeC6H4C6PC3FeHC13H6PC2H11SCHCHCH3C4H4SC2H2FeCHC2HPC8HSHC2H2CHCHC2HCH7C2H3CHPHCH3C2HCHC5H2FeC7S2CHCPSH2CHCH4C2HSHCSC2SCH5CHFeC2HCHCH2C2SCH2CFeS2HCHC4HCHSH2CH3C2H4FeSC3HCFeC2HC2FeHCH4C2H3CSH4FeS2FeS2HS2HCSC2H2SC6H4C6H4CHC4H2C6H4C6H4C6PC2FeCH2C10H6CSCH9CSH2CHSCH2C2HCFeC2SHFeHCHCHC3H2C7HCSCHC4HSC4H2PH8C2SCHCHFeCHSH2CHC6H6CHCSH4C3HSC2HPH2C3FeHCHC6SHC4H2C3SHC2SCFeCH2C2HCHCH3FeS2HFeS2CFeSC2HFeS2HFeSHSHFeS2HFeS3FeS2CSCSFeSCPC6H4FeC4H2C7H4C6H4C6H4C5H2CHCHC3H3C4H3CHCH2C4H2CHCH2CH3C2HCH2CHC2H5PH2CH2FeHC2H3C13PC18H23C2HPC9SC10HCH3C3H2C2FeCHC2HCHC2HC3FeCHCH4CHC4H2SC2SFeSHSHSCH3FeHPC2HCHSFeSHFeSH2FeS2HFeC2SCFeSCFeS3HC6H4FeC6H4C3H2CFeS2CFeS2CFeSCSHSFeS2FeSC5FeCHCHC6H4CHC3H2C3SCPC2HC5H2CH7CH2CH2C2HC2HPHCHC5HC2H2CH4C2H2CHC4H2PCHC2HCHCHCHCHCH2CH2C3HC3H2CH2C2HCHCH3CHC5H3CH3CH3C6SH3CHCHC4HC4HCHCPHCHCHC5HCHP2CHCFeS2CFeS2HC2FeSHCFeS2CFeSCSPFeS2HFeSCHSCFeSC2FeS2FeS2C6H4C6H4C6H4C6H5C5HCHCH2SC2HSCHC10HCHC2HCH3C2HCHC3HC3PC5HCH3C5H2CH4CHCH3CH5CHSHCH3C2HC2PSCHC2HC2H2CHC5H3C3HCH2C4H3CHC3PC2H3C3HPC9H3CH2C3HCH13C2SC2H3C4FeC3HCH3FeH2C2HCHCFeSH2CHC4H3CH2CHCSC2FeSCHFeS2HCFeHSCFeS2CFeSFeSC3SFeS2HFeSCS2FeS2FeS2C6PH3C2SCH2CHC6H4CH2CHC6H4C6H4C3H3CH3CFeHCH4CFeH2C2HCHC2FeCHCHFeCHC7FeCSCH2C4H2C6PC18H21CHCHSPCH4CPC6HCHC4H2SC2H3CH2CHCHCHC3HC2HC2H5CH7C3H3CHCH4PHC6HCH2C3SH3FeS2FeS2HFeCSFeS2FeCSHC4H2C3HC2H4C6H4FeSC2FeSHSFeS2CFeSCSCS2FeSC6H4C3H4C6H3SC3HC2HCHC2HCHCHPC4HC9HC2H2C2H3CHSCH5C3HCHC2FeHCH2C6HC4H5CH2C6HC2HC2H4C3HPC2H2CHCHC3HCH3CHC4H4CHCHC2HPC4HC3HCH3C3HCH4C4PH3C2SC2H3CFeS2C2FeSHSH2FeS2HFeS2FeSHFeSCSFeHSCH2SHSCFeS2FeS2C6H4C6H4C3H2C6H4C3Fe2HC8H5CH4C3HC5PC10HC3PHCH2CH7C2H2CSC3HCHCH3C7H2C2FeC5H7CHC4H2SHC3H3CPH2C6PC18H16C2H4CH2CHFeCPH2CH2C5PHC2H2CSHCHCHSC2SHC2H2C3HCHC2S2H4S2C2H2CSHC2SC3S2C2HC8H4C6H4C4HC2HCH2C6H4C4H3C2SC4HC3HC2H2C4HCH3CHPC12S2H4CH8CFeH2CHCH2C4HCSH2CHFeCHSHSC6H2CH2FeCHC4FeH2C2SH3C2H5CHCHCH2CHC5SCFeC2H3CFeH3CHP2CHC3HC2HCHFeHSH2CHSC2H2C3HCSH2CHCHSHS2HS2HC3H2C6H4C4HCH2FeHS2HC2HSHSHC3H3C6H3C12PC3SCHC3H3C7H4C2H2FeHCH7CHCHSC3H3CHC2HC3PC5HCHC6FeHCH6CH6CH2C2H2CHSH3C3H3FeC4HCHCHCPCH2C2HCSH3CFeHC2SH3C4HCHSH5CH3CFeH2C2HC2HC5HC3H2C3SH4CH4C4FeHFeH2C6SC3SCSCSFeHCH2C3H3S2H3SHSHCHS2CPHSFeS2CHC9H4C6H5C2H6C6H4C4FeHC2HC4HCH2C3H3C3H2CH4CH2CH2CPC7HSC2HCH2C3H2PHCH7FeC5HC3HCHC3FeCH2C4HC2HFeCH2C4HCFeC3SC2HSH5CHSHSCSH3C2HFeH2CH3CHC3HSH2C5SCHCHFePC2HC2HC3H2CFeSC2H2C2HCHC2H4C3HC
_chemical_formula_sum              "H1316 S256 C1656 Fe128 P53"
_cell_length_a       33.5745
_cell_length_b       33.6504
_cell_length_c       47.8704
_cell_angle_alpha    89.8697
_cell_angle_beta     89.9723
_cell_angle_gamma    89.7772

_space_group_name_H-M_alt    "P 1"
_space_group_IT_number       1

loop_
  _space_group_symop_operation_xyz
  'x, y, z'

loop_
  _atom_site_type_symbol
  _atom_site_label
  _atom_site_symmetry_multiplicity
  _atom_site_fract_x
  _atom_site_fract_y
  _atom_site_fract_z
  _atom_site_occupancy
  H   H1        1.0  0.28308  0.43705  0.26385  1.0000
  S   S1        1.0  0.08346  0.29333  0.03802  1.0000
  S   S2        1.0  0.09253  0.21350  0.25467  1.0000
  C   C1        1.0  0.49466  0.15473  0.25444  1.0000
  C   C2        1.0  0.04049  0.02603  0.03616  1.0000
  H   H2        1.0  0.22421  0.33894  0.03862  1.0000
  S   S3        1.0  0.46885  0.19493  0.18154  1.0000
  H   H3        1.0  0.20609  0.04101  0.28886  1.0000
  S   S4        1.0  0.44085  0.33567  0.08507  1.0000
  C   C3        1.0  0.05492  0.38461  0.31063  1.0000
  C   C4        1.0  0.30527  0.21224  0.99664  1.0000
  S   S5        1.0  0.15214  0.46951  0.03845  1.0000
  S   S6        1.0  0.32153  0.47096  0.12694  1.0000
  H   H4        1.0  0.04877  0.11753  0.15621  1.0000
  H   H5        1.0  0.11932  0.03027  0.11349  1.0000
  C   C5        1.0  0.44336  0.27192  0.22735  1.0000
  H   H6        1.0  0.36993  0.45776  0.02989  1.0000
  S   S7        1.0  0.15827  0.05387  0.19926  1.0000
  S   S8        1.0  0.35219  0.05513  0.14629  1.0000
  H   H7        1.0  0.08417  0.48530  0.25905  1.0000
  H   H8        1.0  0.05410  0.36773  0.01377  1.0000
  C   C6        1.0  0.40742  0.37246  0.09760  1.0000
  C   C7        1.0  0.40761  0.38530  0.12538  1.0000
  C   C8        1.0  0.38151  0.41585  0.13401  1.0000
  C   C9        1.0  0.35439  0.43319  0.11515  1.0000
  C   C10       1.0  0.35373  0.41982  0.08754  1.0000
  C   C11       1.0  0.38013  0.38967  0.07884  1.0000
  H   H9        1.0  0.42807  0.37186  0.14011  1.0000
  H   H10       1.0  0.38211  0.42583  0.15546  1.0000
  H   H11       1.0  0.33283  0.43266  0.07291  1.0000
  H   H12       1.0  0.37943  0.37958  0.05740  1.0000
  C   C12       1.0  0.38454  0.09351  0.15714  1.0000
  C   C13       1.0  0.41165  0.10903  0.13763  1.0000
  C   C14       1.0  0.43704  0.14054  0.14471  1.0000
  C   C15       1.0  0.43609  0.15643  0.17162  1.0000
  C   C16       1.0  0.40980  0.14023  0.19148  1.0000
  C   C17       1.0  0.38385  0.10904  0.18423  1.0000
  H   H13       1.0  0.41284  0.09682  0.11681  1.0000
  H   H14       1.0  0.45755  0.15232  0.12940  1.0000
  H   H15       1.0  0.40954  0.15189  0.21251  1.0000
  H   H16       1.0  0.36354  0.09690  0.19953  1.0000
  C   C18       1.0  0.08484  0.42443  0.12895  1.0000
  C   C19       1.0  0.20066  0.49939  0.23156  1.0000
  H   H17       1.0  0.20444  0.21559  0.28958  1.0000
  C   C20       1.0  0.11077  0.39872  0.28000  1.0000
  C   C21       1.0  0.49134  0.16068  0.05191  1.0000
  H   H18       1.0  0.12468  0.39552  0.25978  1.0000
  H   H19       1.0  0.06000  0.36416  0.26834  1.0000
  C   C22       1.0  0.10990  0.16857  0.23951  1.0000
  C   C23       1.0  0.08432  0.14173  0.22643  1.0000
  C   C24       1.0  0.09981  0.10682  0.21427  1.0000
  C   C25       1.0  0.14086  0.09824  0.21514  1.0000
  C   C26       1.0  0.16638  0.12481  0.22853  1.0000
  C   C27       1.0  0.15094  0.15986  0.24056  1.0000
  H   H20       1.0  0.05272  0.14805  0.22549  1.0000
  H   H21       1.0  0.07994  0.08642  0.20393  1.0000
  H   H22       1.0  0.19795  0.11841  0.22947  1.0000
  H   H23       1.0  0.17092  0.18043  0.25061  1.0000
  C   C28       1.0  0.10070  0.34299  0.03922  1.0000
  C   C29       1.0  0.13577  0.35140  0.05413  1.0000
  C   C30       1.0  0.15163  0.39012  0.05455  1.0000
  C   C31       1.0  0.13282  0.42064  0.03968  1.0000
  C   C32       1.0  0.09755  0.41231  0.02498  1.0000
  C   C33       1.0  0.08137  0.37375  0.02493  1.0000
  H   H24       1.0  0.15074  0.32777  0.06537  1.0000
  H   H25       1.0  0.17858  0.39626  0.06610  1.0000
  H   H26       1.0  0.10852  0.30191  0.98191  1.0000
  H   H27       1.0  0.05937  0.43026  0.11562  1.0000
  C   C34       1.0  0.26095  0.38712  0.02410  1.0000
  C   C35       1.0  0.23120  0.35850  0.02130  1.0000
  C   C36       1.0  0.26948  0.41277  0.00188  1.0000
  Fe  Fe1       1.0  0.30427  0.02267  0.17100  1.0000
  C   C37       1.0  0.00540  0.02428  0.21718  1.0000
  C   C38       1.0  0.39746  0.47429  0.02832  1.0000
  C   C39       1.0  0.34316  0.01611  0.29279  1.0000
  C   C40       1.0  0.40413  0.27436  0.23699  1.0000
  C   C41       1.0  0.39621  0.27699  0.26575  1.0000
  C   C42       1.0  0.42836  0.27781  0.28456  1.0000
  P   P1        1.0  0.34524  0.28025  0.27803  1.0000
  C   C43       1.0  0.32709  0.33076  0.27443  1.0000
  C   C44       1.0  0.31442  0.24744  0.25743  1.0000
  C   C45       1.0  0.27472  0.25762  0.25128  1.0000
  C   C46       1.0  0.25099  0.23199  0.23548  1.0000
  C   C47       1.0  0.26664  0.19605  0.22572  1.0000
  C   C48       1.0  0.30608  0.18567  0.23175  1.0000
  C   C49       1.0  0.32987  0.21114  0.24762  1.0000
  H   H28       1.0  0.44491  0.16916  0.28085  1.0000
  H   H29       1.0  0.02641  0.04728  0.22268  1.0000
  C   C50       1.0  0.29565  0.40760  0.26692  1.0000
  C   C51       1.0  0.32548  0.39353  0.24910  1.0000
  C   C52       1.0  0.34117  0.35531  0.25281  1.0000
  P   P2        1.0  0.06826  0.00842  0.06612  1.0000
  S   S9        1.0  0.26994  0.49106  0.05189  1.0000
  H   H30       1.0  0.38007  0.27384  0.22193  1.0000
  C   C53       1.0  0.49958  0.18208  0.02756  1.0000
  H   H31       1.0  0.13990  0.05638  0.26826  1.0000
  H   H32       1.0  0.22041  0.24002  0.23065  1.0000
  H   H33       1.0  0.24822  0.17625  0.21343  1.0000
  H   H34       1.0  0.31828  0.15785  0.22404  1.0000
  C   C54       1.0  0.49801  0.08671  0.23751  1.0000
  C   C55       1.0  0.48841  0.01026  0.20976  1.0000
  H   H35       1.0  0.04114  0.16081  0.29721  1.0000
  C   C56       1.0  0.45940  0.14618  0.26866  1.0000
  H   H36       1.0  0.33631  0.41218  0.23228  1.0000
  H   H37       1.0  0.36400  0.34505  0.23861  1.0000
  H   H38       1.0  0.41585  0.10127  0.27832  1.0000
  S   S10       1.0  0.01705  0.20440  0.02643  1.0000
  S   S11       1.0  0.17705  0.44057  0.29382  1.0000
  C   C57       1.0  0.37030  0.00103  0.03463  1.0000
  C   C58       1.0  0.30557  0.13143  0.01032  1.0000
  C   C59       1.0  0.33534  0.15634  0.02119  1.0000
  C   C60       1.0  0.33420  0.19710  0.01486  1.0000
  P   P3        1.0  0.37223  0.13715  0.04526  1.0000
  C   C61       1.0  0.35653  0.15391  0.07940  1.0000
  C   C62       1.0  0.37415  0.08366  0.04199  1.0000
  C   C63       1.0  0.36829  0.05844  0.06505  1.0000
  C   C64       1.0  0.36605  0.01731  0.06130  1.0000
  C   C65       1.0  0.12933  0.42106  0.30087  1.0000
  C   C66       1.0  0.37768  0.02580  0.01178  1.0000
  C   C67       1.0  0.38010  0.06690  0.01547  1.0000
  C   C68       1.0  0.37652  0.18513  0.09286  1.0000
  C   C69       1.0  0.36448  0.19763  0.11941  1.0000
  C   C70       1.0  0.33217  0.17943  0.13259  1.0000
  C   C71       1.0  0.31118  0.14945  0.11888  1.0000
  C   C72       1.0  0.32289  0.13717  0.09221  1.0000
  C   C73       1.0  0.42214  0.15412  0.03766  1.0000
  C   C74       1.0  0.43104  0.17446  0.01280  1.0000
  C   C75       1.0  0.46952  0.18868  0.00794  1.0000
  C   C76       1.0  0.49753  0.43486  0.09007  1.0000
  C   C77       1.0  0.35677  0.49825  0.23458  1.0000
  C   C78       1.0  0.45284  0.14655  0.05690  1.0000
  H   H39       1.0  0.23391  0.00312  0.03950  1.0000
  H   H40       1.0  0.42363  0.28049  0.30678  1.0000
  H   H41       1.0  0.32944  0.48118  0.19569  1.0000
  H   H42       1.0  0.30431  0.10023  0.01579  1.0000
  H   H43       1.0  0.35590  0.21711  0.02385  1.0000
  H   H44       1.0  0.36469  0.07010  0.08589  1.0000
  H   H45       1.0  0.21125  0.47808  0.99301  1.0000
  Fe  Fe2       1.0  0.21930  0.02349  0.19506  1.0000
  Fe  Fe3       1.0  0.02488  0.27015  0.02006  1.0000
  H   H46       1.0  0.38528  0.08573  0.99746  1.0000
  H   H47       1.0  0.40162  0.19976  0.08313  1.0000
  H   H48       1.0  0.38101  0.22069  0.13007  1.0000
  H   H49       1.0  0.32375  0.18815  0.15354  1.0000
  H   H50       1.0  0.28643  0.13490  0.12919  1.0000
  H   H51       1.0  0.30625  0.11388  0.08192  1.0000
  H   H52       1.0  0.40860  0.17951  0.99704  1.0000
  H   H53       1.0  0.00192  0.06113  0.08314  1.0000
  Fe  Fe4       1.0  0.48776  0.30058  0.10958  1.0000
  C   C79       1.0  0.20962  0.35581  0.99643  1.0000
  H   H54       1.0  0.44685  0.13033  0.07601  1.0000
  C   C80       1.0  0.25795  0.33820  0.12474  1.0000
  C   C81       1.0  0.29706  0.34157  0.13445  1.0000
  C   C82       1.0  0.30462  0.36107  0.15962  1.0000
  C   C83       1.0  0.27331  0.37827  0.17467  1.0000
  C   C84       1.0  0.23414  0.37631  0.16453  1.0000
  C   C85       1.0  0.22648  0.35499  0.13991  1.0000
  P   P4        1.0  0.19402  0.39795  0.18458  1.0000
  C   C86       1.0  0.15108  0.40810  0.16294  1.0000
  C   C87       1.0  0.18265  0.36200  0.21152  1.0000
  C   C88       1.0  0.15914  0.32879  0.20511  1.0000
  C   C89       1.0  0.14900  0.30144  0.22594  1.0000
  C   C90       1.0  0.16293  0.30651  0.25318  1.0000
  C   C91       1.0  0.18790  0.33843  0.25945  1.0000
  C   C92       1.0  0.19805  0.36591  0.23864  1.0000
  C   C93       1.0  0.15623  0.42398  0.13606  1.0000
  C   C94       1.0  0.11229  0.40194  0.17308  1.0000
  C   C95       1.0  0.20853  0.44602  0.19783  1.0000
  C   C96       1.0  0.23639  0.46929  0.18325  1.0000
  H   H55       1.0  0.49105  0.10253  0.99380  1.0000
  H   H56       1.0  0.19086  0.05598  0.01959  1.0000
  H   H57       1.0  0.46341  0.04473  0.17561  1.0000
  C   C97       1.0  0.18993  0.46186  0.22161  1.0000
  H   H58       1.0  0.25202  0.32260  0.10541  1.0000
  H   H59       1.0  0.32156  0.32913  0.12248  1.0000
  H   H60       1.0  0.33489  0.36335  0.16722  1.0000
  H   H61       1.0  0.27968  0.39355  0.19402  1.0000
  H   H62       1.0  0.19634  0.35145  0.13227  1.0000
  H   H63       1.0  0.14790  0.32442  0.18412  1.0000
  H   H64       1.0  0.12959  0.27667  0.22110  1.0000
  H   H65       1.0  0.15374  0.28595  0.26941  1.0000
  H   H66       1.0  0.19811  0.34286  0.28067  1.0000
  H   H67       1.0  0.21686  0.39075  0.24404  1.0000
  C   C98       1.0  0.46192  0.01739  0.18758  1.0000
  H   H68       1.0  0.10726  0.39131  0.19416  1.0000
  H   H69       1.0  0.24982  0.45873  0.16405  1.0000
  H   H70       1.0  0.08256  0.43591  0.01370  1.0000
  H   H71       1.0  0.44924  0.26945  0.20518  1.0000
  H   H72       1.0  0.25400  0.12715  0.98372  1.0000
  H   H73       1.0  0.16696  0.44541  0.23245  1.0000
  C   C99       1.0  0.49571  0.44424  0.30003  1.0000
  C   C100      1.0  0.46380  0.38653  0.26419  1.0000
  C   C101      1.0  0.12323  0.43224  0.11919  1.0000
  H   H74       1.0  0.29230  0.43511  0.00450  1.0000
  H   H75       1.0  0.27708  0.38980  0.04361  1.0000
  C   C102      1.0  0.18772  0.01734  0.28070  1.0000
  C   C103      1.0  0.49448  0.33497  0.98433  1.0000
  S   S12       1.0  0.28004  0.03222  0.21447  1.0000
  C   C104      1.0  0.27659  0.18701  0.98523  1.0000
  C   C105      1.0  0.17806  0.03378  0.03322  1.0000
  H   H76       1.0  0.04963  0.40305  0.16337  1.0000
  C   C106      1.0  0.03609  0.06699  0.03138  1.0000
  H   H77       1.0  0.11914  0.05773  0.02994  1.0000
  H   H78       1.0  0.44517  0.48409  0.13469  1.0000
  Fe  Fe5       1.0  0.02894  0.23789  0.25864  1.0000
  H   H79       1.0  0.08279  0.17682  0.98382  1.0000
  H   H80       1.0  0.31449  0.02085  0.28291  1.0000
  S   S13       1.0  0.24354  0.01903  0.15144  1.0000
  H   H81       1.0  0.25850  0.39472  0.30239  1.0000
  S   S14       1.0  0.01853  0.30188  0.24714  1.0000
  H   H82       1.0  0.43440  0.42372  0.03773  1.0000
  H   H83       1.0  0.15006  0.14678  0.98775  1.0000
  H   H84       1.0  0.18587  0.33422  0.99466  1.0000
  C   C107      1.0  0.03548  0.12956  0.29356  1.0000
  H   H85       1.0  0.26194  0.28531  0.25852  1.0000
  H   H86       1.0  0.46728  0.44329  0.08517  1.0000
  C   C108      1.0  0.12072  0.00629  0.05745  1.0000
  C   C109      1.0  0.29715  0.34524  0.29232  1.0000
  C   C110      1.0  0.20243  0.00426  0.04462  1.0000
  H   H87       1.0  0.41268  0.42519  0.26131  1.0000
  S   S15       1.0  0.48920  0.23407  0.10388  1.0000
  H   H88       1.0  0.47614  0.20453  0.98875  1.0000
  C   C111      1.0  0.07391  0.38063  0.28485  1.0000
  C   C112      1.0  0.46983  0.47640  0.03062  1.0000
  H   H89       1.0  0.32387  0.20457  0.30615  1.0000
  H   H90       1.0  0.28547  0.32692  0.30900  1.0000
  C   C113      1.0  0.07939  0.40930  0.15588  1.0000
  C   C114      1.0  0.06133  0.04203  0.09524  1.0000
  H   H91       1.0  0.33069  0.49167  0.24709  1.0000
  H   H92       1.0  0.04979  0.08856  0.04508  1.0000
  H   H93       1.0  0.44094  0.47644  0.29215  1.0000
  C   C115      1.0  0.08688  0.07361  0.13716  1.0000
  C   C116      1.0  0.09165  0.04676  0.11513  1.0000
  H   H94       1.0  0.18578  0.42984  0.12807  1.0000
  C   C117      1.0  0.46755  0.27481  0.27482  1.0000
  H   H95       1.0  0.12738  0.44476  0.09849  1.0000
  H   H96       1.0  0.30510  0.24358  0.99141  1.0000
  C   C118      1.0  0.46225  0.07848  0.25161  1.0000
  C   C119      1.0  0.02145  0.09135  0.11992  1.0000
  H   H97       1.0  0.49220  0.27470  0.28949  1.0000
  C   C120      1.0  0.45800  0.44982  0.28793  1.0000
  C   C121      1.0  0.43400  0.45520  0.03280  1.0000
  H   H98       1.0  0.36032  0.20244  0.25218  1.0000
  C   C122      1.0  0.44314  0.10805  0.26722  1.0000
  H   H99       1.0  0.44917  0.04923  0.25077  1.0000
  C   C123      1.0  0.44205  0.42097  0.27019  1.0000
  C   C124      1.0  0.05192  0.09605  0.13949  1.0000
  H   H100      1.0  0.45127  0.36380  0.25086  1.0000
  C   C125      1.0  0.00384  0.45348  0.20562  1.0000
  H   H101      1.0  0.11075  0.07761  0.15212  1.0000
  C   C126      1.0  0.00162  0.11811  0.27866  1.0000
  C   C127      1.0  0.13733  0.03468  0.03933  1.0000
  C   C128      1.0  0.02589  0.06412  0.09809  1.0000
  C   C129      1.0  0.15040  0.02593  0.26922  1.0000
  C   C130      1.0  0.28166  0.38357  0.28860  1.0000
  H   H102      1.0  0.49216  0.48020  0.22215  1.0000
  H   H103      1.0  0.48289  0.41835  0.13239  1.0000
  C   C131      1.0  0.47506  0.27168  0.24622  1.0000
  C   C132      1.0  0.27662  0.14668  0.99220  1.0000
  C   C133      1.0  0.19444  0.22873  0.30902  1.0000
  H   H104      1.0  0.41488  0.49456  0.08821  1.0000
  H   H105      1.0  0.01394  0.46002  0.18469  1.0000
  C   C134      1.0  0.01350  0.08071  0.00889  1.0000
  H   H106      1.0  0.38043  0.01324  0.99109  1.0000
  S   S16       1.0  0.49717  0.29924  0.15601  1.0000
  H   H107      1.0  0.13530  0.20455  0.30584  1.0000
  H   H108      1.0  0.00931  0.11236  0.00592  1.0000
  C   C135      1.0  0.02146  0.04904  0.28333  1.0000
  C   C136      1.0  0.35585  0.49287  0.20569  1.0000
  C   C137      1.0  0.00812  0.48149  0.22712  1.0000
  C   C138      1.0  0.05508  0.06058  0.29848  1.0000
  H   H109      1.0  0.01635  0.01770  0.27960  1.0000
  H   H110      1.0  0.07569  0.03829  0.30625  1.0000
  S   S17       1.0  0.00583  0.24507  0.30250  1.0000
  C   C139      1.0  0.37558  0.00327  0.27684  1.0000
  C   C140      1.0  0.00207  0.01308  0.99408  1.0000
  Fe  Fe6       1.0  0.20454  0.49814  0.06112  1.0000
  C   C141      1.0  0.06226  0.10087  0.30339  1.0000
  H   H111      1.0  0.09845  0.00261  0.24898  1.0000
  H   H112      1.0  0.18080  0.12459  0.60762  1.0000
  C   C142      1.0  0.49259  0.02525  0.52100  1.0000
  S   S18       1.0  0.45826  0.18994  0.42683  1.0000
  H   H113      1.0  0.33961  0.03005  0.61228  1.0000
  S   S19       1.0  0.44511  0.35242  0.34001  1.0000
  H   H114      1.0  0.46879  0.18257  0.48959  1.0000
  H   H115      1.0  0.08445  0.13335  0.51239  1.0000
  S   S20       1.0  0.31319  0.47054  0.38748  1.0000
  H   H116      1.0  0.13087  0.07774  0.52362  1.0000
  H   H117      1.0  0.16449  0.34853  0.35260  1.0000
  S   S21       1.0  0.32478  0.06658  0.39058  1.0000
  C   C143      1.0  0.40757  0.38331  0.35412  1.0000
  C   C144      1.0  0.38332  0.40479  0.33559  1.0000
  C   C145      1.0  0.35411  0.43111  0.34558  1.0000
  C   C146      1.0  0.34865  0.43624  0.37429  1.0000
  C   C147      1.0  0.37257  0.41430  0.39293  1.0000
  C   C148      1.0  0.40171  0.38757  0.38288  1.0000
  H   H118      1.0  0.05727  0.33033  0.63153  1.0000
  H   H119      1.0  0.44083  0.46576  0.34642  1.0000
  H   H120      1.0  0.36878  0.41836  0.41519  1.0000
  H   H121      1.0  0.42018  0.37089  0.39724  1.0000
  C   C149      1.0  0.42282  0.15434  0.41598  1.0000
  C   C150      1.0  0.40901  0.15283  0.38846  1.0000
  C   C151      1.0  0.37980  0.12494  0.38089  1.0000
  C   C152      1.0  0.36393  0.09853  0.40073  1.0000
  C   C153      1.0  0.37849  0.09931  0.42810  1.0000
  C   C154      1.0  0.40774  0.12718  0.43567  1.0000
  H   H122      1.0  0.42074  0.17318  0.37302  1.0000
  H   H123      1.0  0.36932  0.12388  0.35954  1.0000
  H   H124      1.0  0.36686  0.07878  0.44347  1.0000
  H   H125      1.0  0.41877  0.12765  0.45689  1.0000
  C   C155      1.0  0.42136  0.07466  0.59829  1.0000
  H   H126      1.0  0.15837  0.01266  0.60958  1.0000
  C   C156      1.0  0.33375  0.21403  0.34981  1.0000
  C   C157      1.0  0.15601  0.07429  0.48225  1.0000
  C   C158      1.0  0.12836  0.12163  0.44893  1.0000
  C   C159      1.0  0.15503  0.09046  0.45532  1.0000
  H   H127      1.0  0.12760  0.13367  0.42796  1.0000
  H   H128      1.0  0.17445  0.07864  0.43931  1.0000
  H   H129      1.0  0.01163  0.46841  0.58574  1.0000
  S   S22       1.0  0.05319  0.33195  0.55304  1.0000
  C   C160      1.0  0.09233  0.45413  0.45828  1.0000
  C   C161      1.0  0.37572  0.00812  0.51681  1.0000
  S   S23       1.0  0.42038  0.30885  0.60304  1.0000
  C   C162      1.0  0.10279  0.13742  0.46941  1.0000
  S   S24       1.0  0.21576  0.42013  0.52568  1.0000
  C   C163      1.0  0.14227  0.23928  0.34325  1.0000
  C   C164      1.0  0.10414  0.12167  0.49647  1.0000
  C   C165      1.0  0.13054  0.09017  0.50279  1.0000
  C   C166      1.0  0.40797  0.35989  0.60080  1.0000
  C   C167      1.0  0.43429  0.38981  0.60896  1.0000
  C   C168      1.0  0.42245  0.42999  0.60732  1.0000
  C   C169      1.0  0.38464  0.44054  0.59697  1.0000
  C   C170      1.0  0.35864  0.41060  0.58846  1.0000
  C   C171      1.0  0.37018  0.37050  0.59063  1.0000
  C   C172      1.0  0.19640  0.39364  0.37474  1.0000
  C   C173      1.0  0.39219  0.13841  0.58632  1.0000
  H   H130      1.0  0.32943  0.41834  0.58053  1.0000
  H   H131      1.0  0.34959  0.34754  0.58453  1.0000
  C   C174      1.0  0.18974  0.34444  0.42166  1.0000
  Fe  Fe7       1.0  0.48461  0.30770  0.36252  1.0000
  C   C175      1.0  0.09635  0.35883  0.54350  1.0000
  C   C176      1.0  0.11855  0.34919  0.51970  1.0000
  C   C177      1.0  0.15467  0.36890  0.51422  1.0000
  C   C178      1.0  0.16849  0.39891  0.53214  1.0000
  C   C179      1.0  0.14567  0.40944  0.55542  1.0000
  C   C180      1.0  0.10988  0.38927  0.56115  1.0000
  H   H132      1.0  0.10838  0.32586  0.50596  1.0000
  H   H133      1.0  0.17212  0.36065  0.49613  1.0000
  H   H134      1.0  0.15618  0.43229  0.56944  1.0000
  H   H135      1.0  0.09297  0.39679  0.57966  1.0000
  C   C181      1.0  0.29265  0.29970  0.43287  1.0000
  C   C182      1.0  0.32229  0.32759  0.42704  1.0000
  C   C183      1.0  0.35671  0.32873  0.44342  1.0000
  C   C184      1.0  0.36145  0.30231  0.46577  1.0000
  C   C185      1.0  0.33167  0.27446  0.47196  1.0000
  C   C186      1.0  0.29714  0.27340  0.45535  1.0000
  P   P5        1.0  0.33550  0.24371  0.50286  1.0000
  C   C187      1.0  0.31216  0.19620  0.49589  1.0000
  C   C188      1.0  0.38789  0.23652  0.51083  1.0000
  C   C189      1.0  0.41062  0.20850  0.49597  1.0000
  Fe  Fe8       1.0  0.02680  0.21313  0.48660  1.0000
  H   H136      1.0  0.32574  0.18388  0.35550  1.0000
  C   C190      1.0  0.46971  0.22693  0.52189  1.0000
  C   C191      1.0  0.40702  0.26047  0.53080  1.0000
  C   C192      1.0  0.28724  0.17830  0.51589  1.0000
  C   C193      1.0  0.26778  0.14261  0.50988  1.0000
  C   C194      1.0  0.27310  0.12435  0.48399  1.0000
  C   C195      1.0  0.29802  0.14167  0.46405  1.0000
  C   C196      1.0  0.31743  0.17746  0.46989  1.0000
  C   C197      1.0  0.31030  0.26821  0.53158  1.0000
  C   C198      1.0  0.28225  0.29857  0.52658  1.0000
  C   C199      1.0  0.26365  0.31793  0.54891  1.0000
  C   C200      1.0  0.27271  0.30711  0.57638  1.0000
  C   C201      1.0  0.30018  0.27667  0.58156  1.0000
  C   C202      1.0  0.31873  0.25712  0.55929  1.0000
  H   H137      1.0  0.26598  0.29886  0.42017  1.0000
  H   H138      1.0  0.31855  0.34846  0.40991  1.0000
  H   H139      1.0  0.37964  0.35044  0.43909  1.0000
  H   H140      1.0  0.38817  0.30415  0.47837  1.0000
  H   H141      1.0  0.27335  0.25279  0.46010  1.0000
  H   H142      1.0  0.39750  0.19084  0.47962  1.0000
  P   P6        1.0  0.47566  0.41261  0.49789  1.0000
  C   C203      1.0  0.20133  0.08939  0.57300  1.0000
  C   C204      1.0  0.00747  0.25893  0.60558  1.0000
  H   H143      1.0  0.39109  0.28340  0.54205  1.0000
  H   H144      1.0  0.28236  0.19183  0.53606  1.0000
  H   H145      1.0  0.24838  0.12903  0.52524  1.0000
  H   H146      1.0  0.25779  0.09676  0.47935  1.0000
  H   H147      1.0  0.30208  0.12734  0.44395  1.0000
  H   H148      1.0  0.33637  0.19052  0.45400  1.0000
  H   H149      1.0  0.27499  0.30801  0.50558  1.0000
  H   H150      1.0  0.24266  0.34190  0.54496  1.0000
  H   H151      1.0  0.25892  0.32279  0.59365  1.0000
  H   H152      1.0  0.30789  0.26887  0.60289  1.0000
  H   H153      1.0  0.34026  0.23389  0.56377  1.0000
  S   S25       1.0  0.00878  0.36095  0.31710  1.0000
  C   C205      1.0  0.20043  0.10080  0.60102  1.0000
  H   H154      1.0  0.42602  0.35711  0.53014  1.0000
  C   C206      1.0  0.33260  0.22599  0.32178  1.0000
  H   H155      1.0  0.03562  0.35406  0.45175  1.0000
  C   C207      1.0  0.25130  0.03915  0.58384  1.0000
  H   H156      1.0  0.36868  0.16022  0.58891  1.0000
  H   H157      1.0  0.30261  0.08070  0.55302  1.0000
  H   H158      1.0  0.02210  0.34930  0.37454  1.0000
  C   C208      1.0  0.42251  0.40422  0.49924  1.0000
  C   C209      1.0  0.05431  0.02648  0.42985  1.0000
  C   C210      1.0  0.35730  0.27913  0.36309  1.0000
  C   C211      1.0  0.34657  0.24042  0.37042  1.0000
  H   H159      1.0  0.40084  0.06042  0.49782  1.0000
  H   H160      1.0  0.03930  0.16469  0.40239  1.0000
  H   H161      1.0  0.36844  0.29936  0.37881  1.0000
  H   H162      1.0  0.34909  0.23058  0.39195  1.0000
  S   S26       1.0  0.30303  0.48769  0.53064  1.0000
  C   C212      1.0  0.17687  0.35715  0.37261  1.0000
  C   C213      1.0  0.40669  0.37516  0.51713  1.0000
  H   H163      1.0  0.45523  0.39680  0.43933  1.0000
  H   H164      1.0  0.18222  0.10404  0.55790  1.0000
  Fe  Fe9       1.0  0.23918  0.47883  0.54313  1.0000
  C   C214      1.0  0.33966  0.39394  0.50336  1.0000
  H   H165      1.0  0.46193  0.27344  0.55223  1.0000
  C   C215      1.0  0.20742  0.26856  0.35007  1.0000
  C   C216      1.0  0.16809  0.26270  0.35931  1.0000
  H   H166      1.0  0.42736  0.17566  0.55944  1.0000
  P   P7        1.0  0.15199  0.28311  0.39235  1.0000
  C   C217      1.0  0.09816  0.28667  0.39250  1.0000
  C   C218      1.0  0.16777  0.25118  0.42079  1.0000
  C   C219      1.0  0.19671  0.22148  0.41663  1.0000
  C   C220      1.0  0.20716  0.19576  0.43846  1.0000
  C   C221      1.0  0.18896  0.19955  0.46458  1.0000
  C   C222      1.0  0.16047  0.22925  0.46896  1.0000
  C   C223      1.0  0.14995  0.25503  0.44723  1.0000
  C   C224      1.0  0.07871  0.32029  0.38155  1.0000
  H   H167      1.0  0.11189  0.23398  0.34988  1.0000
  S   S27       1.0  0.49456  0.29778  0.40844  1.0000
  H   H168      1.0  0.33518  0.44223  0.47386  1.0000
  C   C225      1.0  0.07517  0.25523  0.40320  1.0000
  C   C226      1.0  0.17380  0.33196  0.39599  1.0000
  H   H169      1.0  0.40749  0.45215  0.47059  1.0000
  H   H170      1.0  0.08857  0.10992  0.31478  1.0000
  C   C227      1.0  0.01463  0.29182  0.39322  1.0000
  H   H171      1.0  0.36445  0.32123  0.32978  1.0000
  C   C228      1.0  0.49008  0.44349  0.52698  1.0000
  H   H172      1.0  0.46346  0.38200  0.61691  1.0000
  C   C229      1.0  0.12644  0.01270  0.57048  1.0000
  C   C230      1.0  0.39635  0.42841  0.48369  1.0000
  H   H173      1.0  0.22808  0.28593  0.36236  1.0000
  C   C231      1.0  0.03361  0.25799  0.40370  1.0000
  H   H174      1.0  0.21056  0.21728  0.39645  1.0000
  H   H175      1.0  0.22840  0.17200  0.43486  1.0000
  H   H176      1.0  0.19585  0.17856  0.48110  1.0000
  H   H177      1.0  0.14508  0.23118  0.48881  1.0000
  H   H178      1.0  0.12694  0.27715  0.45084  1.0000
  H   H179      1.0  0.09526  0.34459  0.37250  1.0000
  H   H180      1.0  0.36490  0.09582  0.61374  1.0000
  C   C232      1.0  0.45613  0.11934  0.56699  1.0000
  C   C233      1.0  0.45423  0.08267  0.58104  1.0000
  H   H181      1.0  0.08913  0.22851  0.41126  1.0000
  H   H182      1.0  0.33640  0.44787  0.33096  1.0000
  H   H183      1.0  0.46896  0.00494  0.52627  1.0000
  C   C234      1.0  0.31853  0.01856  0.54720  1.0000
  H   H184      1.0  0.17696  0.45105  0.47866  1.0000
  P   P8        1.0  0.07785  0.24690  0.63570  1.0000
  H   H185      1.0  0.02177  0.07611  0.59518  1.0000
  C   C235      1.0  0.35525  0.29143  0.33521  1.0000
  H   H186      1.0  0.02609  0.00470  0.56379  1.0000
  H   H187      1.0  0.02406  0.10878  0.43380  1.0000
  H   H188      1.0  0.13456  0.30895  0.61690  1.0000
  C   C236      1.0  0.32200  0.05979  0.54262  1.0000
  C   C237      1.0  0.11011  0.42615  0.32660  1.0000
  H   H189      1.0  0.25036  0.45206  0.47373  1.0000
  C   C238      1.0  0.03646  0.41191  0.47072  1.0000
  H   H190      1.0  0.48182  0.12705  0.55443  1.0000
  C   C239      1.0  0.42522  0.14706  0.56969  1.0000
  C   C240      1.0  0.24968  0.05019  0.61199  1.0000
  C   C241      1.0  0.47316  0.42345  0.43993  1.0000
  C   C242      1.0  0.10451  0.25527  0.60344  1.0000
  C   C243      1.0  0.22041  0.25180  0.32493  1.0000
  H   H191      1.0  0.47011  0.43238  0.39533  1.0000
  H   H192      1.0  0.00946  0.39473  0.58711  1.0000
  Fe  Fe10      1.0  0.47737  0.28285  0.62162  1.0000
  C   C244      1.0  0.10123  0.22751  0.58172  1.0000
  C   C245      1.0  0.12327  0.23222  0.55712  1.0000
  C   C246      1.0  0.14909  0.26446  0.55419  1.0000
  C   C247      1.0  0.15304  0.29184  0.57590  1.0000
  C   C248      1.0  0.13093  0.28730  0.60047  1.0000
  C   C249      1.0  0.35152  0.07478  0.52487  1.0000
  C   C250      1.0  0.21288  0.40544  0.40021  1.0000
  S   S28       1.0  0.18836  0.03433  0.49114  1.0000
  S   S29       1.0  0.47609  0.24303  0.35265  1.0000
  C   C251      1.0  0.03715  0.32303  0.38240  1.0000
  H   H193      1.0  0.46260  0.04155  0.38465  1.0000
  C   C252      1.0  0.22660  0.05863  0.56447  1.0000
  P   P9        1.0  0.49439  0.04705  0.57755  1.0000
  S   S30       1.0  0.29734  0.01741  0.46476  1.0000
  H   H194      1.0  0.04323  0.47198  0.48489  1.0000
  H   H195      1.0  0.35383  0.10649  0.52130  1.0000
  C   C253      1.0  0.05633  0.44826  0.47263  1.0000
  H   H196      1.0  0.19896  0.41271  0.35651  1.0000
  C   C254      1.0  0.47896  0.05588  0.36794  1.0000
  H   H197      1.0  0.08133  0.20240  0.58378  1.0000
  H   H198      1.0  0.11978  0.21117  0.54020  1.0000
  H   H199      1.0  0.16553  0.26873  0.53496  1.0000
  H   H200      1.0  0.17240  0.31730  0.57339  1.0000
  C   C255      1.0  0.37820  0.04891  0.51180  1.0000
  C   C256      1.0  0.48117  0.44370  0.41501  1.0000
  H   H201      1.0  0.22179  0.39030  0.44348  1.0000
  S   S31       1.0  0.03226  0.27892  0.47948  1.0000
  H   H202      1.0  0.48967  0.10886  0.39212  1.0000
  C   C257      1.0  0.08787  0.38713  0.43988  1.0000
  S   S32       1.0  0.37046  0.49118  0.59543  1.0000
  C   C258      1.0  0.19070  0.47219  0.46464  1.0000
  C   C259      1.0  0.34748  0.02169  0.32153  1.0000
  S   S33       1.0  0.27160  0.49190  0.31284  1.0000
  C   C260      1.0  0.10779  0.42342  0.44167  1.0000
  H   H203      1.0  0.22844  0.43359  0.40180  1.0000
  H   H204      1.0  0.12404  0.44359  0.34282  1.0000
  H   H205      1.0  0.02211  0.44706  0.39935  1.0000
  H   H206      1.0  0.02585  0.26753  0.58806  1.0000
  H   H207      1.0  0.22688  0.04976  0.54273  1.0000
  C   C261      1.0  0.05191  0.38159  0.45402  1.0000
  H   H208      1.0  0.35339  0.34825  0.53336  1.0000
  Fe  Fe11      1.0  0.02390  0.28534  0.52546  1.0000
  C   C262      1.0  0.34346  0.26487  0.31427  1.0000
  C   C263      1.0  0.01822  0.14232  0.39581  1.0000
  H   H209      1.0  0.09995  0.36349  0.42722  1.0000
  C   C264      1.0  0.02458  0.24625  0.63080  1.0000
  H   H210      1.0  0.18760  0.32610  0.44015  1.0000
  C   C265      1.0  0.22460  0.08122  0.62050  1.0000
  H   H211      1.0  0.13474  0.42777  0.42966  1.0000
  H   H212      1.0  0.25067  0.25645  0.31787  1.0000
  C   C266      1.0  0.36543  0.37006  0.51908  1.0000
  C   C267      1.0  0.35516  0.42299  0.48557  1.0000
  S   S34       1.0  0.06996  0.17667  0.45993  1.0000
  C   C268      1.0  0.23219  0.47270  0.46188  1.0000
  H   H213      1.0  0.30766  0.39072  0.50554  1.0000
  H   H214      1.0  0.41996  0.04759  0.61047  1.0000
  C   C269      1.0  0.15546  0.22245  0.31820  1.0000
  Fe  Fe12      1.0  0.29606  0.01909  0.41795  1.0000
  S   S35       1.0  0.02329  0.21920  0.53344  1.0000
  S   S36       1.0  0.24938  0.49631  0.58811  1.0000
  H   H215      1.0  0.32231  0.03145  0.33398  1.0000
  C   C270      1.0  0.20929  0.38094  0.42368  1.0000
  H   H216      1.0  0.11203  0.47176  0.51474  1.0000
  C   C271      1.0  0.46173  0.46655  0.54124  1.0000
  C   C272      1.0  0.48784  0.43778  0.46548  1.0000
  C   C273      1.0  0.44757  0.25530  0.53648  1.0000
  C   C274      1.0  0.01759  0.02037  0.44335  1.0000
  H   H217      1.0  0.50123  0.22312  0.52623  1.0000
  C   C275      1.0  0.39017  0.10213  0.60043  1.0000
  H   H218      1.0  0.44261  0.45294  0.61423  1.0000
  S   S37       1.0  0.22970  0.00961  0.41413  1.0000
  H   H219      1.0  0.05826  0.41169  0.35138  1.0000
  H   H220      1.0  0.49081  0.00933  0.47736  1.0000
  C   C276      1.0  0.45129  0.20376  0.50151  1.0000
  H   H221      1.0  0.22399  0.08986  0.64231  1.0000
  H   H222      1.0  0.50001  0.10193  0.62577  1.0000
  H   H223      1.0  0.26737  0.03473  0.62748  1.0000
  C   C277      1.0  0.07287  0.40803  0.33142  1.0000
  C   C278      1.0  0.05766  0.00370  0.60330  1.0000
  H   H224      1.0  0.43036  0.46509  0.53605  1.0000
  H   H225      1.0  0.00876  0.40727  0.48185  1.0000
  H   H226      1.0  0.00548  0.17060  0.35628  1.0000
  H   H227      1.0  0.05590  0.04272  0.41036  1.0000
  Fe  Fe13      1.0  0.20540  0.49173  0.31705  1.0000
  S   S38       1.0  0.48513  0.21858  0.60990  1.0000
  C   C279      1.0  0.12949  0.01085  0.59959  1.0000
  C   C280      1.0  0.00954  0.11046  0.41359  1.0000
  C   C281      1.0  0.48450  0.03678  0.34216  1.0000
  H   H228      1.0  0.38726  0.40125  0.31332  1.0000
  C   C282      1.0  0.44662  0.49721  0.34878  1.0000
  Fe  Fe14      1.0  0.49099  0.23246  0.39766  1.0000
  C   C283      1.0  0.09531  0.00613  0.61596  1.0000
  C   C284      1.0  0.05482  0.00614  0.57404  1.0000
  H   H229      1.0  0.38675  0.01830  0.35678  1.0000
  C   C285      1.0  0.38400  0.01375  0.33445  1.0000
  C   C286      1.0  0.47359  0.49160  0.56290  1.0000
  Fe  Fe15      1.0  0.23179  0.00417  0.46092  1.0000
  H   H230      1.0  0.15293  0.01550  0.55768  1.0000
  C   C287      1.0  0.08957  0.01143  0.44140  1.0000
  H   H231      1.0  0.11787  0.01670  0.43115  1.0000
  H   H232      1.0  0.08689  0.01210  0.53517  1.0000
  H   H233      1.0  0.01598  0.23414  0.41256  1.0000
  H   H234      1.0  0.11815  0.49451  0.39689  1.0000
  C   C288      1.0  0.49391  0.09419  0.37218  1.0000
  C   C289      1.0  0.08913  0.01050  0.55774  1.0000
  H   H235      1.0  0.03985  0.16864  0.64552  1.0000
  H   H236      1.0  0.09861  0.00412  0.63839  1.0000
  H   H237      1.0  0.42193  0.00279  0.56417  1.0000
  C   C290      1.0  0.16713  0.49984  0.45019  1.0000
  S   S39       1.0  0.06341  0.20131  0.72442  1.0000
  H   H238      1.0  0.03479  0.44938  0.76506  1.0000
  H   H239      1.0  0.33032  0.39094  0.95290  1.0000
  H   H240      1.0  0.37490  0.45610  0.66697  1.0000
  H   H241      1.0  0.49577  0.17817  0.81752  1.0000
  Fe  Fe16      1.0  0.46945  0.22968  0.91193  1.0000
  S   S40       1.0  0.46547  0.22502  0.86583  1.0000
  S   S41       1.0  0.42572  0.19404  0.93837  1.0000
  Fe  Fe17      1.0  0.46651  0.29156  0.86645  1.0000
  S   S42       1.0  0.42162  0.32369  0.83863  1.0000
  S   S43       1.0  0.46713  0.29669  0.91294  1.0000
  H   H242      1.0  0.11337  0.04879  0.93664  1.0000
  S   S44       1.0  0.17165  0.43988  0.78208  1.0000
  S   S45       1.0  0.32666  0.48358  0.86677  1.0000
  H   H243      1.0  0.04599  0.07950  0.93218  1.0000
  C   C291      1.0  0.10671  0.07650  0.94709  1.0000
  S   S46       1.0  0.14368  0.03055  0.74285  1.0000
  C   C292      1.0  0.49261  0.11206  0.94934  1.0000
  C   C293      1.0  0.06865  0.09408  0.94445  1.0000
  H   H244      1.0  0.43994  0.45728  0.79149  1.0000
  H   H245      1.0  0.06037  0.38586  0.66510  1.0000
  S   S47       1.0  0.34637  0.02954  0.90263  1.0000
  C   C294      1.0  0.39530  0.36795  0.84711  1.0000
  C   C295      1.0  0.40215  0.38869  0.87193  1.0000
  C   C296      1.0  0.38082  0.42394  0.87762  1.0000
  C   C297      1.0  0.35259  0.43899  0.85860  1.0000
  C   C298      1.0  0.34572  0.41825  0.83380  1.0000
  C   C299      1.0  0.36682  0.38284  0.82820  1.0000
  H   H246      1.0  0.42391  0.37760  0.88670  1.0000
  H   H247      1.0  0.38630  0.43975  0.89683  1.0000
  H   H248      1.0  0.32389  0.42925  0.81905  1.0000
  H   H249      1.0  0.36104  0.36683  0.80906  1.0000
  C   C300      1.0  0.40179  0.14992  0.92695  1.0000
  C   C301      1.0  0.41095  0.13198  0.90137  1.0000
  C   C302      1.0  0.39353  0.09531  0.89412  1.0000
  C   C303      1.0  0.36653  0.07634  0.91220  1.0000
  C   C304      1.0  0.35703  0.09455  0.93760  1.0000
  C   C305      1.0  0.37453  0.13110  0.94487  1.0000
  H   H250      1.0  0.43198  0.14593  0.88738  1.0000
  H   H251      1.0  0.40115  0.08147  0.87444  1.0000
  H   H252      1.0  0.33629  0.08047  0.95171  1.0000
  H   H253      1.0  0.07797  0.48764  0.80419  1.0000
  C   C306      1.0  0.35434  0.10167  0.67337  1.0000
  H   H254      1.0  0.25407  0.19872  0.97121  1.0000
  C   C307      1.0  0.09644  0.19941  0.64784  1.0000
  C   C308      1.0  0.43213  0.13439  0.67555  1.0000
  C   C309      1.0  0.42409  0.09663  0.68697  1.0000
  C   C310      1.0  0.38545  0.08023  0.68580  1.0000
  H   H255      1.0  0.42672  0.47397  0.95847  1.0000
  H   H256      1.0  0.37977  0.05112  0.69454  1.0000
  C   C311      1.0  0.06109  0.36614  0.80603  1.0000
  C   C312      1.0  0.07767  0.39256  0.82561  1.0000
  C   C313      1.0  0.11153  0.41552  0.81885  1.0000
  C   C314      1.0  0.12921  0.41206  0.79245  1.0000
  C   C315      1.0  0.11288  0.38533  0.77316  1.0000
  C   C316      1.0  0.07887  0.36283  0.77973  1.0000
  H   H257      1.0  0.06419  0.39542  0.84604  1.0000
  H   H258      1.0  0.12372  0.43609  0.83387  1.0000
  H   H259      1.0  0.12681  0.38214  0.75294  1.0000
  H   H260      1.0  0.06657  0.34271  0.76449  1.0000
  C   C317      1.0  0.08580  0.15448  0.73206  1.0000
  C   C318      1.0  0.12615  0.14848  0.72528  1.0000
  C   C319      1.0  0.14441  0.11089  0.72856  1.0000
  C   C320      1.0  0.12253  0.07887  0.73905  1.0000
  C   C321      1.0  0.08260  0.08527  0.74695  1.0000
  C   C322      1.0  0.06425  0.12280  0.74340  1.0000
  H   H261      1.0  0.14328  0.17298  0.71704  1.0000
  H   H262      1.0  0.17531  0.10666  0.72287  1.0000
  H   H263      1.0  0.06553  0.06090  0.75549  1.0000
  H   H264      1.0  0.03325  0.12695  0.74889  1.0000
  C   C323      1.0  0.16793  0.17783  0.79447  1.0000
  C   C324      1.0  0.13191  0.15806  0.79866  1.0000
  C   C325      1.0  0.13190  0.11961  0.80971  1.0000
  C   C326      1.0  0.16789  0.10077  0.81643  1.0000
  C   C327      1.0  0.20432  0.11976  0.81108  1.0000
  C   C328      1.0  0.20398  0.15895  0.80092  1.0000
  P   P10       1.0  0.25122  0.09607  0.81966  1.0000
  C   C329      1.0  0.26596  0.11613  0.85302  1.0000
  C   C330      1.0  0.24806  0.04248  0.82115  1.0000
  Fe  Fe18      1.0  0.29505  0.00024  0.92606  1.0000
  C   C331      1.0  0.15312  0.15693  0.65885  1.0000
  H   H265      1.0  0.03909  0.45395  0.92648  1.0000
  H   H266      1.0  0.11167  0.46740  0.92653  1.0000
  C   C332      1.0  0.05264  0.46891  0.90888  1.0000
  C   C333      1.0  0.29190  0.14872  0.85461  1.0000
  C   C334      1.0  0.30309  0.16391  0.88063  1.0000
  C   C335      1.0  0.28791  0.14716  0.90514  1.0000
  C   C336      1.0  0.26166  0.11513  0.90369  1.0000
  C   C337      1.0  0.25038  0.09997  0.87770  1.0000
  C   C338      1.0  0.28875  0.10563  0.79349  1.0000
  C   C339      1.0  0.27808  0.11616  0.76607  1.0000
  C   C340      1.0  0.30754  0.12253  0.74587  1.0000
  C   C341      1.0  0.32917  0.10007  0.80007  1.0000
  H   H267      1.0  0.16787  0.20762  0.78591  1.0000
  H   H268      1.0  0.10402  0.17240  0.79309  1.0000
  H   H269      1.0  0.10396  0.10418  0.81276  1.0000
  H   H270      1.0  0.16709  0.07132  0.82553  1.0000
  H   H271      1.0  0.23164  0.17479  0.79772  1.0000
  H   H272      1.0  0.29449  0.03587  0.85235  1.0000
  C   C342      1.0  0.11093  0.49586  0.88624  1.0000
  S   S48       1.0  0.27768  0.01930  0.96896  1.0000
  C   C343      1.0  0.34065  0.42139  0.95269  1.0000
  H   H273      1.0  0.20445  0.03756  0.78794  1.0000
  H   H274      1.0  0.30376  0.16228  0.83586  1.0000
  H   H275      1.0  0.32406  0.18828  0.88186  1.0000
  H   H276      1.0  0.29712  0.15853  0.92527  1.0000
  H   H277      1.0  0.25037  0.10170  0.92272  1.0000
  H   H278      1.0  0.22974  0.07541  0.87681  1.0000
  H   H279      1.0  0.24710  0.11829  0.75998  1.0000
  H   H280      1.0  0.29925  0.12997  0.72459  1.0000
  H   H281      1.0  0.33797  0.09031  0.82079  1.0000
  C   C344      1.0  0.12800  0.12393  0.66033  1.0000
  S   S49       1.0  0.27058  0.49892  0.79404  1.0000
  H   H282      1.0  0.46447  0.46851  0.73118  1.0000
  H   H283      1.0  0.01237  0.22946  0.67372  1.0000
  C   C345      1.0  0.09357  0.47609  0.90879  1.0000
  H   H284      1.0  0.46169  0.10420  0.94652  1.0000
  S   S50       1.0  0.21468  0.01247  0.67780  1.0000
  C   C346      1.0  0.36839  0.49961  0.95294  1.0000
  H   H285      1.0  0.14000  0.09497  0.66583  1.0000
  H   H286      1.0  0.38965  0.10224  0.78503  1.0000
  C   C347      1.0  0.10851  0.33145  0.90355  1.0000
  C   C348      1.0  0.43950  0.38743  0.69291  1.0000
  H   H287      1.0  0.48913  0.37308  0.94836  1.0000
  C   C349      1.0  0.46012  0.35957  0.78078  1.0000
  Fe  Fe19      1.0  0.20529  0.49029  0.80357  1.0000
  C   C350      1.0  0.43911  0.39550  0.78065  1.0000
  C   C351      1.0  0.45621  0.42954  0.79213  1.0000
  S   S51       1.0  0.21291  0.49701  0.84973  1.0000
  H   H288      1.0  0.03881  0.19319  0.90640  1.0000
  Fe  Fe20      1.0  0.00703  0.22869  0.74316  1.0000
  H   H289      1.0  0.06754  0.10322  0.65749  1.0000
  C   C352      1.0  0.13633  0.09559  0.96257  1.0000
  H   H290      1.0  0.40942  0.39682  0.77186  1.0000
  C   C353      1.0  0.08807  0.35091  0.69749  1.0000
  H   H291      1.0  0.40217  0.40445  0.95827  1.0000
  C   C354      1.0  0.27345  0.02084  0.83893  1.0000
  C   C355      1.0  0.45402  0.49188  0.84845  1.0000
  C   C356      1.0  0.40099  0.15570  0.66309  1.0000
  H   H292      1.0  0.08836  0.37517  0.71231  1.0000
  H   H293      1.0  0.19315  0.31237  0.81984  1.0000
  C   C357      1.0  0.01845  0.28150  0.87457  1.0000
  C   C358      1.0  0.12472  0.13630  0.88209  1.0000
  C   C359      1.0  0.15674  0.13355  0.90056  1.0000
  C   C360      1.0  0.17035  0.16742  0.91434  1.0000
  C   C361      1.0  0.15168  0.20412  0.90987  1.0000
  C   C362      1.0  0.11860  0.20687  0.89201  1.0000
  C   C363      1.0  0.10607  0.17292  0.87748  1.0000
  H   H294      1.0  0.01266  0.34161  0.91854  1.0000
  C   C364      1.0  0.11343  0.36056  0.92408  1.0000
  S   S52       1.0  0.30548  0.08209  0.66992  1.0000
  C   C365      1.0  0.16464  0.29771  0.82192  1.0000
  H   H295      1.0  0.11611  0.39146  0.91809  1.0000
  C   C366      1.0  0.38137  0.42894  0.95589  1.0000
  C   C367      1.0  0.02894  0.48242  0.88675  1.0000
  C   C368      1.0  0.10396  0.28098  0.93959  1.0000
  C   C369      1.0  0.39524  0.46805  0.95591  1.0000
  H   H296      1.0  0.11477  0.30868  0.72582  1.0000
  S   S53       1.0  0.48111  0.15409  0.67781  1.0000
  C   C370      1.0  0.40865  0.40383  0.67699  1.0000
  C   C371      1.0  0.36233  0.13954  0.66221  1.0000
  C   C372      1.0  0.13745  0.19450  0.65255  1.0000
  C   C373      1.0  0.21822  0.38130  0.97411  1.0000
  H   H297      1.0  0.48374  0.39824  0.72454  1.0000
  H   H298      1.0  0.36696  0.14477  0.96454  1.0000
  P   P11       1.0  0.09486  0.25404  0.88502  1.0000
  H   H299      1.0  0.44813  0.35664  0.68990  1.0000
  H   H300      1.0  0.11407  0.10990  0.87163  1.0000
  H   H301      1.0  0.17056  0.10496  0.90463  1.0000
  H   H302      1.0  0.19494  0.16490  0.92889  1.0000
  H   H303      1.0  0.16304  0.23006  0.92044  1.0000
  H   H304      1.0  0.08151  0.17465  0.86285  1.0000
  H   H305      1.0  0.37228  0.47764  0.75128  1.0000
  H   H306      1.0  0.50095  0.43485  0.97490  1.0000
  C   C374      1.0  0.02200  0.21709  0.89689  1.0000
  C   C375      1.0  0.08515  0.28774  0.65941  1.0000
  S   S54       1.0  0.01798  0.33820  0.81493  1.0000
  C   C376      1.0  0.05978  0.13035  0.95767  1.0000
  H   H307      1.0  0.44688  0.46053  0.84820  1.0000
  C   C377      1.0  0.11293  0.26891  0.85108  1.0000
  H   H308      1.0  0.02548  0.35634  0.96830  1.0000
  Fe  Fe21      1.0  0.21498  0.01883  0.95242  1.0000
  C   C378      1.0  0.10299  0.31352  0.70502  1.0000
  H   H309      1.0  0.39335  0.38569  0.66170  1.0000
  S   S55       1.0  0.23272  0.00204  0.90861  1.0000
  H   H310      1.0  0.48923  0.30790  0.97274  1.0000
  H   H311      1.0  0.40670  0.18478  0.65429  1.0000
  C   C379      1.0  0.21096  0.49768  0.97507  1.0000
  H   H312      1.0  0.28394  0.37141  0.85873  1.0000
  C   C380      1.0  0.07050  0.32547  0.65193  1.0000
  C   C381      1.0  0.10464  0.29128  0.91117  1.0000
  C   C382      1.0  0.44850  0.45066  0.71610  1.0000
  C   C383      1.0  0.10164  0.28198  0.68602  1.0000
  C   C384      1.0  0.10536  0.27055  0.80061  1.0000
  C   C385      1.0  0.14206  0.28967  0.79809  1.0000
  H   H313      1.0  0.04601  0.03182  0.67576  1.0000
  H   H314      1.0  0.16838  0.29294  0.86661  1.0000
  H   H315      1.0  0.37049  0.12277  0.73707  1.0000
  H   H316      1.0  0.30486  0.39958  0.90364  1.0000
  H   H317      1.0  0.18397  0.43752  0.91930  1.0000
  H   H318      1.0  0.06231  0.24559  0.82862  1.0000
  C   C386      1.0  0.10913  0.31014  0.96002  1.0000
  H   H319      1.0  0.44793  0.07999  0.69679  1.0000
  C   C387      1.0  0.22279  0.02178  0.80292  1.0000
  S   S56       1.0  0.26344  0.02589  0.73672  1.0000
  H   H320      1.0  0.16364  0.40938  0.87391  1.0000
  H   H321      1.0  0.21355  0.37724  0.84324  1.0000
  H   H322      1.0  0.03290  0.30787  0.86667  1.0000
  H   H323      1.0  0.10677  0.34050  0.88184  1.0000
  C   C388      1.0  0.08920  0.14891  0.97356  1.0000
  C   C389      1.0  0.34774  0.11804  0.75281  1.0000
  C   C390      1.0  0.15035  0.28700  0.84835  1.0000
  H   H324      1.0  0.15284  0.29854  0.77767  1.0000
  S   S57       1.0  0.18600  0.07782  0.96427  1.0000
  C   C391      1.0  0.32766  0.49218  0.94998  1.0000
  C   C392      1.0  0.31341  0.45294  0.94966  1.0000
  H   H325      1.0  0.18466  0.15344  0.66306  1.0000
  P   P12       1.0  0.26050  0.44266  0.94791  1.0000
  H   H326      1.0  0.20116  0.37867  0.95508  1.0000
  H   H327      1.0  0.44643  0.33293  0.77257  1.0000
  C   C393      1.0  0.07211  0.35694  0.67088  1.0000
  C   C394      1.0  0.41777  0.46746  0.69996  1.0000
  C   C395      1.0  0.04131  0.25000  0.88509  1.0000
  Fe  Fe22      1.0  0.27759  0.02756  0.69093  1.0000
  H   H328      1.0  0.09862  0.25052  0.94605  1.0000
  C   C396      1.0  0.39810  0.44383  0.68018  1.0000
  H   H329      1.0  0.08774  0.26436  0.78214  1.0000
  C   C397      1.0  0.24591  0.42032  0.91513  1.0000
  C   C398      1.0  0.20594  0.42261  0.90646  1.0000
  C   C399      1.0  0.19422  0.40652  0.88084  1.0000
  C   C400      1.0  0.22233  0.38820  0.86359  1.0000
  C   C401      1.0  0.26198  0.38521  0.87223  1.0000
  C   C402      1.0  0.27380  0.40123  0.89787  1.0000
  S   S58       1.0  0.01174  0.15178  0.95412  1.0000
  H   H330      1.0  0.11232  0.25302  0.69246  1.0000
  C   C403      1.0  0.09086  0.26017  0.82701  1.0000
  C   C404      1.0  0.35853  0.10660  0.77985  1.0000
  C   C405      1.0  0.11400  0.34989  0.95231  1.0000
  C   C406      1.0  0.45951  0.41088  0.71240  1.0000
  H   H331      1.0  0.46859  0.00835  0.94621  1.0000
  H   H332      1.0  0.11745  0.37244  0.96829  1.0000
  C   C407      1.0  0.00632  0.37578  0.95622  1.0000
  C   C408      1.0  0.49821  0.35763  0.79247  1.0000
  C   C409      1.0  0.07144  0.16606  0.64937  1.0000
  S   S59       1.0  0.00662  0.26805  0.97470  1.0000
  H   H333      1.0  0.15729  0.21973  0.65115  1.0000
  C   C410      1.0  0.49436  0.37173  0.97067  1.0000
  C   C411      1.0  0.08716  0.12858  0.65576  1.0000
  S   S60       1.0  0.49084  0.27332  0.66738  1.0000
  C   C412      1.0  0.23252  0.48840  0.95079  1.0000
  Fe  Fe23      1.0  0.20197  0.00736  0.72373  1.0000
  C   C413      1.0  0.24844  0.40984  0.97662  1.0000
  H   H334      1.0  0.36512  0.49529  0.80116  1.0000
  H   H335      1.0  0.02031  0.48937  0.72317  1.0000
  C   C414      1.0  0.49435  0.42783  0.80397  1.0000
  C   C415      1.0  0.12730  0.13172  0.97583  1.0000
  H   H336      1.0  0.33853  0.15636  0.65252  1.0000
  C   C416      1.0  0.00851  0.44324  0.75270  1.0000
  H   H337      1.0  0.00134  0.43746  0.84359  1.0000
  C   C417      1.0  0.04120  0.00035  0.67903  1.0000
  H   H338      1.0  0.06596  0.00153  0.72061  1.0000
  H   H339      1.0  0.02689  0.47871  0.97609  1.0000
  H   H340      1.0  0.46518  0.78571  0.23885  1.0000
  Fe  Fe24      1.0  0.27184  0.55765  0.04628  1.0000
  S   S61       1.0  0.28428  0.57038  0.09183  1.0000
  S   S62       1.0  0.29890  0.57747  0.00419  1.0000
  H   H341      1.0  0.40696  0.93269  0.19107  1.0000
  Fe  Fe25      1.0  0.21734  0.57107  0.09924  1.0000
  S   S63       1.0  0.17587  0.61675  0.12073  1.0000
  S   S64       1.0  0.20580  0.56386  0.05309  1.0000
  C   C418      1.0  0.11517  0.52722  0.14423  1.0000
  Fe  Fe26      1.0  0.48510  0.71029  0.13127  1.0000
  S   S65       1.0  0.30207  0.57179  0.26471  1.0000
  C   C419      1.0  0.44593  0.54659  0.14523  1.0000
  C   C420      1.0  0.47790  0.91618  0.05321  1.0000
  H   H342      1.0  0.20305  0.77623  0.25601  1.0000
  Fe  Fe27      1.0  0.42651  0.77629  0.11359  1.0000
  S   S66       1.0  0.42426  0.80253  0.15690  1.0000
  S   S67       1.0  0.39702  0.79326  0.07196  1.0000
  H   H343      1.0  0.21819  0.82498  0.21867  1.0000
  Fe  Fe28      1.0  0.42146  0.73924  0.17293  1.0000
  S   S68       1.0  0.38713  0.72531  0.21312  1.0000
  H   H344      1.0  0.06372  0.86998  0.20500  1.0000
  S   S69       1.0  0.41814  0.71377  0.12969  1.0000
  H   H345      1.0  0.17618  0.88464  0.21283  1.0000
  Fe  Fe29      1.0  0.28298  0.96496  0.21754  1.0000
  S   S70       1.0  0.31036  0.95622  0.17506  1.0000
  S   S71       1.0  0.30033  0.93586  0.25927  1.0000
  H   H346      1.0  0.48323  0.74045  0.99452  1.0000
  Fe  Fe30      1.0  0.24729  0.95319  0.15847  1.0000
  S   S72       1.0  0.22998  0.91482  0.12077  1.0000
  S   S73       1.0  0.22032  0.95698  0.20128  1.0000
  S   S74       1.0  0.28732  0.93341  0.02306  1.0000
  Fe  Fe31      1.0  0.05916  0.77141  0.05259  1.0000
  S   S75       1.0  0.06876  0.79432  0.00924  1.0000
  S   S76       1.0  0.08556  0.79713  0.09303  1.0000
  C   C421      1.0  0.03383  0.92604  0.31141  1.0000
  S   S77       1.0  0.06336  0.70735  0.03904  1.0000
  C   C422      1.0  0.24670  0.50702  0.19307  1.0000
  S   S78       1.0  0.04903  0.78283  0.25209  1.0000
  Fe  Fe32      1.0  0.04682  0.71546  0.25408  1.0000
  S   S79       1.0  0.09232  0.67007  0.23617  1.0000
  C   C423      1.0  0.48450  0.97526  0.22558  1.0000
  P   P13       1.0  0.49714  0.90573  0.01857  1.0000
  C   C424      1.0  0.18836  0.88398  0.11298  1.0000
  C   C425      1.0  0.16212  0.87106  0.13370  1.0000
  C   C426      1.0  0.13096  0.84479  0.12697  1.0000
  C   C427      1.0  0.12504  0.83134  0.09950  1.0000
  C   C428      1.0  0.15088  0.84478  0.07859  1.0000
  C   C429      1.0  0.18254  0.87063  0.08538  1.0000
  H   H347      1.0  0.16642  0.88043  0.15508  1.0000
  H   H348      1.0  0.11158  0.83434  0.14336  1.0000
  H   H349      1.0  0.14721  0.83440  0.05737  1.0000
  H   H350      1.0  0.20310  0.87978  0.06920  1.0000
  Fe  Fe33      1.0  0.26757  0.55761  0.30486  1.0000
  C   C430      1.0  0.40018  0.86486  0.26357  1.0000
  C   C431      1.0  0.37001  0.89042  0.25330  1.0000
  C   C432      1.0  0.34004  0.90441  0.27114  1.0000
  C   C433      1.0  0.42950  0.91534  0.98542  1.0000
  H   H351      1.0  0.14347  0.78546  0.28576  1.0000
  H   H352      1.0  0.36975  0.89895  0.23154  1.0000
  C   C434      1.0  0.00708  0.91755  0.10378  1.0000
  C   C435      1.0  0.36727  0.83338  0.05923  1.0000
  C   C436      1.0  0.34457  0.85777  0.07677  1.0000
  C   C437      1.0  0.32019  0.88803  0.06531  1.0000
  C   C438      1.0  0.31827  0.89445  0.03625  1.0000
  C   C439      1.0  0.34119  0.87022  0.01876  1.0000
  C   C440      1.0  0.36532  0.83983  0.03019  1.0000
  H   H353      1.0  0.34521  0.85298  0.09913  1.0000
  H   H354      1.0  0.30238  0.90636  0.07912  1.0000
  H   H355      1.0  0.34007  0.87464  0.99640  1.0000
  H   H356      1.0  0.38266  0.82107  0.01645  1.0000
  C   C441      1.0  0.32443  0.61533  0.25053  1.0000
  C   C442      1.0  0.32708  0.65084  0.26552  1.0000
  C   C443      1.0  0.34612  0.68417  0.25361  1.0000
  C   C444      1.0  0.36261  0.68255  0.22659  1.0000
  C   C445      1.0  0.35960  0.64719  0.21147  1.0000
  C   C446      1.0  0.34079  0.61375  0.22343  1.0000
  H   H357      1.0  0.31470  0.65263  0.28635  1.0000
  H   H358      1.0  0.34819  0.71143  0.26548  1.0000
  H   H359      1.0  0.37208  0.64557  0.19068  1.0000
  H   H360      1.0  0.33891  0.58648  0.21160  1.0000
  C   C447      1.0  0.15070  0.62759  0.15302  1.0000
  C   C448      1.0  0.11766  0.65354  0.15265  1.0000
  C   C449      1.0  0.09830  0.66530  0.17759  1.0000
  C   C450      1.0  0.11255  0.65248  0.20361  1.0000
  C   C451      1.0  0.14486  0.62553  0.20399  1.0000
  C   C452      1.0  0.16367  0.61304  0.17897  1.0000
  H   H361      1.0  0.10723  0.66521  0.13286  1.0000
  H   H362      1.0  0.07327  0.68557  0.17666  1.0000
  H   H363      1.0  0.15607  0.61497  0.22386  1.0000
  H   H364      1.0  0.18903  0.59322  0.17986  1.0000
  C   C453      1.0  0.30365  0.71843  0.04050  1.0000
  C   C454      1.0  0.17147  0.85023  0.98991  1.0000
  C   C455      1.0  0.10092  0.52652  0.29112  1.0000
  C   C456      1.0  0.06374  0.92599  0.06137  1.0000
  C   C457      1.0  0.08874  0.92911  0.15012  1.0000
  H   H365      1.0  0.48479  0.68783  0.29483  1.0000
  H   H366      1.0  0.12791  0.97965  0.15243  1.0000
  C   C458      1.0  0.38983  0.65841  0.99667  1.0000
  H   H367      1.0  0.35747  0.63078  0.03075  1.0000
  C   C459      1.0  0.43670  0.91929  0.05796  1.0000
  H   H368      1.0  0.04523  0.99822  0.18707  1.0000
  C   C460      1.0  0.43263  0.98953  0.18094  1.0000
  C   C461      1.0  0.07407  0.53021  0.14059  1.0000
  C   C462      1.0  0.05822  0.54355  0.25181  1.0000
  H   H369      1.0  0.21627  0.88309  0.01227  1.0000
  H   H370      1.0  0.38580  0.50122  0.16697  1.0000
  H   H371      1.0  0.13639  0.97520  0.20314  1.0000
  C   C463      1.0  0.43672  0.58505  0.13571  1.0000
  C   C464      1.0  0.00823  0.60287  0.20009  1.0000
  C   C465      1.0  0.45752  0.60963  0.21057  1.0000
  C   C466      1.0  0.43902  0.51404  0.12758  1.0000
  H   H372      1.0  0.45289  0.92001  0.23065  1.0000
  H   H373      1.0  0.36802  0.52930  0.01771  1.0000
  H   H374      1.0  0.08550  0.92856  0.04474  1.0000
  C   C467      1.0  0.49397  0.85308  0.01145  1.0000
  H   H375      1.0  0.43080  0.56719  0.01331  1.0000
  C   C468      1.0  0.02706  0.92038  0.25343  1.0000
  H   H376      1.0  0.41842  0.88885  0.99564  1.0000
  H   H377      1.0  0.42713  0.60149  0.21516  1.0000
  C   C469      1.0  0.08133  0.51557  0.26652  1.0000
  C   C470      1.0  0.28153  0.68334  0.04112  1.0000
  C   C471      1.0  0.04967  0.88835  0.06854  1.0000
  C   C472      1.0  0.30142  0.74363  0.01727  1.0000
  H   H378      1.0  0.45283  0.66434  0.23359  1.0000
  H   H379      1.0  0.39022  0.92836  0.08839  1.0000
  C   C473      1.0  0.05496  0.58241  0.26232  1.0000
  H   H380      1.0  0.10293  0.84658  0.28186  1.0000
  C   C474      1.0  0.43183  0.53593  0.01896  1.0000
  H   H381      1.0  0.28296  0.66390  0.05917  1.0000
  H   H382      1.0  0.05293  0.87638  0.15418  1.0000
  C   C475      1.0  0.24160  0.83323  0.99031  1.0000
  H   H383      1.0  0.01170  0.85451  0.09576  1.0000
  H   H384      1.0  0.27138  0.83928  0.99768  1.0000
  H   H385      1.0  0.42273  0.85378  0.24941  1.0000
  C   C476      1.0  0.12705  0.99541  0.25819  1.0000
  C   C477      1.0  0.06458  0.52554  0.19088  1.0000
  H   H386      1.0  0.06069  0.86233  0.05763  1.0000
  C   C478      1.0  0.46846  0.51699  0.02357  1.0000
  H   H387      1.0  0.11897  0.51991  0.21490  1.0000
  H   H388      1.0  0.43851  0.73371  0.27002  1.0000
  C   C479      1.0  0.04987  0.95981  0.07556  1.0000
  H   H389      1.0  0.32214  0.72655  0.05814  1.0000
  C   C480      1.0  0.36073  0.63298  0.00832  1.0000
  C   C481      1.0  0.41299  0.55824  0.09191  1.0000
  H   H390      1.0  0.09689  0.91950  0.30512  1.0000
  H   H391      1.0  0.41560  0.91543  0.04121  1.0000
  H   H392      1.0  0.40866  0.67559  0.01040  1.0000
  H   H393      1.0  0.44830  0.92043  0.29938  1.0000
  H   H394      1.0  0.44950  0.53703  0.24120  1.0000
  P   P14       1.0  0.03152  0.52900  0.22060  1.0000
  H   H395      1.0  0.39048  0.51959  0.26954  1.0000
  H   H396      1.0  0.37192  0.99832  0.25461  1.0000
  C   C482      1.0  0.40128  0.85318  0.29187  1.0000
  H   H397      1.0  0.08656  0.92998  0.12759  1.0000
  H   H398      1.0  0.23975  0.64644  0.01910  1.0000
  Fe  Fe34      1.0  0.49084  0.79402  0.15698  1.0000
  H   H399      1.0  0.44177  0.61086  0.14870  1.0000
  C   C483      1.0  0.37177  0.86778  0.30984  1.0000
  C   C484      1.0  0.48553  0.76536  0.24923  1.0000
  H   H400      1.0  0.13469  0.52974  0.12631  1.0000
  H   H401      1.0  0.02336  0.91846  0.23114  1.0000
  H   H402      1.0  0.03956  0.60781  0.19592  1.0000
  C   C485      1.0  0.06803  0.92127  0.29500  1.0000
  C   C486      1.0  0.02097  0.95539  0.09658  1.0000
  C   C487      1.0  0.02391  0.99913  0.01700  1.0000
  C   C488      1.0  0.42205  0.92641  0.08485  1.0000
  C   C489      1.0  0.25704  0.67357  0.01856  1.0000
  C   C490      1.0  0.42956  0.95435  0.19634  1.0000
  C   C491      1.0  0.25489  0.69865  0.99525  1.0000
  C   C492      1.0  0.27663  0.62856  0.16133  1.0000
  C   C493      1.0  0.31330  0.62480  0.14779  1.0000
  C   C494      1.0  0.32840  0.65664  0.13235  1.0000
  C   C495      1.0  0.30737  0.69256  0.13097  1.0000
  C   C496      1.0  0.27076  0.69670  0.14483  1.0000
  C   C497      1.0  0.25524  0.66420  0.15964  1.0000
  P   P15       1.0  0.24422  0.74335  0.14270  1.0000
  C   C498      1.0  0.27141  0.78270  0.15951  1.0000
  C   C499      1.0  0.23465  0.75294  0.10618  1.0000
  C   C500      1.0  0.25133  0.78585  0.09242  1.0000
  C   C501      1.0  0.24141  0.79391  0.06459  1.0000
  C   C502      1.0  0.21492  0.76917  0.05035  1.0000
  C   C503      1.0  0.19928  0.73571  0.06364  1.0000
  C   C504      1.0  0.20952  0.72727  0.09133  1.0000
  C   C505      1.0  0.25582  0.82136  0.15864  1.0000
  C   C506      1.0  0.27314  0.85168  0.17428  1.0000
  C   C507      1.0  0.30609  0.84361  0.19114  1.0000
  C   C508      1.0  0.32186  0.80517  0.19220  1.0000
  C   C509      1.0  0.30455  0.77466  0.17653  1.0000
  C   C510      1.0  0.19807  0.74278  0.16209  1.0000
  C   C511      1.0  0.16209  0.75483  0.14965  1.0000
  C   C512      1.0  0.12741  0.75793  0.16563  1.0000
  C   C513      1.0  0.12839  0.74942  0.19415  1.0000
  C   C514      1.0  0.16377  0.73658  0.20657  1.0000
  C   C515      1.0  0.19871  0.73414  0.19080  1.0000
  H   H403      1.0  0.26452  0.60381  0.17299  1.0000
  H   H404      1.0  0.32978  0.59710  0.14902  1.0000
  H   H405      1.0  0.35641  0.65351  0.12147  1.0000
  H   H406      1.0  0.31959  0.71718  0.11913  1.0000
  H   H407      1.0  0.22646  0.66595  0.16960  1.0000
  H   H408      1.0  0.27163  0.80562  0.10303  1.0000
  H   H409      1.0  0.25391  0.81969  0.05423  1.0000
  H   H410      1.0  0.20660  0.77569  0.02899  1.0000
  H   H411      1.0  0.17894  0.71640  0.05255  1.0000
  H   H412      1.0  0.19680  0.70138  0.10147  1.0000
  H   H413      1.0  0.22971  0.82782  0.14621  1.0000
  H   H414      1.0  0.26056  0.88127  0.17354  1.0000
  H   H415      1.0  0.31902  0.86699  0.20366  1.0000
  H   H416      1.0  0.34712  0.79891  0.20562  1.0000
  H   H417      1.0  0.31646  0.74484  0.17843  1.0000
  H   H418      1.0  0.16045  0.76244  0.12775  1.0000
  H   H419      1.0  0.09959  0.76625  0.15569  1.0000
  H   H420      1.0  0.10130  0.75086  0.20637  1.0000
  H   H421      1.0  0.16376  0.72783  0.22835  1.0000
  H   H422      1.0  0.22620  0.72532  0.20096  1.0000
  H   H423      1.0  0.41503  0.62068  0.10152  1.0000
  H   H424      1.0  0.00952  0.98088  0.10769  1.0000
  H   H425      1.0  0.26812  0.52486  0.18168  1.0000
  C   C516      1.0  0.17822  0.94753  0.27061  1.0000
  C   C517      1.0  0.14100  0.95601  0.25844  1.0000
  H   H426      1.0  0.47380  0.83627  0.05298  1.0000
  P   P16       1.0  0.10979  0.91685  0.24486  1.0000
  C   C518      1.0  0.09951  0.92327  0.20811  1.0000
  C   C519      1.0  0.13682  0.87051  0.24731  1.0000
  C   C520      1.0  0.16897  0.86354  0.22912  1.0000
  C   C521      1.0  0.19288  0.82977  0.23234  1.0000
  C   C522      1.0  0.18429  0.80224  0.25330  1.0000
  C   C523      1.0  0.15107  0.80783  0.27043  1.0000
  C   C524      1.0  0.12780  0.84224  0.26785  1.0000
  C   C525      1.0  0.07642  0.89508  0.19390  1.0000
  C   C526      1.0  0.07028  0.89860  0.16511  1.0000
  S   S80       1.0  0.04000  0.71534  0.30143  1.0000
  C   C527      1.0  0.42242  0.52075  0.20180  1.0000
  C   C528      1.0  0.11739  0.95404  0.19292  1.0000
  C   C529      1.0  0.06495  0.91831  0.26583  1.0000
  C   C530      1.0  0.47045  0.73593  0.26684  1.0000
  C   C531      1.0  0.27779  0.73344  0.99417  1.0000
  C   C532      1.0  0.42098  0.59081  0.10897  1.0000
  C   C533      1.0  0.41209  0.99518  0.28970  1.0000
  C   C534      1.0  0.48181  0.58530  0.19387  1.0000
  C   C535      1.0  0.14578  0.97737  0.06956  1.0000
  C   C536      1.0  0.04882  0.52912  0.16377  1.0000
  H   H427      1.0  0.07299  0.62360  0.29421  1.0000
  C   C537      1.0  0.20150  0.97815  0.28152  1.0000
  H   H428      1.0  0.20561  0.95363  0.07168  1.0000
  H   H429      1.0  0.41207  0.99540  0.16393  1.0000
  H   H430      1.0  0.17224  0.53996  0.99531  1.0000
  C   C538      1.0  0.39065  0.51397  0.24725  1.0000
  C   C539      1.0  0.09772  0.56533  0.30120  1.0000
  C   C540      1.0  0.47208  0.64534  0.22116  1.0000
  H   H431      1.0  0.39950  0.56285  0.07162  1.0000
  H   H432      1.0  0.18975  0.91749  0.27179  1.0000
  C   C541      1.0  0.11235  0.95678  0.16402  1.0000
  C   C542      1.0  0.48149  0.82624  0.03217  1.0000
  Fe  Fe35      1.0  0.27900  0.50382  0.09755  1.0000
  C   C543      1.0  0.46728  0.93036  0.99210  1.0000
  H   H433      1.0  0.02769  0.96743  0.01953  1.0000
  C   C544      1.0  0.10592  0.52181  0.19432  1.0000
  C   C545      1.0  0.45546  0.94725  0.21866  1.0000
  H   H434      1.0  0.36722  0.96929  0.03162  1.0000
  C   C546      1.0  0.44828  0.93022  0.10729  1.0000
  H   H435      1.0  0.43680  0.93530  0.12815  1.0000
  C   C547      1.0  0.22913  0.52192  0.21738  1.0000
  C   C548      1.0  0.13105  0.52230  0.17098  1.0000
  H   H436      1.0  0.36005  0.99815  0.07905  1.0000
  C   C549      1.0  0.47761  0.78582  0.02599  1.0000
  C   C550      1.0  0.33580  0.61079  0.99093  1.0000
  C   C551      1.0  0.07484  0.59323  0.28675  1.0000
  Fe  Fe36      1.0  0.00218  0.79193  0.00426  1.0000
  C   C552      1.0  0.02185  0.88400  0.09000  1.0000
  H   H437      1.0  0.23720  0.55114  0.22506  1.0000
  C   C553      1.0  0.38833  0.50431  0.18934  1.0000
  H   H438      1.0  0.46695  0.76542  0.04185  1.0000
  H   H439      1.0  0.06196  0.53454  0.11981  1.0000
  H   H440      1.0  0.14725  0.86931  0.99654  1.0000
  H   H441      1.0  0.31786  0.77122  0.01760  1.0000
  C   C554      1.0  0.21032  0.85799  0.99875  1.0000
  H   H442      1.0  0.49281  0.87719  0.27188  1.0000
  C   C555      1.0  0.01625  0.99645  0.19692  1.0000
  C   C556      1.0  0.49652  0.71015  0.28072  1.0000
  C   C557      1.0  0.34138  0.89309  0.29951  1.0000
  C   C558      1.0  0.42197  0.51985  0.10121  1.0000
  H   H443      1.0  0.13438  0.95570  0.08426  1.0000
  H   H444      1.0  0.01704  0.53235  0.16055  1.0000
  S   S81       1.0  0.49382  0.77128  0.11267  1.0000
  C   C559      1.0  0.42370  0.52440  0.23104  1.0000
  C   C560      1.0  0.48665  0.77176  0.99931  1.0000
  S   S82       1.0  0.48774  0.73246  0.17528  1.0000
  Fe  Fe37      1.0  0.03828  0.78237  0.29883  1.0000
  S   S83       1.0  0.00261  0.72965  0.98641  1.0000
  H   H445      1.0  0.03745  0.60488  0.25180  1.0000
  S   S84       1.0  0.20068  0.55625  0.30585  1.0000
  H   H446      1.0  0.49654  0.55047  0.28397  1.0000
  S   S85       1.0  0.44134  0.82214  0.30359  1.0000
  C   C561      1.0  0.39637  0.51462  0.02141  1.0000
  H   H447      1.0  0.23043  0.97126  0.29046  1.0000
  H   H448      1.0  0.16300  0.52072  0.17364  1.0000
  H   H449      1.0  0.11896  0.50511  0.30230  1.0000
  Fe  Fe38      1.0  0.06880  0.73043  0.99493  1.0000
  H   H450      1.0  0.43667  0.98541  0.27688  1.0000
  P   P17       1.0  0.46340  0.53863  0.18054  1.0000
  C   C562      1.0  0.18631  0.97618  0.06278  1.0000
  C   C563      1.0  0.48000  0.92621  0.29941  1.0000
  H   H451      1.0  0.49543  0.53408  0.02112  1.0000
  C   C564      1.0  0.48925  0.92673  0.10290  1.0000
  H   H452      1.0  0.18657  0.51119  0.25019  1.0000
  S   S86       1.0  0.21317  0.50548  0.10744  1.0000
  Fe  Fe39      1.0  0.26998  0.95450  0.97907  1.0000
  S   S87       1.0  0.27312  0.57278  0.35082  1.0000
  H   H453      1.0  0.10310  0.85751  0.43741  1.0000
  Fe  Fe40      1.0  0.20564  0.56752  0.35244  1.0000
  S   S88       1.0  0.15623  0.60876  0.36918  1.0000
  H   H454      1.0  0.07600  0.89504  0.36765  1.0000
  H   H455      1.0  0.25761  0.62913  0.50006  1.0000
  Fe  Fe41      1.0  0.44283  0.74348  0.39867  1.0000
  S   S89       1.0  0.44523  0.72556  0.35339  1.0000
  S   S90       1.0  0.39777  0.72782  0.43288  1.0000
  H   H456      1.0  0.14155  0.79819  0.33191  1.0000
  Fe  Fe42      1.0  0.45979  0.78983  0.34410  1.0000
  C   C565      1.0  0.15271  0.65816  0.62737  1.0000
  C   C566      1.0  0.42791  0.94517  0.58286  1.0000
  S   S91       1.0  0.45262  0.80871  0.38901  1.0000
  C   C567      1.0  0.21383  0.95403  0.57395  1.0000
  Fe  Fe43      1.0  0.30738  0.95111  0.46085  1.0000
  S   S92       1.0  0.31019  0.95410  0.41379  1.0000
  C   C568      1.0  0.44939  0.91407  0.41631  1.0000
  Fe  Fe44      1.0  0.24370  0.94394  0.41364  1.0000
  S   S93       1.0  0.22207  0.89491  0.38397  1.0000
  S   S94       1.0  0.24158  0.93751  0.46042  1.0000
  S   S95       1.0  0.10833  0.68976  0.48602  1.0000
  H   H457      1.0  0.33376  0.64549  0.50490  1.0000
  C   C569      1.0  0.17591  0.87652  0.37062  1.0000
  C   C570      1.0  0.13937  0.89565  0.37525  1.0000
  C   C571      1.0  0.10394  0.88012  0.36366  1.0000
  C   C572      1.0  0.10440  0.84559  0.34699  1.0000
  C   C573      1.0  0.14072  0.82580  0.34327  1.0000
  C   C574      1.0  0.17615  0.84131  0.35477  1.0000
  H   H458      1.0  0.13846  0.92241  0.38769  1.0000
  H   H459      1.0  0.21458  0.64905  0.53976  1.0000
  H   H460      1.0  0.20402  0.82575  0.35144  1.0000
  H   H461      1.0  0.28253  0.50199  0.44297  1.0000
  Fe  Fe45      1.0  0.31240  0.50880  0.57417  1.0000
  C   C575      1.0  0.14405  0.63225  0.40161  1.0000
  C   C576      1.0  0.10765  0.65304  0.40405  1.0000
  C   C577      1.0  0.09615  0.67117  0.42948  1.0000
  C   C578      1.0  0.12090  0.66849  0.45294  1.0000
  C   C579      1.0  0.15744  0.64823  0.45032  1.0000
  C   C580      1.0  0.16924  0.63074  0.42485  1.0000
  H   H462      1.0  0.08811  0.65500  0.38613  1.0000
  H   H463      1.0  0.06812  0.68695  0.43093  1.0000
  H   H464      1.0  0.17665  0.64571  0.46828  1.0000
  H   H465      1.0  0.19789  0.61614  0.42329  1.0000
  C   C581      1.0  0.35222  0.61547  0.43841  1.0000
  C   C582      1.0  0.37257  0.64923  0.42833  1.0000
  C   C583      1.0  0.37788  0.68227  0.44560  1.0000
  H   H466      1.0  0.34724  0.59056  0.42462  1.0000
  H   H467      1.0  0.38270  0.65033  0.40690  1.0000
  C   C584      1.0  0.24810  0.96279  0.55829  1.0000
  Fe  Fe46      1.0  0.28722  0.55072  0.51984  1.0000
  S   S96       1.0  0.30033  0.57295  0.56304  1.0000
  S   S97       1.0  0.31216  0.57039  0.47739  1.0000
  C   C585      1.0  0.05211  0.98232  0.47935  1.0000
  Fe  Fe47      1.0  0.23599  0.55912  0.57349  1.0000
  S   S98       1.0  0.19669  0.60837  0.59300  1.0000
  S   S99       1.0  0.22212  0.54049  0.52894  1.0000
  C   C586      1.0  0.19530  0.90305  0.54103  1.0000
  Fe  Fe48      1.0  0.44667  0.78126  0.61503  1.0000
  S   S100      1.0  0.39695  0.81531  0.59184  1.0000
  C   C587      1.0  0.18558  0.52801  0.43292  1.0000
  S   S101      1.0  0.43818  0.71535  0.62278  1.0000
  H   H468      1.0  0.36738  0.70604  0.48675  1.0000
  S   S102      1.0  0.36124  0.92034  0.48217  1.0000
  Fe  Fe49      1.0  0.04732  0.79536  0.54951  1.0000
  S   S103      1.0  0.06450  0.79864  0.50400  1.0000
  S   S104      1.0  0.06506  0.84119  0.58324  1.0000
  Fe  Fe50      1.0  0.05993  0.73155  0.50323  1.0000
  S   S105      1.0  0.04691  0.72814  0.54975  1.0000
  C   C588      1.0  0.17819  0.88407  0.63003  1.0000
  C   C589      1.0  0.18044  0.85181  0.61133  1.0000
  C   C590      1.0  0.14631  0.83797  0.59705  1.0000
  C   C591      1.0  0.10925  0.85628  0.60124  1.0000
  C   C592      1.0  0.10696  0.88830  0.62017  1.0000
  Fe  Fe51      1.0  0.27288  0.50622  0.35820  1.0000
  C   C593      1.0  0.48949  0.55438  0.34302  1.0000
  H   H469      1.0  0.14876  0.81334  0.58267  1.0000
  C   C594      1.0  0.46802  0.74315  0.48173  1.0000
  H   H470      1.0  0.03411  0.58160  0.36813  1.0000
  C   C595      1.0  0.38824  0.84321  0.56058  1.0000
  C   C596      1.0  0.41902  0.85709  0.54340  1.0000
  C   C597      1.0  0.41019  0.88047  0.51954  1.0000
  C   C598      1.0  0.37055  0.88995  0.51228  1.0000
  C   C599      1.0  0.33993  0.87525  0.52914  1.0000
  C   C600      1.0  0.34871  0.85260  0.55324  1.0000
  H   H471      1.0  0.44961  0.85032  0.54870  1.0000
  H   H472      1.0  0.43427  0.89129  0.50661  1.0000
  H   H473      1.0  0.30941  0.88052  0.52333  1.0000
  H   H474      1.0  0.32455  0.84181  0.56614  1.0000
  C   C601      1.0  0.47749  0.99750  0.58671  1.0000
  H   H475      1.0  0.20894  0.83770  0.60757  1.0000
  C   C602      1.0  0.33802  0.61374  0.46609  1.0000
  C   C603      1.0  0.36377  0.68051  0.47329  1.0000
  C   C604      1.0  0.34454  0.64626  0.48363  1.0000
  H   H476      1.0  0.39654  0.98800  0.50679  1.0000
  H   H477      1.0  0.22977  0.84311  0.44134  1.0000
  C   C605      1.0  0.20058  0.82978  0.44228  1.0000
  C   C606      1.0  0.28378  0.78290  0.45326  1.0000
  C   C607      1.0  0.25599  0.94083  0.53405  1.0000
  S   S106      1.0  0.05889  0.82896  0.33136  1.0000
  C   C608      1.0  0.29929  0.80547  0.43108  1.0000
  P   P18       1.0  0.47567  0.63015  0.51478  1.0000
  C   C609      1.0  0.34203  0.79917  0.48102  1.0000
  C   C610      1.0  0.11633  0.56813  0.49283  1.0000
  H   H478      1.0  0.00350  0.96854  0.39980  1.0000
  C   C611      1.0  0.34638  0.99305  0.53468  1.0000
  C   C612      1.0  0.25034  0.50091  0.44470  1.0000
  C   C613      1.0  0.44077  0.98366  0.57666  1.0000
  C   C614      1.0  0.36327  0.93858  0.63764  1.0000
  C   C615      1.0  0.46266  0.59439  0.56704  1.0000
  H   H479      1.0  0.01964  0.60068  0.41704  1.0000
  H   H480      1.0  0.31662  0.67862  0.37947  1.0000
  C   C616      1.0  0.09638  0.51735  0.40162  1.0000
  H   H481      1.0  0.47027  0.68430  0.46525  1.0000
  H   H482      1.0  0.39680  0.65483  0.53313  1.0000
  H   H483      1.0  0.29154  0.91528  0.59071  1.0000
  H   H484      1.0  0.46699  0.60971  0.35941  1.0000
  H   H485      1.0  0.12144  0.57821  0.56346  1.0000
  H   H486      1.0  0.19257  0.76169  0.50060  1.0000
  H   H487      1.0  0.11848  0.58612  0.47416  1.0000
  C   C617      1.0  0.50082  0.97216  0.60352  1.0000
  H   H488      1.0  0.24133  0.55102  0.41746  1.0000
  H   H489      1.0  0.39003  0.90158  0.40190  1.0000
  C   C618      1.0  0.25150  0.74093  0.61660  1.0000
  H   H490      1.0  0.03642  0.92737  0.33390  1.0000
  H   H491      1.0  0.46212  0.79872  0.50352  1.0000
  C   C619      1.0  0.04874  0.56623  0.38523  1.0000
  C   C620      1.0  0.25313  0.67782  0.64091  1.0000
  H   H492      1.0  0.07860  0.90262  0.62378  1.0000
  C   C621      1.0  0.41626  0.99925  0.31876  1.0000
  C   C622      1.0  0.44047  0.58725  0.59129  1.0000
  H   H493      1.0  0.50066  0.62360  0.45640  1.0000
  P   P19       1.0  0.46305  0.98849  0.33585  1.0000
  H   H494      1.0  0.39670  0.94063  0.35868  1.0000
  C   C623      1.0  0.41750  0.91732  0.39769  1.0000
  H   H495      1.0  0.16812  0.55008  0.42192  1.0000
  C   C624      1.0  0.41843  0.52117  0.36231  1.0000
  C   C625      1.0  0.40285  0.60450  0.59457  1.0000
  C   C626      1.0  0.30537  0.77998  0.47832  1.0000
  C   C627      1.0  0.12396  0.79752  0.44335  1.0000
  C   C628      1.0  0.42553  0.56174  0.36588  1.0000
  H   H496      1.0  0.38934  0.52925  0.47061  1.0000
  C   C629      1.0  0.36398  0.97987  0.63420  1.0000
  C   C630      1.0  0.43274  0.55215  0.44169  1.0000
  H   H497      1.0  0.02339  0.78784  0.37750  1.0000
  H   H498      1.0  0.08301  0.52811  0.35826  1.0000
  C   C631      1.0  0.48878  0.95702  0.38654  1.0000
  H   H499      1.0  0.28333  0.80775  0.41144  1.0000
  H   H500      1.0  0.02300  0.92444  0.59276  1.0000
  H   H501      1.0  0.47829  0.58126  0.41755  1.0000
  H   H502      1.0  0.38580  0.59909  0.61340  1.0000
  C   C632      1.0  0.07639  0.53617  0.37965  1.0000
  C   C633      1.0  0.31209  0.97540  0.59897  1.0000
  H   H503      1.0  0.28215  0.94657  0.52157  1.0000
  H   H504      1.0  0.38574  0.83619  0.46091  1.0000
  C   C634      1.0  0.42525  0.57477  0.48941  1.0000
  H   H505      1.0  0.34767  0.84197  0.41672  1.0000
  C   C635      1.0  0.33698  0.91566  0.62190  1.0000
  C   C636      1.0  0.44717  0.61872  0.54582  1.0000
  C   C637      1.0  0.28213  0.71208  0.40921  1.0000
  C   C638      1.0  0.16717  0.85455  0.43977  1.0000
  H   H506      1.0  0.15296  0.74134  0.44912  1.0000
  H   H507      1.0  0.20830  0.96866  0.59367  1.0000
  P   P20       1.0  0.23828  0.75533  0.44832  1.0000
  C   C639      1.0  0.11243  0.52673  0.49095  1.0000
  H   H508      1.0  0.25876  0.66504  0.34855  1.0000
  C   C640      1.0  0.17225  0.62109  0.62514  1.0000
  C   C641      1.0  0.21181  0.71887  0.39894  1.0000
  H   H509      1.0  0.46622  0.75695  0.46130  1.0000
  C   C642      1.0  0.48517  0.93358  0.41059  1.0000
  H   H510      1.0  0.40967  0.57237  0.50913  1.0000
  C   C643      1.0  0.45124  0.92029  0.59959  1.0000
  H   H511      1.0  0.05289  0.56627  0.45612  1.0000
  C   C644      1.0  0.01796  0.67962  0.63151  1.0000
  H   H512      1.0  0.44100  0.89052  0.60454  1.0000
  C   C645      1.0  0.45665  0.96087  0.36791  1.0000
  H   H513      1.0  0.42316  0.53315  0.42477  1.0000
  C   C646      1.0  0.23084  0.72160  0.47732  1.0000
  H   H514      1.0  0.26818  0.67471  0.46046  1.0000
  H   H515      1.0  0.30769  0.71757  0.42242  1.0000
  C   C647      1.0  0.28733  0.68986  0.38484  1.0000
  H   H516      1.0  0.46465  0.76752  0.55049  1.0000
  H   H517      1.0  0.19182  0.69031  0.36127  1.0000
  C   C648      1.0  0.15724  0.77286  0.44638  1.0000
  C   C649      1.0  0.21964  0.66950  0.52260  1.0000
  C   C650      1.0  0.38730  0.62886  0.57356  1.0000
  H   H518      1.0  0.25191  0.75774  0.59727  1.0000
  C   C651      1.0  0.46357  0.57933  0.43763  1.0000
  C   C652      1.0  0.31144  0.93392  0.60266  1.0000
  C   C653      1.0  0.41386  0.54970  0.46761  1.0000
  H   H519      1.0  0.24830  0.79301  0.64245  1.0000
  H   H520      1.0  0.18220  0.72924  0.40387  1.0000
  C   C654      1.0  0.48188  0.51390  0.33831  1.0000
  H   H521      1.0  0.11594  0.50473  0.56057  1.0000
  H   H522      1.0  0.33630  0.88361  0.62455  1.0000
  C   C655      1.0  0.14107  0.90214  0.63445  1.0000
  C   C656      1.0  0.24437  0.72712  0.41640  1.0000
  H   H523      1.0  0.18204  0.71526  0.53976  1.0000
  C   C657      1.0  0.19586  0.78854  0.44540  1.0000
  H   H524      1.0  0.09436  0.78479  0.44353  1.0000
  C   C658      1.0  0.33578  0.82486  0.43396  1.0000
  H   H525      1.0  0.40346  0.58033  0.37613  1.0000
  H   H526      1.0  0.17510  0.87971  0.53460  1.0000
  H   H527      1.0  0.12257  0.61858  0.52014  1.0000
  C   C659      1.0  0.12889  0.83842  0.44003  1.0000
  H   H528      1.0  0.37220  0.85946  0.33168  1.0000
  C   C660      1.0  0.11892  0.58660  0.51890  1.0000
  C   C661      1.0  0.22706  0.52859  0.43028  1.0000
  C   C662      1.0  0.08889  0.52849  0.42941  1.0000
  C   C663      1.0  0.48755  0.93386  0.61004  1.0000
  C   C664      1.0  0.04054  0.57693  0.41284  1.0000
  H   H529      1.0  0.05118  0.96452  0.49825  1.0000
  H   H530      1.0  0.35892  0.79642  0.50021  1.0000
  H   H531      1.0  0.29449  0.76237  0.49562  1.0000
  C   C665      1.0  0.20139  0.70686  0.52262  1.0000
  H   H532      1.0  0.44653  0.89580  0.43489  1.0000
  H   H533      1.0  0.39962  0.93457  0.57491  1.0000
  H   H534      1.0  0.39088  0.50844  0.36993  1.0000
  C   C666      1.0  0.11826  0.56381  0.54333  1.0000
  H   H535      1.0  0.15979  0.92000  0.57639  1.0000
  H   H536      1.0  0.25446  0.64565  0.64038  1.0000
  H   H537      1.0  0.04814  0.67325  0.62472  1.0000
  C   C667      1.0  0.21715  0.69671  0.37454  1.0000
  C   C668      1.0  0.24958  0.68422  0.47767  1.0000
  C   C669      1.0  0.25485  0.68224  0.36746  1.0000
  C   C670      1.0  0.24389  0.65830  0.50023  1.0000
  C   C671      1.0  0.20714  0.73296  0.50019  1.0000
  C   C672      1.0  0.33866  0.99815  0.61482  1.0000
  S   S107      1.0  0.20616  0.50215  0.36312  1.0000
  H   H538      1.0  0.35827  0.64256  0.57616  1.0000
  H   H539      1.0  0.23747  0.89137  0.50844  1.0000
  H   H540      1.0  0.45246  0.56846  0.60765  1.0000
  C   C673      1.0  0.42124  0.94007  0.37335  1.0000
  H   H541      1.0  0.45123  0.50837  0.57420  1.0000
  C   C674      1.0  0.06010  0.55781  0.43493  1.0000
  H   H542      1.0  0.17109  0.88618  0.43672  1.0000
  C   C675      1.0  0.40919  0.63571  0.54919  1.0000
  C   C676      1.0  0.35724  0.82153  0.45884  1.0000
  C   C677      1.0  0.01680  0.99762  0.46803  1.0000
  C   C678      1.0  0.11253  0.50391  0.51559  1.0000
  H   H543      1.0  0.34567  0.96145  0.53889  1.0000
  C   C679      1.0  0.25309  0.69942  0.61595  1.0000
  C   C680      1.0  0.18678  0.92557  0.56468  1.0000
  C   C681      1.0  0.46572  0.76682  0.50557  1.0000
  C   C682      1.0  0.11510  0.52246  0.54167  1.0000
  H   H544      1.0  0.47276  0.69514  0.55521  1.0000
  C   C683      1.0  0.49564  0.95786  0.31493  1.0000
  H   H545      1.0  0.15280  0.67823  0.60967  1.0000
  C   C684      1.0  0.23027  0.91009  0.52610  1.0000
  P   P21       1.0  0.01303  0.99857  0.62417  1.0000
  H   H546      1.0  0.49213  0.58169  0.56523  1.0000
  C   C685      1.0  0.46728  0.74924  0.53196  1.0000
  H   H547      1.0  0.25413  0.68388  0.59614  1.0000
  C   C686      1.0  0.45617  0.60231  0.48555  1.0000
  H   H548      1.0  0.11599  0.97813  0.47515  1.0000
  C   C687      1.0  0.46122  0.57825  0.35646  1.0000
  C   C688      1.0  0.08853  0.98958  0.46622  1.0000
  C   C689      1.0  0.47566  0.60387  0.45958  1.0000
  C   C690      1.0  0.47078  0.70173  0.48412  1.0000
  C   C691      1.0  0.47265  0.68372  0.51059  1.0000
  H   H549      1.0  0.31909  0.55342  0.62372  1.0000
  C   C692      1.0  0.47140  0.70802  0.53448  1.0000
  H   H550      1.0  0.11333  0.57410  0.32002  1.0000
  P   P22       1.0  0.11449  0.50276  0.45727  1.0000
  P   P23       1.0  0.28268  0.99892  0.57195  1.0000
  C   C693      1.0  0.24929  0.76079  0.64220  1.0000
  H   H551      1.0  0.31854  0.90376  0.31362  1.0000
  C   C694      1.0  0.16389  0.81760  0.97272  1.0000
  Fe  Fe52      1.0  0.25743  0.56459  0.79083  1.0000
  S   S108      1.0  0.26723  0.57670  0.83679  1.0000
  S   S109      1.0  0.27785  0.59875  0.75155  1.0000
  C   C695      1.0  0.47910  0.53186  0.67568  1.0000
  Fe  Fe53      1.0  0.20188  0.56250  0.84283  1.0000
  S   S110      1.0  0.14964  0.58900  0.86777  1.0000
  S   S111      1.0  0.19125  0.55485  0.79660  1.0000
  H   H552      1.0  0.37271  0.64236  0.92768  1.0000
  C   C696      1.0  0.01956  0.88778  0.79947  1.0000
  C   C697      1.0  0.10765  0.92043  0.91650  1.0000
  Fe  Fe54      1.0  0.45227  0.72797  0.66784  1.0000
  S   S112      1.0  0.42853  0.69921  0.70835  1.0000
  H   H553      1.0  0.32147  0.59754  0.94805  1.0000
  C   C698      1.0  0.09377  0.74882  0.88397  1.0000
  Fe  Fe55      1.0  0.45350  0.71747  0.91127  1.0000
  S   S113      1.0  0.44622  0.69526  0.86720  1.0000
  S   S114      1.0  0.43248  0.69429  0.95422  1.0000
  C   C699      1.0  0.40390  0.53147  0.74020  1.0000
  Fe  Fe56      1.0  0.44360  0.76010  0.85385  1.0000
  S   S115      1.0  0.39706  0.77785  0.82057  1.0000
  C   C700      1.0  0.43793  0.95239  0.70212  1.0000
  S   S116      1.0  0.44685  0.78177  0.89828  1.0000
  P   P24       1.0  0.40623  0.51969  0.70339  1.0000
  Fe  Fe57      1.0  0.28031  0.96063  0.73524  1.0000
  S   S117      1.0  0.29791  0.96389  0.68981  1.0000
  S   S118      1.0  0.32332  0.93980  0.77003  1.0000
  H   H554      1.0  0.49385  0.95932  0.68051  1.0000
  Fe  Fe58      1.0  0.23362  0.94837  0.68029  1.0000
  S   S119      1.0  0.21727  0.94171  0.72581  1.0000
  C   C701      1.0  0.09068  0.52796  0.77062  1.0000
  H   H555      1.0  0.07008  0.57737  0.67594  1.0000
  S   S120      1.0  0.29211  0.93498  0.93697  1.0000
  C   C702      1.0  0.39079  0.83207  0.94488  1.0000
  Fe  Fe59      1.0  0.22773  0.93823  0.92307  1.0000
  S   S121      1.0  0.20213  0.88214  0.90213  1.0000
  C   C703      1.0  0.45761  0.98250  0.95732  1.0000
  C   C704      1.0  0.38076  0.51505  0.78700  1.0000
  Fe  Fe60      1.0  0.07372  0.77678  0.77201  1.0000
  S   S122      1.0  0.07634  0.77471  0.72483  1.0000
  S   S123      1.0  0.10808  0.82986  0.79088  1.0000
  Fe  Fe61      1.0  0.07247  0.70796  0.72783  1.0000
  S   S124      1.0  0.10828  0.65662  0.70764  1.0000
  S   S125      1.0  0.07416  0.70959  0.77521  1.0000
  C   C705      1.0  0.17643  0.86861  0.87074  1.0000
  C   C706      1.0  0.16600  0.89622  0.85002  1.0000
  C   C707      1.0  0.14517  0.88381  0.82584  1.0000
  C   C708      1.0  0.13441  0.84370  0.82193  1.0000
  C   C709      1.0  0.14519  0.81614  0.84250  1.0000
  C   C710      1.0  0.16581  0.82854  0.86673  1.0000
  H   H556      1.0  0.17385  0.92712  0.85263  1.0000
  H   H557      1.0  0.13733  0.90548  0.81003  1.0000
  H   H558      1.0  0.13780  0.78518  0.83966  1.0000
  H   H559      1.0  0.17346  0.80686  0.88255  1.0000
  C   C711      1.0  0.37607  0.82328  0.80741  1.0000
  C   C712      1.0  0.38529  0.86050  0.81867  1.0000
  C   C713      1.0  0.36836  0.89552  0.80721  1.0000
  C   C714      1.0  0.34206  0.89408  0.78427  1.0000
  C   C715      1.0  0.33255  0.85684  0.77319  1.0000
  C   C716      1.0  0.34956  0.82183  0.78460  1.0000
  H   H560      1.0  0.40530  0.86228  0.83628  1.0000
  H   H561      1.0  0.37573  0.92401  0.81618  1.0000
  H   H562      1.0  0.31207  0.85494  0.75584  1.0000
  H   H563      1.0  0.34218  0.79333  0.77563  1.0000
  C   C717      1.0  0.14280  0.62308  0.89578  1.0000
  C   C718      1.0  0.10518  0.62573  0.90870  1.0000
  C   C719      1.0  0.09793  0.65317  0.93041  1.0000
  C   C720      1.0  0.12845  0.67808  0.93965  1.0000
  C   C721      1.0  0.16616  0.67507  0.92693  1.0000
  C   C722      1.0  0.17331  0.64777  0.90516  1.0000
  H   H564      1.0  0.08154  0.60630  0.90194  1.0000
  H   H565      1.0  0.20212  0.96441  0.78928  1.0000
  H   H566      1.0  0.18999  0.69418  0.93383  1.0000
  H   H567      1.0  0.20231  0.64596  0.89550  1.0000
  C   C723      1.0  0.31916  0.62829  0.74029  1.0000
  C   C724      1.0  0.32253  0.63844  0.71178  1.0000
  C   C725      1.0  0.35504  0.66088  0.70165  1.0000
  C   C726      1.0  0.38495  0.67347  0.71994  1.0000
  C   C727      1.0  0.38112  0.66416  0.74854  1.0000
  C   C728      1.0  0.34851  0.64181  0.75866  1.0000
  H   H568      1.0  0.29997  0.62848  0.69734  1.0000
  H   H569      1.0  0.35714  0.66795  0.67964  1.0000
  H   H570      1.0  0.40353  0.67435  0.76306  1.0000
  H   H571      1.0  0.34611  0.63502  0.78068  1.0000
  H   H572      1.0  0.29240  0.96274  0.85276  1.0000
  C   C729      1.0  0.14165  0.82586  0.68160  1.0000
  C   C730      1.0  0.05090  0.58805  0.76902  1.0000
  C   C731      1.0  0.13311  0.64448  0.67559  1.0000
  C   C732      1.0  0.07464  0.72300  0.86561  1.0000
  C   C733      1.0  0.07473  0.88513  0.95397  1.0000
  H   H573      1.0  0.15297  0.58760  0.69118  1.0000
  C   C734      1.0  0.13765  0.85140  0.70442  1.0000
  H   H574      1.0  0.09743  0.57419  0.73960  1.0000
  C   C735      1.0  0.47914  0.94806  0.69905  1.0000
  H   H575      1.0  0.20947  0.57044  0.91208  1.0000
  H   H576      1.0  0.12197  0.92731  0.96005  1.0000
  S   S126      1.0  0.20539  0.95544  0.96616  1.0000
  C   C736      1.0  0.46286  0.61185  0.66444  1.0000
  C   C737      1.0  0.08116  0.56424  0.75791  1.0000
  H   H577      1.0  0.42072  0.96760  0.68625  1.0000
  S   S127      1.0  0.22280  0.90150  0.64623  1.0000
  C   C738      1.0  0.48275  0.91540  0.74434  1.0000
  H   H578      1.0  0.06874  0.65522  0.93986  1.0000
  C   C739      1.0  0.01951  0.93585  0.66267  1.0000
  C   C740      1.0  0.17195  0.59576  0.64839  1.0000
  C   C741      1.0  0.36456  0.83207  0.70463  1.0000
  C   C742      1.0  0.47267  0.57267  0.85129  1.0000
  C   C743      1.0  0.41568  0.57671  0.77882  1.0000
  C   C744      1.0  0.36967  0.63987  0.95011  1.0000
  C   C745      1.0  0.44112  0.91806  0.74657  1.0000
  C   C746      1.0  0.22167  0.98023  0.80339  1.0000
  C   C747      1.0  0.05247  0.98333  0.70454  1.0000
  C   C748      1.0  0.41939  0.56727  0.75048  1.0000
  H   H579      1.0  0.43331  0.58851  0.73666  1.0000
  C   C749      1.0  0.05429  0.87427  0.90592  1.0000
  H   H580      1.0  0.41991  0.78217  0.96449  1.0000
  C   C750      1.0  0.41887  0.93689  0.72568  1.0000
  C   C751      1.0  0.44075  0.55778  0.86671  1.0000
  H   H581      1.0  0.02480  0.71497  0.83793  1.0000
  C   C752      1.0  0.27251  0.97928  0.83917  1.0000
  H   H582      1.0  0.07146  0.87832  0.97598  1.0000
  H   H583      1.0  0.42313  0.57751  0.87972  1.0000
  H   H584      1.0  0.27200  0.71156  0.79475  1.0000
  C   C753      1.0  0.28724  0.54305  0.69067  1.0000
  C   C754      1.0  0.39176  0.79584  0.95913  1.0000
  H   H585      1.0  0.12059  0.73931  0.89475  1.0000
  C   C755      1.0  0.08354  0.90115  0.89697  1.0000
  H   H586      1.0  0.03046  0.84315  0.94154  1.0000
  C   C756      1.0  0.07882  0.78720  0.88817  1.0000
  C   C757      1.0  0.19891  0.67954  0.75118  1.0000
  C   C758      1.0  0.22302  0.68160  0.77490  1.0000
  H   H587      1.0  0.25771  0.55873  0.65222  1.0000
  C   C759      1.0  0.26020  0.73544  0.75379  1.0000
  C   C760      1.0  0.23720  0.73238  0.72936  1.0000
  C   C761      1.0  0.20565  0.70512  0.72863  1.0000
  P   P25       1.0  0.24482  0.76554  0.70010  1.0000
  C   C762      1.0  0.20325  0.79966  0.70106  1.0000
  C   C763      1.0  0.29139  0.79200  0.70247  1.0000
  C   C764      1.0  0.29343  0.83264  0.69583  1.0000
  C   C765      1.0  0.32994  0.85251  0.69693  1.0000
  C   C766      1.0  0.50111  0.87531  0.82816  1.0000
  H   H588      1.0  0.38280  0.92417  0.65258  1.0000
  C   C767      1.0  0.32656  0.77138  0.70918  1.0000
  H   H589      1.0  0.32382  0.52889  0.72579  1.0000
  H   H590      1.0  0.38389  0.99785  0.64663  1.0000
  H   H591      1.0  0.49319  0.53920  0.77737  1.0000
  C   C768      1.0  0.16581  0.85047  0.72588  1.0000
  C   C769      1.0  0.19861  0.82485  0.72417  1.0000
  C   C770      1.0  0.24785  0.73920  0.66733  1.0000
  C   C771      1.0  0.25062  0.69756  0.66653  1.0000
  C   C772      1.0  0.01116  0.92825  0.80234  1.0000
  H   H592      1.0  0.00722  0.59494  0.80130  1.0000
  H   H593      1.0  0.40152  0.98192  0.93543  1.0000
  C   C773      1.0  0.02496  0.97667  0.65775  1.0000
  H   H594      1.0  0.17513  0.65790  0.75012  1.0000
  H   H595      1.0  0.28319  0.75763  0.75571  1.0000
  H   H596      1.0  0.18640  0.70336  0.71051  1.0000
  H   H597      1.0  0.26700  0.84901  0.68961  1.0000
  C   C774      1.0  0.32351  0.53336  0.70343  1.0000
  H   H598      1.0  0.02699  0.88739  0.69171  1.0000
  C   C775      1.0  0.20963  0.55006  0.92961  1.0000
  H   H599      1.0  0.32587  0.73979  0.71352  1.0000
  H   H600      1.0  0.11871  0.69848  0.65360  1.0000
  H   H601      1.0  0.02304  0.65688  0.88077  1.0000
  C   C776      1.0  0.41989  0.96754  0.95114  1.0000
  H   H602      1.0  0.16195  0.86920  0.74409  1.0000
  H   H603      1.0  0.22007  0.82433  0.74108  1.0000
  H   H604      1.0  0.25089  0.68013  0.68552  1.0000
  H   H605      1.0  0.13084  0.94041  0.90944  1.0000
  H   H606      1.0  0.38968  0.77557  0.71661  1.0000
  C   C777      1.0  0.01060  0.92048  0.85266  1.0000
  H   H607      1.0  0.04869  0.60068  0.85300  1.0000
  S   S128      1.0  0.00527  0.70854  0.72548  1.0000
  H   H608      1.0  0.44868  0.75899  0.77351  1.0000
  C   C778      1.0  0.49861  0.59490  0.65537  1.0000
  H   H609      1.0  0.11227  0.87123  0.70577  1.0000
  H   H610      1.0  0.39137  0.55903  0.81860  1.0000
  H   H611      1.0  0.38680  0.93955  0.72792  1.0000
  C   C779      1.0  0.45691  0.94422  0.83881  1.0000
  C   C780      1.0  0.50067  0.75960  0.74718  1.0000
  H   H612      1.0  0.45628  0.64277  0.65993  1.0000
  C   C781      1.0  0.23421  0.80041  0.97307  1.0000
  C   C782      1.0  0.40572  0.93424  0.96541  1.0000
  P   P26       1.0  0.02322  0.84879  0.88099  1.0000
  S   S129      1.0  0.45714  0.79425  0.66096  1.0000
  C   C783      1.0  0.13334  0.66984  0.65235  1.0000
  H   H613      1.0  0.37620  0.92308  0.96099  1.0000
  C   C784      1.0  0.15268  0.60746  0.67337  1.0000
  C   C785      1.0  0.07032  0.51579  0.79466  1.0000
  H   H614      1.0  0.40701  0.50597  0.87761  1.0000
  C   C786      1.0  0.43157  0.51741  0.86537  1.0000
  C   C787      1.0  0.03982  0.73517  0.85201  1.0000
  H   H615      1.0  0.03421  0.73314  0.65321  1.0000
  H   H616      1.0  0.08684  0.69354  0.86202  1.0000
  C   C788      1.0  0.28566  0.55059  0.66200  1.0000
  H   H617      1.0  0.26050  0.54585  0.70326  1.0000
  C   C789      1.0  0.04429  0.80007  0.87412  1.0000
  C   C790      1.0  0.00404  0.63162  0.87673  1.0000
  C   C791      1.0  0.35653  0.53799  0.65861  1.0000
  C   C792      1.0  0.02010  0.53714  0.67753  1.0000
  C   C793      1.0  0.03061  0.57600  0.79311  1.0000
  H   H618      1.0  0.04354  0.61618  0.75913  1.0000
  H   H619      1.0  0.09471  0.80661  0.90226  1.0000
  H   H620      1.0  0.41837  0.84684  0.93947  1.0000
  C   C794      1.0  0.04734  0.94266  0.70913  1.0000
  C   C795      1.0  0.47725  0.81627  0.77365  1.0000
  C   C796      1.0  0.04078  0.54012  0.80647  1.0000
  H   H621      1.0  0.30761  0.51733  0.94845  1.0000
  C   C797      1.0  0.31957  0.79332  0.95861  1.0000
  H   H622      1.0  0.11935  0.82598  0.66524  1.0000
  H   H623      1.0  0.42678  0.60482  0.78656  1.0000
  C   C798      1.0  0.43550  0.58909  0.67945  1.0000
  C   C799      1.0  0.23168  0.51484  0.92807  1.0000
  C   C800      1.0  0.05091  0.86563  0.93444  1.0000
  C   C801      1.0  0.39585  0.55090  0.79695  1.0000
  H   H624      1.0  0.37893  0.53003  0.95331  1.0000
  H   H625      1.0  0.33128  0.88384  0.69205  1.0000
  H   H626      1.0  0.00714  0.91662  0.64684  1.0000
  C   C802      1.0  0.44338  0.54896  0.68534  1.0000
  H   H627      1.0  0.49719  0.72898  0.74076  1.0000
  C   C803      1.0  0.34060  0.61440  0.96177  1.0000
  C   C804      1.0  0.24654  0.95898  0.82149  1.0000
  C   C805      1.0  0.47334  0.77653  0.76567  1.0000
  P   P27       1.0  0.01453  0.52440  0.83756  1.0000
  C   C806      1.0  0.01558  0.60803  0.68565  1.0000
  C   C807      1.0  0.35857  0.53087  0.68747  1.0000
  H   H628      1.0  0.40791  0.60271  0.68627  1.0000
  H   H629      1.0  0.45529  0.82903  0.78757  1.0000
  H   H630      1.0  0.02978  0.63684  0.68706  1.0000
  C   C808      1.0  0.35432  0.84817  0.93643  1.0000
  C   C809      1.0  0.31875  0.82903  0.94340  1.0000
  C   C810      1.0  0.10302  0.91268  0.94501  1.0000
  H   H631      1.0  0.24634  0.92673  0.82138  1.0000
  P   P28       1.0  0.27406  0.76653  0.96450  1.0000
  C   C811      1.0  0.02435  0.77330  0.85655  1.0000
  C   C812      1.0  0.26577  0.74100  0.93197  1.0000
  C   C813      1.0  0.28183  0.70291  0.92775  1.0000
  C   C814      1.0  0.27847  0.68447  0.90170  1.0000
  C   C815      1.0  0.25947  0.70412  0.87962  1.0000
  C   C816      1.0  0.24397  0.74232  0.88354  1.0000
  C   C817      1.0  0.24744  0.76089  0.90953  1.0000
  C   C818      1.0  0.19505  0.79249  0.96460  1.0000
  C   C819      1.0  0.38498  0.50518  0.75878  1.0000
  H   H632      1.0  0.14239  0.50289  0.88660  1.0000
  H   H633      1.0  0.17588  0.77967  0.66248  1.0000
  H   H634      1.0  0.05666  0.92935  0.72873  1.0000
  C   C820      1.0  0.39456  0.66212  0.96750  1.0000
  H   H635      1.0  0.08848  0.90654  0.87494  1.0000
  H   H636      1.0  0.00876  0.94695  0.78395  1.0000
  C   C821      1.0  0.18809  0.55912  0.95377  1.0000
  C   C822      1.0  0.04622  0.50195  0.86379  1.0000
  C   C823      1.0  0.36286  0.79149  0.71068  1.0000
  H   H637      1.0  0.47832  0.64735  0.74772  1.0000
  C   C824      1.0  0.25347  0.70973  0.77629  1.0000
  H   H638      1.0  0.35364  0.87502  0.92395  1.0000
  H   H639      1.0  0.29068  0.84153  0.93632  1.0000
  H   H640      1.0  0.17123  0.58664  0.95497  1.0000
  H   H641      1.0  0.29761  0.68777  0.94440  1.0000
  H   H642      1.0  0.29089  0.65504  0.89860  1.0000
  H   H643      1.0  0.25695  0.68987  0.85942  1.0000
  H   H644      1.0  0.22982  0.75786  0.86632  1.0000
  H   H645      1.0  0.23648  0.79106  0.91191  1.0000
  H   H646      1.0  0.18835  0.76668  0.95202  1.0000
  H   H647      1.0  0.13383  0.81125  0.96589  1.0000
  H   H648      1.0  0.39271  0.84758  0.70596  1.0000
  H   H649      1.0  0.42578  0.90569  0.76449  1.0000
  H   H650      1.0  0.21817  0.66122  0.79211  1.0000
  C   C825      1.0  0.03827  0.57440  0.67928  1.0000
  C   C826      1.0  0.18871  0.53288  0.97646  1.0000
  S   S130      1.0  0.12128  0.71394  0.96648  1.0000
  C   C827      1.0  0.35641  0.77608  0.96546  1.0000
  C   C828      1.0  0.48587  0.50674  0.83256  1.0000
  H   H651      1.0  0.24854  0.50844  0.90926  1.0000
  H   H652      1.0  0.43955  0.97080  0.84294  1.0000
  H   H653      1.0  0.13864  0.92681  0.64879  1.0000
  C   C829      1.0  0.03074  0.91901  0.68824  1.0000
  C   C830      1.0  0.17410  0.79980  0.68000  1.0000
  C   C831      1.0  0.01839  0.59977  0.86089  1.0000
  C   C832      1.0  0.49183  0.90125  0.80608  1.0000
  Fe  Fe62      1.0  0.00925  0.77566  0.72660  1.0000
  C   C833      1.0  0.01845  0.87955  0.84996  1.0000
  C   C834      1.0  0.47026  0.93620  0.81168  1.0000
  C   C835      1.0  0.02339  0.86360  0.82314  1.0000
  H   H654      1.0  0.35811  0.74706  0.97525  1.0000
  C   C836      1.0  0.46569  0.91786  0.86058  1.0000
  H   H655      1.0  0.45525  0.92400  0.88157  1.0000
  H   H656      1.0  0.46371  0.95733  0.79523  1.0000
  H   H657      1.0  0.03156  0.83286  0.82026  1.0000
  Fe  Fe63      1.0  0.00703  0.71250  0.77221  1.0000
  H   H658      1.0  0.02435  0.87513  0.77890  1.0000
  H   H659      1.0  0.23514  0.69094  0.97823  1.0000
  C   C837      1.0  0.48795  0.88353  0.85527  1.0000
  C   C838      1.0  0.08743  0.50870  0.86379  1.0000
  H   H660      1.0  0.47997  0.60394  0.85257  1.0000
  C   C839      1.0  0.49555  0.54720  0.83463  1.0000
  H   H661      1.0  0.10136  0.52553  0.84718  1.0000
  C   C840      1.0  0.01571  0.50875  0.97437  1.0000
  Fe  Fe64      1.0  0.27707  0.51008  0.83995  1.0000
  S   S131      1.0  0.00651  0.77964  0.77317  1.0000
  H   H662      1.0  0.49503  0.86326  0.87220  1.0000
  H   H663      1.0  0.18641  0.56709  0.64715  1.0000
  C   C841      1.0  0.00684  0.94465  0.82896  1.0000
  H   H664      1.0  0.00772  0.93379  0.87316  1.0000
  C   C842      1.0  0.02912  0.57943  0.97533  1.0000
  C   C843      1.0  0.48121  0.96413  0.97775  1.0000
  C   C844      1.0  0.49910  0.79823  0.97860  1.0000
  C   C845      1.0  0.01014  0.71325  0.64763  1.0000
  H   H665      1.0  0.03824  0.51130  0.67286  1.0000
  H   H666      1.0  0.48574  0.50079  0.67922  1.0000
  H   H667      1.0  0.11434  0.50952  0.76215  1.0000
  C   C846      1.0  0.04275  0.54017  0.97624  1.0000
  H   H668      1.0  0.05003  0.60377  0.97738  1.0000
  H   H669      1.0  0.07427  0.53417  0.97903  1.0000
  C   C847      1.0  0.32029  0.54794  0.64599  1.0000
  H   H670      1.0  0.38299  0.53580  0.64577  1.0000
  C   C848      1.0  0.50607  0.42023  0.11680  1.0000
  S   S132      1.0  0.96339  0.28368  0.03602  1.0000
  C   C849      1.0  0.87381  0.04152  0.26570  1.0000
  C   C850      1.0  0.88719  0.03954  0.04102  1.0000
  Fe  Fe65      1.0  0.95399  0.21742  0.03949  1.0000
  S   S133      1.0  0.93839  0.18420  0.08012  1.0000
  C   C851      1.0  0.59772  0.17905  0.29252  1.0000
  H   H671      1.0  0.50753  0.04332  0.30016  1.0000
  Fe  Fe66      1.0  0.95671  0.28522  0.23351  1.0000
  S   S134      1.0  0.92921  0.29441  0.27595  1.0000
  S   S135      1.0  0.93733  0.31174  0.19118  1.0000
  H   H672      1.0  0.60065  0.43888  0.18483  1.0000
  C   C852      1.0  0.71392  0.48856  0.18037  1.0000
  Fe  Fe67      1.0  0.94553  0.23009  0.28492  1.0000
  H   H673      1.0  0.78341  0.11271  0.27818  1.0000
  S   S136      1.0  0.96958  0.21992  0.24120  1.0000
  C   C853      1.0  0.87766  0.03255  0.01287  1.0000
  Fe  Fe68      1.0  0.77042  0.45273  0.10461  1.0000
  S   S137      1.0  0.77667  0.43799  0.05875  1.0000
  S   S138      1.0  0.79545  0.42266  0.14441  1.0000
  C   C854      1.0  0.92909  0.49106  0.02750  1.0000
  Fe  Fe69      1.0  0.70976  0.44651  0.05578  1.0000
  S   S139      1.0  0.66484  0.40090  0.03844  1.0000
  Fe  Fe70      1.0  0.79126  0.49408  0.31100  1.0000
  S   S140      1.0  0.70333  0.45785  0.10225  1.0000
  C   C855      1.0  0.79858  0.17404  0.28527  1.0000
  C   C856      1.0  0.90621  0.07509  0.04838  1.0000
  C   C857      1.0  0.93775  0.02985  0.13624  1.0000
  S   S141      1.0  0.65800  0.42200  0.28160  1.0000
  Fe  Fe71      1.0  0.76504  0.06245  0.16960  1.0000
  S   S142      1.0  0.78288  0.06125  0.21501  1.0000
  S   S143      1.0  0.78359  0.10180  0.13255  1.0000
  H   H674      1.0  0.93017  0.13060  0.03355  1.0000
  Fe  Fe72      1.0  0.71717  0.05838  0.22518  1.0000
  S   S144      1.0  0.69520  0.08920  0.26524  1.0000
  C   C858      1.0  0.61585  0.35127  0.00801  1.0000
  S   S145      1.0  0.69937  0.06451  0.18012  1.0000
  S   S146      1.0  0.66497  0.06045  0.00192  1.0000
  Fe  Fe73      1.0  0.56310  0.30008  0.14702  1.0000
  S   S147      1.0  0.55311  0.30614  0.10058  1.0000
  S   S148      1.0  0.61187  0.34042  0.16513  1.0000
  Fe  Fe74      1.0  0.55585  0.23924  0.09819  1.0000
  S   S149      1.0  0.59409  0.21714  0.06115  1.0000
  S   S150      1.0  0.56937  0.23334  0.14428  1.0000
  C   C859      1.0  0.64623  0.10468  0.01811  1.0000
  C   C860      1.0  0.65631  0.14290  0.00897  1.0000
  C   C861      1.0  0.63987  0.17677  0.02226  1.0000
  C   C862      1.0  0.61361  0.17312  0.04513  1.0000
  C   C863      1.0  0.60345  0.13490  0.05418  1.0000
  C   C864      1.0  0.61946  0.10106  0.04070  1.0000
  P   P29       1.0  0.51675  0.45013  0.03400  1.0000
  H   H675      1.0  0.64792  0.20612  0.01493  1.0000
  H   H676      1.0  0.58337  0.13141  0.07162  1.0000
  H   H677      1.0  0.61140  0.07185  0.04815  1.0000
  C   C865      1.0  0.65721  0.12398  0.27480  1.0000
  C   C866      1.0  0.63218  0.14227  0.25521  1.0000
  S   S151      1.0  0.55972  0.21346  0.30241  1.0000
  C   C867      1.0  0.56690  0.48099  0.16038  1.0000
  H   H678      1.0  0.90696  0.40375  0.99526  1.0000
  H   H679      1.0  0.63574  0.13564  0.23324  1.0000
  C   C868      1.0  0.51808  0.41041  0.29286  1.0000
  H   H680      1.0  0.67661  0.14643  0.99159  1.0000
  C   C869      1.0  0.64747  0.39720  0.24949  1.0000
  C   C870      1.0  0.67337  0.39784  0.22658  1.0000
  C   C871      1.0  0.66227  0.37958  0.20118  1.0000
  C   C872      1.0  0.62537  0.36014  0.19835  1.0000
  C   C873      1.0  0.59976  0.35893  0.22139  1.0000
  C   C874      1.0  0.61072  0.37752  0.24667  1.0000
  H   H681      1.0  0.70174  0.41279  0.22828  1.0000
  H   H682      1.0  0.68239  0.38069  0.18351  1.0000
  H   H683      1.0  0.57129  0.34425  0.21960  1.0000
  H   H684      1.0  0.59058  0.37665  0.26422  1.0000
  C   C875      1.0  0.64238  0.38362  0.00680  1.0000
  H   H685      1.0  0.58816  0.48127  0.14329  1.0000
  H   H686      1.0  0.95899  0.37889  0.24201  1.0000
  C   C876      1.0  0.90177  0.44332  0.06030  1.0000
  H   H687      1.0  0.61023  0.33696  0.02790  1.0000
  C   C877      1.0  0.89781  0.34319  0.17887  1.0000
  C   C878      1.0  0.86785  0.35790  0.19644  1.0000
  C   C879      1.0  0.83677  0.38177  0.18543  1.0000
  C   C880      1.0  0.83511  0.39150  0.15677  1.0000
  C   C881      1.0  0.86516  0.37693  0.13924  1.0000
  C   C882      1.0  0.89622  0.35305  0.15024  1.0000
  H   H688      1.0  0.86839  0.35067  0.21846  1.0000
  H   H689      1.0  0.81384  0.39291  0.19928  1.0000
  H   H690      1.0  0.86430  0.38375  0.11717  1.0000
  H   H691      1.0  0.91893  0.34164  0.13632  1.0000
  C   C883      1.0  0.89482  0.16114  0.09379  1.0000
  C   C884      1.0  0.89659  0.14444  0.12072  1.0000
  C   C885      1.0  0.86288  0.12680  0.13313  1.0000
  C   C886      1.0  0.82697  0.12478  0.11844  1.0000
  C   C887      1.0  0.82515  0.14151  0.09145  1.0000
  C   C888      1.0  0.85883  0.15950  0.07913  1.0000
  H   H692      1.0  0.92419  0.14565  0.13216  1.0000
  H   H693      1.0  0.86458  0.11516  0.15414  1.0000
  H   H694      1.0  0.79744  0.14051  0.07995  1.0000
  H   H695      1.0  0.85684  0.17227  0.05841  1.0000
  C   C889      1.0  0.54673  0.45679  0.20586  1.0000
  C   C890      1.0  0.59629  0.06220  0.15029  1.0000
  C   C891      1.0  0.54433  0.40670  0.12324  1.0000
  H   H696      1.0  0.90154  0.19020  0.18205  1.0000
  H   H697      1.0  0.86182  0.17283  0.22390  1.0000
  H   H698      1.0  0.88415  0.11963  0.25556  1.0000
  C   C892      1.0  0.57890  0.47150  0.99754  1.0000
  H   H699      1.0  0.62160  0.04702  0.14102  1.0000
  H   H700      1.0  0.91328  0.43789  0.18786  1.0000
  H   H701      1.0  0.89189  0.43581  0.08121  1.0000
  C   C893      1.0  0.58072  0.09643  0.13776  1.0000
  Fe  Fe75      1.0  0.50239  0.23280  0.14991  1.0000
  H   H702      1.0  0.58449  0.18454  0.24859  1.0000
  C   C894      1.0  0.55789  0.48043  0.02212  1.0000
  H   H703      1.0  0.50543  0.26876  0.23869  1.0000
  H   H704      1.0  0.59429  0.10826  0.11899  1.0000
  H   H705      1.0  0.98316  0.39471  0.19456  1.0000
  H   H706      1.0  0.82533  0.02150  0.11869  1.0000
  C   C895      1.0  0.64959  0.40127  0.98078  1.0000
  Fe  Fe76      1.0  0.94398  0.27777  0.99075  1.0000
  H   H707      1.0  0.67033  0.42569  0.97934  1.0000
  H   H708      1.0  0.51889  0.35479  0.27062  1.0000
  C   C896      1.0  0.91585  0.10301  0.02778  1.0000
  C   C897      1.0  0.53036  0.10022  0.17387  1.0000
  H   H709      1.0  0.60415  0.39806  0.10829  1.0000
  C   C898      1.0  0.88542  0.01850  0.10208  1.0000
  H   H710      1.0  0.89328  0.46618  0.14222  1.0000
  C   C899      1.0  0.99676  0.05389  0.99009  1.0000
  C   C900      1.0  0.88333  0.48015  0.16137  1.0000
  Fe  Fe77      1.0  0.99446  0.20309  0.98266  1.0000
  C   C901      1.0  0.92595  0.46314  0.00585  1.0000
  H   H711      1.0  0.55258  0.43850  0.22411  1.0000
  C   C902      1.0  0.50231  0.33295  0.01294  1.0000
  H   H712      1.0  0.91792  0.04397  0.17790  1.0000
  Fe  Fe78      1.0  0.71191  0.44977  0.30406  1.0000
  C   C903      1.0  0.84281  0.03105  0.28377  1.0000
  H   H713      1.0  0.73859  0.06616  0.06262  1.0000
  C   C904      1.0  0.54763  0.11533  0.14950  1.0000
  C   C905      1.0  0.57810  0.05094  0.26371  1.0000
  C   C906      1.0  0.56339  0.02818  0.24143  1.0000
  C   C907      1.0  0.97255  0.40753  0.23787  1.0000
  C   C908      1.0  0.60941  0.03672  0.28017  1.0000
  C   C909      1.0  0.57401  0.45717  0.18381  1.0000
  C   C910      1.0  0.60291  0.16986  0.26404  1.0000
  Fe  Fe79      1.0  0.99211  0.30819  0.28978  1.0000
  C   C911      1.0  0.88707  0.06071  0.99238  1.0000
  S   S152      1.0  0.90549  0.17899  0.30033  1.0000
  C   C912      1.0  0.97596  0.43551  0.25924  1.0000
  H   H714      1.0  0.88817  0.46793  0.23186  1.0000
  H   H715      1.0  0.98094  0.14075  0.27152  1.0000
  C   C913      1.0  0.90613  0.09596  0.99985  1.0000
  C   C914      1.0  0.99334  0.47248  0.25387  1.0000
  C   C915      1.0  0.57456  0.40900  0.10331  1.0000
  C   C916      1.0  0.96755  0.02297  0.22975  1.0000
  H   H716      1.0  0.56628  0.08009  0.26822  1.0000
  H   H717      1.0  0.98681  0.10011  0.20278  1.0000
  C   C917      1.0  0.84192  0.25826  0.17376  1.0000
  C   C918      1.0  0.86532  0.25290  0.14995  1.0000
  C   C919      1.0  0.84774  0.24069  0.12505  1.0000
  C   C920      1.0  0.80685  0.23314  0.12396  1.0000
  C   C921      1.0  0.78294  0.23830  0.14779  1.0000
  C   C922      1.0  0.80086  0.25167  0.17262  1.0000
  P   P30       1.0  0.72925  0.23343  0.14570  1.0000
  C   C923      1.0  0.70994  0.27846  0.13022  1.0000
  C   C924      1.0  0.71517  0.19182  0.12392  1.0000
  C   C925      1.0  0.72045  0.19401  0.09481  1.0000
  C   C926      1.0  0.70911  0.16244  0.07770  1.0000
  C   C927      1.0  0.69179  0.12870  0.08942  1.0000
  C   C928      1.0  0.68534  0.12663  0.11815  1.0000
  C   C929      1.0  0.69679  0.15806  0.13538  1.0000
  C   C930      1.0  0.67678  0.27733  0.11229  1.0000
  C   C931      1.0  0.66344  0.31200  0.09915  1.0000
  C   C932      1.0  0.68199  0.34817  0.10465  1.0000
  C   C933      1.0  0.71407  0.34976  0.12315  1.0000
  C   C934      1.0  0.72818  0.31505  0.13583  1.0000
  C   C935      1.0  0.71037  0.22754  0.18085  1.0000
  C   C936      1.0  0.72596  0.19751  0.19821  1.0000
  C   C937      1.0  0.71336  0.19424  0.22597  1.0000
  C   C938      1.0  0.68549  0.22115  0.23667  1.0000
  C   C939      1.0  0.66970  0.25097  0.21952  1.0000
  C   C940      1.0  0.68199  0.25414  0.19168  1.0000
  H   H718      1.0  0.85554  0.26861  0.19291  1.0000
  H   H719      1.0  0.89702  0.25883  0.15063  1.0000
  H   H720      1.0  0.86589  0.23739  0.10646  1.0000
  H   H721      1.0  0.79426  0.22384  0.10436  1.0000
  H   H722      1.0  0.78322  0.25794  0.19101  1.0000
  H   H723      1.0  0.73258  0.22045  0.08516  1.0000
  H   H724      1.0  0.71347  0.16427  0.05532  1.0000
  H   H725      1.0  0.68317  0.10416  0.07625  1.0000
  H   H726      1.0  0.67219  0.10028  0.12710  1.0000
  H   H727      1.0  0.69133  0.15551  0.15752  1.0000
  H   H728      1.0  0.66131  0.24979  0.10812  1.0000
  H   H729      1.0  0.63875  0.31086  0.08462  1.0000
  H   H730      1.0  0.67146  0.37497  0.09457  1.0000
  H   H731      1.0  0.72819  0.37787  0.12755  1.0000
  H   H732      1.0  0.75335  0.31699  0.14989  1.0000
  H   H733      1.0  0.74798  0.17677  0.19021  1.0000
  H   H734      1.0  0.72507  0.17076  0.23924  1.0000
  H   H735      1.0  0.67591  0.21861  0.25819  1.0000
  H   H736      1.0  0.64803  0.27184  0.22778  1.0000
  H   H737      1.0  0.66959  0.27766  0.17885  1.0000
  H   H738      1.0  0.56239  0.11836  0.00031  1.0000
  C   C941      1.0  0.89462  0.46417  0.18714  1.0000
  H   H739      1.0  0.94825  0.01573  0.09302  1.0000
  C   C942      1.0  0.51045  0.36757  0.02789  1.0000
  H   H740      1.0  0.99458  0.10932  0.12132  1.0000
  S   S153      1.0  0.77561  0.42869  0.30826  1.0000
  P   P31       1.0  0.95208  0.06288  0.25271  1.0000
  C   C943      1.0  0.89843  0.41550  0.03882  1.0000
  H   H741      1.0  0.77745  0.48578  0.18018  1.0000
  H   H742      1.0  0.59987  0.47715  0.29973  1.0000
  H   H743      1.0  0.53536  0.14184  0.13983  1.0000
  H   H744      1.0  0.54809  0.40639  0.30074  1.0000
  C   C944      1.0  0.56628  0.42390  0.07666  1.0000
  P   P32       1.0  0.52443  0.04773  0.21904  1.0000
  C   C945      1.0  0.93607  0.10386  0.23075  1.0000
  C   C946      1.0  0.90130  0.12558  0.23688  1.0000
  C   C947      1.0  0.88866  0.15622  0.21913  1.0000
  C   C948      1.0  0.91114  0.16619  0.19561  1.0000
  C   C949      1.0  0.94664  0.14597  0.19004  1.0000
  C   C950      1.0  0.95904  0.11492  0.20744  1.0000
  H   H745      1.0  0.59231  0.02091  0.18402  1.0000
  C   C951      1.0  0.91042  0.42538  0.01173  1.0000
  H   H746      1.0  0.91261  0.08204  0.06996  1.0000
  C   C952      1.0  0.57943  0.04740  0.17490  1.0000
  C   C953      1.0  0.86870  0.03256  0.15045  1.0000
  C   C954      1.0  0.79579  0.03788  0.06617  1.0000
  C   C955      1.0  0.91255  0.04718  0.27600  1.0000
  H   H747      1.0  0.99548  0.49386  0.27070  1.0000
  H   H748      1.0  0.62076  0.05450  0.29723  1.0000
  S   S154      1.0  0.93032  0.21217  0.99555  1.0000
  C   C956      1.0  0.85683  0.02381  0.12315  1.0000
  C   C957      1.0  0.54655  0.06662  0.18716  1.0000
  H   H749      1.0  0.96901  0.03190  0.14149  1.0000
  H   H750      1.0  0.53368  0.11127  0.30800  1.0000
  H   H751      1.0  0.60295  0.00631  0.02956  1.0000
  C   C958      1.0  0.65184  0.13317  0.30329  1.0000
  H   H752      1.0  0.88610  0.38633  0.04300  1.0000
  H   H753      1.0  0.81298  0.02688  0.27562  1.0000
  C   C959      1.0  0.98641  0.41650  0.21108  1.0000
  H   H754      1.0  0.96534  0.42834  0.28005  1.0000
  C   C960      1.0  0.99476  0.07781  0.27301  1.0000
  H   H755      1.0  0.96477  0.15484  0.17238  1.0000
  C   C961      1.0  0.91726  0.48101  0.05465  1.0000
  H   H756      1.0  0.86734  0.04539  0.24369  1.0000
  C   C962      1.0  0.75506  0.03872  0.06033  1.0000
  C   C963      1.0  0.50184  0.40654  0.98567  1.0000
  C   C964      1.0  0.92597  0.02092  0.10893  1.0000
  H   H757      1.0  0.81026  0.06487  0.07292  1.0000
  C   C965      1.0  0.88013  0.48082  0.21184  1.0000
  C   C966      1.0  0.59667  0.33695  0.98374  1.0000
  H   H758      1.0  0.54165  0.13218  0.22849  1.0000
  C   C967      1.0  0.52762  0.43666  0.06975  1.0000
  C   C968      1.0  0.51065  0.40471  0.01433  1.0000
  H   H759      1.0  0.58974  0.42401  0.06112  1.0000
  H   H760      1.0  0.55061  0.39416  0.14365  1.0000
  H   H761      1.0  0.81811  0.17596  0.26734  1.0000
  H   H762      1.0  0.71084  0.45655  0.17878  1.0000
  H   H763      1.0  0.51475  0.15572  0.06709  1.0000
  C   C969      1.0  0.90905  0.03613  0.15691  1.0000
  H   H764      1.0  0.50450  0.11496  0.18239  1.0000
  H   H765      1.0  0.50726  0.18431  0.25548  1.0000
  H   H766      1.0  0.51608  0.36486  0.05007  1.0000
  H   H767      1.0  0.52936  0.19330  0.02379  1.0000
  H   H768      1.0  0.91305  0.11801  0.98402  1.0000
  H   H769      1.0  0.84643  0.03765  0.16643  1.0000
  H   H770      1.0  0.50253  0.30448  0.02361  1.0000
  C   C970      1.0  0.61074  0.49538  0.98903  1.0000
  C   C971      1.0  0.51401  0.12513  0.23904  1.0000
  C   C972      1.0  0.51232  0.48033  0.20454  1.0000
  H   H771      1.0  0.99356  0.41403  0.99089  1.0000
  H   H772      1.0  0.57177  0.44558  0.98526  1.0000
  H   H773      1.0  0.57699  0.31170  0.98516  1.0000
  C   C973      1.0  0.91972  0.04178  0.30470  1.0000
  H   H774      1.0  0.86202  0.00570  0.00689  1.0000
  C   C974      1.0  0.73594  0.00451  0.05093  1.0000
  H   H775      1.0  0.80864  0.23433  0.29727  1.0000
  H   H776      1.0  0.62761  0.33419  0.30176  1.0000
  H   H777      1.0  0.63367  0.26162  0.29367  1.0000
  H   H778      1.0  0.85323  0.47236  0.98322  1.0000
  P   P33       1.0  0.87118  0.00430  0.06717  1.0000
  H   H779      1.0  0.85221  0.34939  0.30901  1.0000
  C   C975      1.0  0.77942  0.13838  0.29153  1.0000
  C   C976      1.0  0.65639  0.27704  0.30545  1.0000
  C   C977      1.0  0.79332  0.20711  0.30252  1.0000
  C   C978      1.0  0.62762  0.00057  0.27385  1.0000
  C   C979      1.0  0.50188  0.38138  0.27539  1.0000
  C   C980      1.0  0.65278  0.31785  0.31012  1.0000
  H   H780      1.0  0.78853  0.31346  0.31095  1.0000
  C   C981      1.0  0.81784  0.00275  0.06277  1.0000
  H   H781      1.0  0.70447  0.00551  0.04591  1.0000
  H   H782      1.0  0.65086  0.49980  0.18052  1.0000
  C   C982      1.0  0.85025  0.02552  0.31218  1.0000
  C   C983      1.0  0.62242  0.16047  0.31211  1.0000
  C   C984      1.0  0.54934  0.11982  0.97969  1.0000
  S   S155      1.0  0.94580  0.32574  0.44252  1.0000
  H   H783      1.0  0.72254  0.05634  0.59073  1.0000
  H   H784      1.0  0.86294  0.19130  0.60785  1.0000
  H   H785      1.0  0.55486  0.09456  0.54868  1.0000
  Fe  Fe80      1.0  0.76758  0.43320  0.35487  1.0000
  S   S156      1.0  0.78213  0.38222  0.38522  1.0000
  S   S157      1.0  0.70281  0.45063  0.35084  1.0000
  Fe  Fe81      1.0  0.78508  0.06660  0.43069  1.0000
  S   S158      1.0  0.78823  0.05501  0.47732  1.0000
  S   S159      1.0  0.83077  0.11288  0.41514  1.0000
  H   H786      1.0  0.89557  0.28170  0.37887  1.0000
  Fe  Fe82      1.0  0.72115  0.05457  0.47731  1.0000
  C   C985      1.0  0.60412  0.05398  0.61468  1.0000
  S   S160      1.0  0.71746  0.07057  0.43141  1.0000
  Fe  Fe83      1.0  0.55966  0.29245  0.39724  1.0000
  S   S161      1.0  0.54980  0.30672  0.35163  1.0000
  S   S162      1.0  0.61318  0.31665  0.42199  1.0000
  Fe  Fe84      1.0  0.54232  0.24093  0.34465  1.0000
  C   C986      1.0  0.76876  0.20477  0.32625  1.0000
  S   S163      1.0  0.55686  0.22599  0.38945  1.0000
  H   H787      1.0  0.94893  0.04655  0.31351  1.0000
  C   C987      1.0  0.88667  0.07654  0.49968  1.0000
  C   C988      1.0  0.60585  0.41399  0.47371  1.0000
  C   C989      1.0  0.59631  0.38495  0.45352  1.0000
  C   C990      1.0  0.62362  0.35480  0.44698  1.0000
  H   H788      1.0  0.58450  0.43701  0.47848  1.0000
  H   H789      1.0  0.56805  0.38616  0.44282  1.0000
  C   C991      1.0  0.85121  0.13078  0.38294  1.0000
  C   C992      1.0  0.87622  0.16438  0.38329  1.0000
  C   C993      1.0  0.89271  0.17998  0.35836  1.0000
  H   H790      1.0  0.67023  0.11870  0.31880  1.0000
  C   C994      1.0  0.71831  0.27588  0.33182  1.0000
  C   C995      1.0  0.84339  0.11270  0.35726  1.0000
  H   H791      1.0  0.88260  0.17871  0.40299  1.0000
  H   H792      1.0  0.91164  0.20588  0.35909  1.0000
  H   H793      1.0  0.79282  0.05975  0.57423  1.0000
  H   H794      1.0  0.82411  0.08708  0.35648  1.0000
  C   C996      1.0  0.89954  0.34091  0.42733  1.0000
  C   C997      1.0  0.86290  0.32458  0.43516  1.0000
  C   C998      1.0  0.82733  0.33754  0.42209  1.0000
  C   C999      1.0  0.82783  0.36706  0.40115  1.0000
  C   C1000     1.0  0.86443  0.38339  0.39343  1.0000
  C   C1001     1.0  0.89998  0.37038  0.40640  1.0000
  H   H795      1.0  0.86188  0.30181  0.45112  1.0000
  H   H796      1.0  0.79922  0.32445  0.42816  1.0000
  H   H797      1.0  0.86529  0.40539  0.37699  1.0000
  H   H798      1.0  0.92812  0.38287  0.39990  1.0000
  Fe  Fe85      1.0  0.96527  0.28036  0.47585  1.0000
  S   S164      1.0  0.95753  0.29006  0.52185  1.0000
  C   C1002     1.0  0.84768  0.32667  0.32474  1.0000
  C   C1003     1.0  0.53499  0.06131  0.60026  1.0000
  Fe  Fe86      1.0  0.95689  0.22317  0.52655  1.0000
  S   S165      1.0  0.91145  0.20264  0.55936  1.0000
  H   H799      1.0  0.89407  0.02760  0.34475  1.0000
  S   S166      1.0  0.96007  0.21352  0.47965  1.0000
  Fe  Fe87      1.0  0.77959  0.45607  0.58003  1.0000
  S   S167      1.0  0.77381  0.45996  0.53272  1.0000
  S   S168      1.0  0.82814  0.41303  0.59699  1.0000
  C   C1004     1.0  0.93152  0.46100  0.36897  1.0000
  Fe  Fe88      1.0  0.70762  0.46765  0.53963  1.0000
  S   S169      1.0  0.65223  0.45051  0.51373  1.0000
  C   C1005     1.0  0.73164  0.14647  0.58432  1.0000
  S   S170      1.0  0.71263  0.45986  0.58670  1.0000
  C   C1006     1.0  0.00111  0.45340  0.60437  1.0000
  S   S171      1.0  0.68526  0.07130  0.51664  1.0000
  S   S172      1.0  0.54044  0.29801  0.61066  1.0000
  Fe  Fe89      1.0  0.54943  0.23266  0.60199  1.0000
  S   S173      1.0  0.57702  0.21623  0.55965  1.0000
  C   C1007     1.0  0.65580  0.11236  0.52808  1.0000
  C   C1008     1.0  0.64023  0.11175  0.55541  1.0000
  C   C1009     1.0  0.61621  0.14317  0.56553  1.0000
  C   C1010     1.0  0.60726  0.17565  0.54830  1.0000
  C   C1011     1.0  0.62272  0.17618  0.52092  1.0000
  C   C1012     1.0  0.64699  0.14489  0.51090  1.0000
  H   H800      1.0  0.64718  0.08691  0.56891  1.0000
  H   H801      1.0  0.60476  0.14229  0.58666  1.0000
  H   H802      1.0  0.61616  0.20116  0.50738  1.0000
  H   H803      1.0  0.65869  0.14590  0.48985  1.0000
  C   C1013     1.0  0.64281  0.41362  0.48767  1.0000
  C   C1014     1.0  0.66101  0.35511  0.46038  1.0000
  C   C1015     1.0  0.67056  0.38420  0.48058  1.0000
  H   H804      1.0  0.68282  0.33255  0.45524  1.0000
  H   H805      1.0  0.69929  0.38353  0.49081  1.0000
  H   H806      1.0  0.88885  0.02481  0.41202  1.0000
  H   H807      1.0  0.90741  0.39327  0.54361  1.0000
  C   C1016     1.0  0.89654  0.15851  0.57712  1.0000
  C   C1017     1.0  0.90784  0.12044  0.56832  1.0000
  C   C1018     1.0  0.89365  0.08650  0.58261  1.0000
  C   C1019     1.0  0.86851  0.09016  0.60607  1.0000
  C   C1020     1.0  0.85841  0.12821  0.61536  1.0000
  C   C1021     1.0  0.87180  0.16207  0.60075  1.0000
  H   H808      1.0  0.92694  0.11715  0.55027  1.0000
  H   H809      1.0  0.90205  0.05724  0.57533  1.0000
  H   H810      1.0  0.63015  0.49386  0.38666  1.0000
  S   S174      1.0  0.85106  0.04642  0.62315  1.0000
  C   C1022     1.0  0.77335  0.32142  0.61685  1.0000
  C   C1023     1.0  0.87816  0.31747  0.34355  1.0000
  C   C1024     1.0  0.51024  0.47299  0.46559  1.0000
  H   H811      1.0  0.61886  0.16705  0.33408  1.0000
  C   C1025     1.0  0.51377  0.49436  0.57027  1.0000
  C   C1026     1.0  0.53045  0.44632  0.53452  1.0000
  H   H812      1.0  0.54614  0.29345  0.46171  1.0000
  C   C1027     1.0  0.59786  0.08103  0.63633  1.0000
  H   H813      1.0  0.73203  0.12818  0.56566  1.0000
  C   C1028     1.0  0.91693  0.02549  0.47104  1.0000
  C   C1029     1.0  0.90719  0.00095  0.40368  1.0000
  H   H814      1.0  0.94107  0.06363  0.37286  1.0000
  C   C1030     1.0  0.86048  0.12788  0.33245  1.0000
  H   H815      1.0  0.57855  0.02352  0.57981  1.0000
  C   C1031     1.0  0.68897  0.25603  0.31630  1.0000
  H   H816      1.0  0.94922  0.11779  0.45219  1.0000
  P   P34       1.0  0.75949  0.24866  0.34702  1.0000
  C   C1032     1.0  0.74680  0.23564  0.38266  1.0000
  C   C1033     1.0  0.51322  0.34394  0.47742  1.0000
  C   C1034     1.0  0.83576  0.26852  0.36566  1.0000
  C   C1035     1.0  0.81135  0.30654  0.32616  1.0000
  H   H817      1.0  0.57348  0.47372  0.56160  1.0000
  C   C1036     1.0  0.70537  0.33746  0.62939  1.0000
  C   C1037     1.0  0.84519  0.38996  0.62879  1.0000
  C   C1038     1.0  0.71771  0.25737  0.39736  1.0000
  C   C1039     1.0  0.70735  0.24664  0.42465  1.0000
  C   C1040     1.0  0.72621  0.21450  0.43766  1.0000
  C   C1041     1.0  0.75544  0.19301  0.42335  1.0000
  C   C1042     1.0  0.76568  0.20347  0.39598  1.0000
  C   C1043     1.0  0.74923  0.16890  0.33222  1.0000
  C   C1044     1.0  0.99989  0.41189  0.60511  1.0000
  H   H818      1.0  0.95702  0.11953  0.34165  1.0000
  C   C1045     1.0  0.57263  0.41159  0.37868  1.0000
  C   C1046     1.0  0.77570  0.03284  0.57153  1.0000
  H   H819      1.0  0.52171  0.48522  0.48478  1.0000
  H   H820      1.0  0.82845  0.48536  0.62936  1.0000
  C   C1047     1.0  0.87971  0.36592  0.62808  1.0000
  C   C1048     1.0  0.96609  0.26148  0.60294  1.0000
  H   H821      1.0  0.98239  0.29397  0.39351  1.0000
  H   H822      1.0  0.72919  0.16655  0.34986  1.0000
  H   H823      1.0  0.83202  0.24608  0.38161  1.0000
  C   C1049     1.0  0.98813  0.47552  0.62741  1.0000
  H   H824      1.0  0.90938  0.25326  0.62305  1.0000
  S   S175      1.0  0.78653  0.00143  0.41978  1.0000
  C   C1050     1.0  0.84886  0.49341  0.44204  1.0000
  H   H825      1.0  0.70273  0.28261  0.38800  1.0000
  H   H826      1.0  0.68458  0.26336  0.43565  1.0000
  H   H827      1.0  0.71822  0.20629  0.45884  1.0000
  H   H828      1.0  0.77022  0.16819  0.43349  1.0000
  H   H829      1.0  0.78833  0.18639  0.38523  1.0000
  C   C1051     1.0  0.87217  0.28844  0.36400  1.0000
  C   C1052     1.0  0.77081  0.28597  0.63196  1.0000
  C   C1053     1.0  0.51874  0.09545  0.32473  1.0000
  H   H830      1.0  0.73563  0.33249  0.34937  1.0000
  C   C1054     1.0  0.95636  0.12220  0.63845  1.0000
  H   H831      1.0  0.57668  0.09808  0.49970  1.0000
  C   C1055     1.0  0.78912  0.45365  0.43617  1.0000
  C   C1056     1.0  0.50140  0.36537  0.50118  1.0000
  Fe  Fe90      1.0  0.71933  0.00409  0.42370  1.0000
  H   H832      1.0  0.56471  0.26861  0.50860  1.0000
  C   C1057     1.0  0.82996  0.45625  0.44130  1.0000
  H   H833      1.0  0.89541  0.36214  0.60851  1.0000
  H   H834      1.0  0.73559  0.48565  0.42586  1.0000
  C   C1058     1.0  0.90813  0.46426  0.47923  1.0000
  C   C1059     1.0  0.75518  0.13570  0.31516  1.0000
  C   C1060     1.0  0.89225  0.45151  0.52805  1.0000
  C   C1061     1.0  0.90823  0.41326  0.52580  1.0000
  C   C1062     1.0  0.92378  0.40030  0.50029  1.0000
  C   C1063     1.0  0.92351  0.42553  0.47704  1.0000
  H   H835      1.0  0.98381  0.36030  0.62920  1.0000
  C   C1064     1.0  0.70623  0.17932  0.58584  1.0000
  C   C1065     1.0  0.71409  0.31680  0.33673  1.0000
  C   C1066     1.0  0.97180  0.45099  0.37152  1.0000
  C   C1067     1.0  0.53526  0.05380  0.48543  1.0000
  H   H836      1.0  0.77474  0.42485  0.43589  1.0000
  H   H837      1.0  0.84672  0.42908  0.44475  1.0000
  H   H838      1.0  0.99018  0.14142  0.60279  1.0000
  H   H839      1.0  0.68513  0.22793  0.61067  1.0000
  H   H840      1.0  0.50943  0.49449  0.39618  1.0000
  C   C1068     1.0  0.90996  0.47374  0.39235  1.0000
  H   H841      1.0  0.93377  0.41396  0.45722  1.0000
  H   H842      1.0  0.63899  0.49361  0.45512  1.0000
  C   C1069     1.0  0.80497  0.27740  0.34677  1.0000
  C   C1070     1.0  0.99940  0.14551  0.36986  1.0000
  C   C1071     1.0  0.92860  0.47636  0.41854  1.0000
  C   C1072     1.0  0.50349  0.47861  0.41541  1.0000
  C   C1073     1.0  0.52889  0.08841  0.62217  1.0000
  C   C1074     1.0  0.55323  0.07764  0.50563  1.0000
  H   H843      1.0  0.82392  0.00135  0.55179  1.0000
  C   C1075     1.0  0.94147  0.25150  0.62538  1.0000
  C   C1076     1.0  0.58040  0.48906  0.35840  1.0000
  H   H844      1.0  0.67971  0.35703  0.62806  1.0000
  C   C1077     1.0  0.73626  0.03090  0.58077  1.0000
  C   C1078     1.0  0.51809  0.49315  0.44065  1.0000
  H   H845      1.0  0.85447  0.11337  0.31280  1.0000
  H   H846      1.0  0.63321  0.04038  0.61201  1.0000
  H   H847      1.0  0.55296  0.42891  0.52378  1.0000
  H   H848      1.0  0.90373  0.13666  0.49025  1.0000
  C   C1079     1.0  0.93368  0.09462  0.46338  1.0000
  C   C1080     1.0  0.70250  0.30161  0.64408  1.0000
  C   C1081     1.0  0.97203  0.11669  0.36162  1.0000
  H   H849      1.0  0.95291  0.27114  0.58341  1.0000
  P   P35       1.0  0.97178  0.03952  0.42826  1.0000
  C   C1082     1.0  0.60298  0.43598  0.38876  1.0000
  C   C1083     1.0  0.74085  0.34741  0.61583  1.0000
  H   H850      1.0  0.86628  0.08520  0.51619  1.0000
  H   H851      1.0  0.74310  0.37490  0.60410  1.0000
  C   C1084     1.0  0.00125  0.07959  0.61240  1.0000
  H   H852      1.0  0.62396  0.42455  0.40406  1.0000
  C   C1085     1.0  0.54642  0.29512  0.50653  1.0000
  H   H853      1.0  0.50636  0.35444  0.45670  1.0000
  C   C1086     1.0  0.51093  0.04869  0.54155  1.0000
  C   C1087     1.0  0.70536  0.20277  0.60988  1.0000
  C   C1088     1.0  0.57300  0.04444  0.59652  1.0000
  H   H854      1.0  0.77658  0.11215  0.60563  1.0000
  C   C1089     1.0  0.88867  0.03088  0.32262  1.0000
  H   H855      1.0  0.67842  0.36918  0.32975  1.0000
  H   H856      1.0  0.79611  0.26587  0.63215  1.0000
  H   H857      1.0  0.93480  0.37014  0.49818  1.0000
  C   C1090     1.0  0.99081  0.45450  0.39739  1.0000
  H   H858      1.0  0.54489  0.05572  0.46384  1.0000
  C   C1091     1.0  0.53578  0.30910  0.48013  1.0000
  C   C1092     1.0  0.51115  0.35029  0.52776  1.0000
  C   C1093     1.0  0.90784  0.10556  0.48503  1.0000
  C   C1094     1.0  0.54104  0.07524  0.53351  1.0000
  H   H859      1.0  0.82607  0.01768  0.32612  1.0000
  H   H860      1.0  0.56998  0.38148  0.38657  1.0000
  H   H861      1.0  0.68733  0.18682  0.56826  1.0000
  H   H862      1.0  0.54232  0.30438  0.55069  1.0000
  C   C1095     1.0  0.54629  0.42574  0.35823  1.0000
  H   H863      1.0  0.92611  0.00392  0.61395  1.0000
  C   C1096     1.0  0.96314  0.08487  0.37940  1.0000
  H   H864      1.0  0.74054  0.10789  0.31996  1.0000
  C   C1097     1.0  0.88485  0.16184  0.33267  1.0000
  C   C1098     1.0  0.96939  0.46755  0.42074  1.0000
  H   H865      1.0  0.80043  0.32857  0.60562  1.0000
  P   P36       1.0  0.51813  0.48330  0.32043  1.0000
  C   C1099     1.0  0.75671  0.13749  0.60676  1.0000
  C   C1100     1.0  0.55078  0.46432  0.34737  1.0000
  C   C1101     1.0  0.93857  0.05439  0.45625  1.0000
  C   C1102     1.0  0.75685  0.16162  0.63052  1.0000
  H   H866      1.0  0.90627  0.33317  0.34252  1.0000
  C   C1103     1.0  0.68152  0.33764  0.32585  1.0000
  C   C1104     1.0  0.51380  0.11393  0.35060  1.0000
  C   C1105     1.0  0.54222  0.47177  0.55600  1.0000
  H   H867      1.0  0.91677  0.45843  0.34889  1.0000
  C   C1106     1.0  0.60654  0.47491  0.37888  1.0000
  H   H868      1.0  0.52513  0.14374  0.35382  1.0000
  H   H869      1.0  0.52275  0.40644  0.35092  1.0000
  H   H870      1.0  0.87873  0.48115  0.38987  1.0000
  C   C1107     1.0  0.73102  0.19440  0.63234  1.0000
  C   C1108     1.0  0.89119  0.03651  0.49266  1.0000
  C   C1109     1.0  0.53384  0.31550  0.53031  1.0000
  H   H871      1.0  0.50198  0.36567  0.54657  1.0000
  C   C1110     1.0  0.98365  0.11684  0.61674  1.0000
  H   H872      1.0  0.59671  0.00194  0.51633  1.0000
  H   H873      1.0  0.84036  0.13152  0.63387  1.0000
  H   H874      1.0  0.98453  0.47072  0.44055  1.0000
  H   H875      1.0  0.87883  0.46098  0.54757  1.0000
  C   C1111     1.0  0.99151  0.04731  0.62980  1.0000
  C   C1112     1.0  0.98216  0.08123  0.40543  1.0000
  C   C1113     1.0  0.50405  0.05704  0.32045  1.0000
  C   C1114     1.0  0.89194  0.47684  0.50482  1.0000
  P   P37       1.0  0.90182  0.49498  0.44854  1.0000
  H   H876      1.0  0.90080  0.47846  0.63311  1.0000
  H   H877      1.0  0.98812  0.44038  0.35343  1.0000
  H   H878      1.0  0.87421  0.01402  0.50368  1.0000
  C   C1115     1.0  0.76698  0.48793  0.43085  1.0000
  C   C1116     1.0  0.98563  0.39247  0.62888  1.0000
  S   S176      1.0  0.78691  0.49707  0.35762  1.0000
  C   C1117     1.0  0.50487  0.02768  0.49310  1.0000
  C   C1118     1.0  0.56033  0.09834  0.63999  1.0000
  H   H879      1.0  0.94193  0.15080  0.64126  1.0000
  H   H880      1.0  0.69079  0.22431  0.31283  1.0000
  H   H881      1.0  0.75570  0.15708  0.69274  1.0000
  C   C1119     1.0  0.61396  0.01963  0.90014  1.0000
  Fe  Fe91      1.0  0.93503  0.28621  0.73383  1.0000
  S   S177      1.0  0.92288  0.28658  0.78033  1.0000
  S   S178      1.0  0.89142  0.32742  0.70951  1.0000
  C   C1120     1.0  0.89406  0.34642  0.65234  1.0000
  C   C1121     1.0  0.55632  0.13236  0.92975  1.0000
  Fe  Fe92      1.0  0.93303  0.22015  0.78015  1.0000
  S   S179      1.0  0.89096  0.17039  0.79571  1.0000
  H   H882      1.0  0.87231  0.05533  0.78376  1.0000
  S   S180      1.0  0.94199  0.21919  0.73316  1.0000
  H   H883      1.0  0.92946  0.38041  0.75123  1.0000
  H   H884      1.0  0.95963  0.30350  0.86546  1.0000
  Fe  Fe93      1.0  0.79817  0.44579  0.84120  1.0000
  S   S181      1.0  0.79213  0.44483  0.79404  1.0000
  S   S182      1.0  0.84359  0.40023  0.85814  1.0000
  H   H885      1.0  0.91017  0.07647  0.74236  1.0000
  Fe  Fe94      1.0  0.72571  0.45120  0.80042  1.0000
  S   S183      1.0  0.67103  0.41701  0.78337  1.0000
  S   S184      1.0  0.73169  0.44843  0.84756  1.0000
  Fe  Fe95      1.0  0.71252  0.04222  0.96926  1.0000
  S   S185      1.0  0.81484  0.03786  0.70365  1.0000
  H   H886      1.0  0.95462  0.02814  0.66434  1.0000
  Fe  Fe96      1.0  0.74926  0.05363  0.70784  1.0000
  S   S186      1.0  0.72744  0.10683  0.73372  1.0000
  C   C1122     1.0  0.92285  0.05144  0.86888  1.0000
  S   S187      1.0  0.74044  0.05529  0.66109  1.0000
  Fe  Fe97      1.0  0.78226  0.05333  0.92756  1.0000
  H   H887      1.0  0.98006  0.06495  0.97230  1.0000
  S   S188      1.0  0.82695  0.10104  0.91280  1.0000
  C   C1123     1.0  0.96627  0.45733  0.71262  1.0000
  H   H888      1.0  0.67909  0.22858  0.95053  1.0000
  H   H889      1.0  0.77749  0.15469  0.64703  1.0000
  S   S189      1.0  0.71510  0.05473  0.92279  1.0000
  H   H890      1.0  0.95125  0.02761  0.71609  1.0000
  S   S190      1.0  0.60315  0.32600  0.67505  1.0000
  C   C1124     1.0  0.61116  0.05983  0.90707  1.0000
  Fe  Fe98      1.0  0.53410  0.29389  0.90913  1.0000
  S   S191      1.0  0.53305  0.29196  0.86196  1.0000
  S   S192      1.0  0.57764  0.34053  0.92661  1.0000
  Fe  Fe99      1.0  0.53562  0.22209  0.86322  1.0000
  S   S193      1.0  0.59196  0.15762  0.82116  1.0000
  S   S194      1.0  0.53661  0.22733  0.91223  1.0000
  C   C1125     1.0  0.68636  0.12016  0.75554  1.0000
  C   C1126     1.0  0.67984  0.16063  0.76158  1.0000
  C   C1127     1.0  0.65035  0.17271  0.78089  1.0000
  C   C1128     1.0  0.62731  0.14434  0.79485  1.0000
  C   C1129     1.0  0.63333  0.10387  0.78847  1.0000
  C   C1130     1.0  0.66242  0.09183  0.76881  1.0000
  H   H891      1.0  0.69840  0.18283  0.75169  1.0000
  H   H892      1.0  0.64637  0.20389  0.78560  1.0000
  H   H893      1.0  0.61571  0.08164  0.79910  1.0000
  H   H894      1.0  0.66709  0.06062  0.76454  1.0000
  C   C1131     1.0  0.65365  0.39073  0.75319  1.0000
  C   C1132     1.0  0.67451  0.39016  0.72785  1.0000
  C   C1133     1.0  0.65858  0.37026  0.70436  1.0000
  C   C1134     1.0  0.62175  0.35026  0.70574  1.0000
  C   C1135     1.0  0.60109  0.35050  0.73118  1.0000
  C   C1136     1.0  0.61690  0.37061  0.75462  1.0000
  H   H895      1.0  0.70284  0.40521  0.72627  1.0000
  H   H896      1.0  0.67505  0.37028  0.68494  1.0000
  H   H897      1.0  0.57285  0.33531  0.73276  1.0000
  H   H898      1.0  0.60048  0.37049  0.77405  1.0000
  C   C1137     1.0  0.63190  0.17878  0.69740  1.0000
  C   C1138     1.0  0.62969  0.38752  0.95663  1.0000
  C   C1139     1.0  0.60285  0.35543  0.95789  1.0000
  H   H899      1.0  0.96560  0.18970  0.90631  1.0000
  H   H900      1.0  0.63537  0.40174  0.93678  1.0000
  C   C1140     1.0  0.84540  0.11861  0.87992  1.0000
  C   C1141     1.0  0.87465  0.14860  0.87958  1.0000
  C   C1142     1.0  0.88897  0.16471  0.85418  1.0000
  C   C1143     1.0  0.87492  0.15047  0.82860  1.0000
  C   C1144     1.0  0.84697  0.11928  0.82896  1.0000
  C   C1145     1.0  0.83183  0.10391  0.85433  1.0000
  H   H901      1.0  0.88615  0.15972  0.89916  1.0000
  H   H902      1.0  0.91088  0.18810  0.85433  1.0000
  H   H903      1.0  0.83638  0.10722  0.80945  1.0000
  H   H904      1.0  0.80962  0.08076  0.85407  1.0000
  C   C1146     1.0  0.87429  0.35077  0.67792  1.0000
  C   C1147     1.0  0.83975  0.37475  0.67866  1.0000
  C   C1148     1.0  0.97290  0.41445  0.65203  1.0000
  Fe  Fe100     1.0  0.98946  0.29292  0.78548  1.0000
  Fe  Fe101     1.0  0.50239  0.20964  0.65461  1.0000
  H   H905      1.0  0.82394  0.37839  0.69819  1.0000
  C   C1149     1.0  0.84261  0.49015  0.64930  1.0000
  C   C1150     1.0  0.88386  0.48586  0.65164  1.0000
  C   C1151     1.0  0.88541  0.34665  0.94257  1.0000
  C   C1152     1.0  0.85952  0.37976  0.94212  1.0000
  C   C1153     1.0  0.84633  0.39661  0.91663  1.0000
  C   C1154     1.0  0.85887  0.38053  0.89115  1.0000
  C   C1155     1.0  0.88488  0.34758  0.89160  1.0000
  C   C1156     1.0  0.89804  0.33075  0.91709  1.0000
  H   H906      1.0  0.54535  0.38974  0.81224  1.0000
  H   H907      1.0  0.82631  0.42184  0.91672  1.0000
  H   H908      1.0  0.89450  0.33468  0.87206  1.0000
  H   H909      1.0  0.91767  0.30529  0.91715  1.0000
  H   H910      1.0  0.83197  0.20294  0.91388  1.0000
  C   C1157     1.0  0.91241  0.44202  0.81020  1.0000
  H   H911      1.0  0.93342  0.44115  0.91328  1.0000
  H   H912      1.0  0.80037  0.20480  0.86748  1.0000
  H   H913      1.0  0.73876  0.27822  0.77876  1.0000
  H   H914      1.0  0.76727  0.32756  0.88136  1.0000
  C   C1158     1.0  0.58269  0.03311  0.85565  1.0000
  C   C1159     1.0  0.96374  0.05293  0.65140  1.0000
  C   C1160     1.0  0.68620  0.22102  0.68182  1.0000
  H   H915      1.0  0.61325  0.20240  0.93747  1.0000
  C   C1161     1.0  0.59406  0.08720  0.88833  1.0000
  C   C1162     1.0  0.75733  0.02246  0.78618  1.0000
  C   C1163     1.0  0.98036  0.21513  0.89701  1.0000
  C   C1164     1.0  0.81797  0.26379  0.92358  1.0000
  C   C1165     1.0  0.51584  0.12316  0.92635  1.0000
  P   P38       1.0  0.73143  0.22764  0.66199  1.0000
  C   C1166     1.0  0.67702  0.20424  0.93579  1.0000
  C   C1167     1.0  0.94450  0.42625  0.82519  1.0000
  C   C1168     1.0  0.70893  0.15654  0.90528  1.0000
  C   C1169     1.0  0.67162  0.14133  0.89792  1.0000
  C   C1170     1.0  0.56914  0.17202  0.87249  1.0000
  C   C1171     1.0  0.53165  0.16261  0.85609  1.0000
  C   C1172     1.0  0.97432  0.45621  0.65161  1.0000
  C   C1173     1.0  0.54649  0.22141  0.82138  1.0000
  C   C1174     1.0  0.58357  0.23135  0.83787  1.0000
  C   C1175     1.0  0.59446  0.20732  0.86345  1.0000
  H   H916      1.0  0.67484  0.16145  0.66659  1.0000
  C   C1176     1.0  0.91818  0.03120  0.89416  1.0000
  C   C1177     1.0  0.96199  0.43310  0.95367  1.0000
  C   C1178     1.0  0.94913  0.40431  0.74496  1.0000
  P   P39       1.0  0.58832  0.13831  0.89949  1.0000
  H   H917      1.0  0.74394  0.03168  0.76662  1.0000
  C   C1179     1.0  0.50922  0.11072  0.97600  1.0000
  H   H918      1.0  0.73588  0.14383  0.89639  1.0000
  H   H919      1.0  0.67008  0.11724  0.88301  1.0000
  C   C1180     1.0  0.52096  0.18671  0.83023  1.0000
  H   H920      1.0  0.62220  0.06951  0.92721  1.0000
  H   H921      1.0  0.79912  0.32464  0.92772  1.0000
  H   H922      1.0  0.52156  0.42619  0.86543  1.0000
  H   H923      1.0  0.53943  0.23774  0.80252  1.0000
  H   H924      1.0  0.60313  0.25479  0.83073  1.0000
  H   H925      1.0  0.62199  0.21420  0.87391  1.0000
  H   H926      1.0  0.94480  0.39495  0.83069  1.0000
  C   C1181     1.0  0.98791  0.40839  0.96896  1.0000
  C   C1182     1.0  0.97691  0.27931  0.87430  1.0000
  H   H927      1.0  0.62717  0.48798  0.97025  1.0000
  H   H928      1.0  0.56549  0.09288  0.84787  1.0000
  C   C1183     1.0  0.89055  0.03371  0.77288  1.0000
  S   S195      1.0  0.77928  0.04385  0.97461  1.0000
  C   C1184     1.0  0.73538  0.02501  0.81092  1.0000
  C   C1185     1.0  0.59616  0.47933  0.83485  1.0000
  C   C1186     1.0  0.97334  0.39172  0.91273  1.0000
  H   H929      1.0  0.60449  0.13400  0.96014  1.0000
  C   C1187     1.0  0.97632  0.45066  0.83277  1.0000
  H   H930      1.0  0.61592  0.15092  0.69638  1.0000
  C   C1188     1.0  0.90805  0.03520  0.84412  1.0000
  H   H931      1.0  0.65499  0.48598  0.85207  1.0000
  H   H932      1.0  0.99699  0.47857  0.88787  1.0000
  H   H933      1.0  0.73560  0.01525  0.85539  1.0000
  C   C1189     1.0  0.82331  0.49815  0.94820  1.0000
  C   C1190     1.0  0.99969  0.23760  0.65364  1.0000
  C   C1191     1.0  0.81813  0.23014  0.90653  1.0000
  C   C1192     1.0  0.55840  0.46241  0.83838  1.0000
  C   C1193     1.0  0.81950  0.49861  0.67280  1.0000
  C   C1194     1.0  0.64073  0.24372  0.71801  1.0000
  C   C1195     1.0  0.61943  0.20826  0.71599  1.0000
  H   H934      1.0  0.96679  0.38459  0.89114  1.0000
  H   H935      1.0  0.83241  0.26302  0.94386  1.0000
  C   C1196     1.0  0.85719  0.48587  0.96288  1.0000
  C   C1197     1.0  0.67430  0.24991  0.70126  1.0000
  Fe  Fe102     1.0  0.80408  0.03439  0.65717  1.0000
  C   C1198     1.0  0.95826  0.23988  0.65082  1.0000
  C   C1199     1.0  0.82314  0.24295  0.71758  1.0000
  C   C1200     1.0  0.82755  0.20506  0.72911  1.0000
  C   C1201     1.0  0.80367  0.17404  0.71969  1.0000
  C   C1202     1.0  0.77520  0.18099  0.69894  1.0000
  H   H936      1.0  0.63129  0.26643  0.73259  1.0000
  H   H937      1.0  0.59367  0.20329  0.72918  1.0000
  H   H938      1.0  0.91096  0.05233  0.82515  1.0000
  H   H939      1.0  0.69080  0.27733  0.70341  1.0000
  H   H940      1.0  0.84105  0.26708  0.72544  1.0000
  H   H941      1.0  0.84902  0.19988  0.74564  1.0000
  H   H942      1.0  0.80644  0.14475  0.72898  1.0000
  C   C1203     1.0  0.66522  0.18501  0.68041  1.0000
  H   H943      1.0  0.74059  0.19923  0.93022  1.0000
  C   C1204     1.0  0.63971  0.18915  0.92843  1.0000
  C   C1205     1.0  0.61841  0.44891  0.87806  1.0000
  C   C1206     1.0  0.77117  0.21866  0.68670  1.0000
  C   C1207     1.0  0.94072  0.42652  0.72101  1.0000
  H   H944      1.0  0.96128  0.39859  0.66992  1.0000
  H   H945      1.0  0.84915  0.39221  0.96164  1.0000
  S   S196      1.0  0.99858  0.22659  0.78959  1.0000
  H   H946      1.0  0.92054  0.32812  0.65126  1.0000
  C   C1208     1.0  0.79654  0.00816  0.78663  1.0000
  C   C1209     1.0  0.91187  0.04578  0.74926  1.0000
  C   C1210     1.0  0.71163  0.18781  0.92432  1.0000
  H   H947      1.0  0.67419  0.29355  0.65315  1.0000
  H   H948      1.0  0.51391  0.13695  0.86114  1.0000
  H   H949      1.0  0.92390  0.09406  0.67181  1.0000
  C   C1211     1.0  0.57949  0.07331  0.86265  1.0000
  P   P40       1.0  0.95581  0.48479  0.68096  1.0000
  H   H950      1.0  0.92555  0.24461  0.88568  1.0000
  H   H951      1.0  0.70495  0.03590  0.81054  1.0000
  C   C1212     1.0  0.77373  0.16288  0.79786  1.0000
  C   C1213     1.0  0.74466  0.13789  0.80890  1.0000
  C   C1214     1.0  0.71701  0.15261  0.82809  1.0000
  C   C1215     1.0  0.71845  0.19244  0.83632  1.0000
  C   C1216     1.0  0.74814  0.21758  0.82569  1.0000
  C   C1217     1.0  0.77626  0.20220  0.80678  1.0000
  P   P41       1.0  0.75356  0.26765  0.83852  1.0000
  C   C1218     1.0  0.77875  0.29626  0.81188  1.0000
  C   C1219     1.0  0.70566  0.28979  0.84655  1.0000
  C   C1220     1.0  0.68622  0.27927  0.87150  1.0000
  C   C1221     1.0  0.65098  0.29840  0.87942  1.0000
  C   C1222     1.0  0.63481  0.32827  0.86255  1.0000
  C   C1223     1.0  0.65365  0.33877  0.83764  1.0000
  C   C1224     1.0  0.68901  0.31981  0.82965  1.0000
  C   C1225     1.0  0.81311  0.31804  0.81817  1.0000
  C   C1226     1.0  0.83293  0.33909  0.79717  1.0000
  C   C1227     1.0  0.81873  0.33849  0.76974  1.0000
  C   C1228     1.0  0.78464  0.31671  0.76325  1.0000
  C   C1229     1.0  0.76487  0.29541  0.78417  1.0000
  C   C1230     1.0  0.78115  0.26640  0.87092  1.0000
  C   C1231     1.0  0.79994  0.23136  0.88022  1.0000
  C   C1232     1.0  0.79516  0.24988  0.69641  1.0000
  C   C1233     1.0  0.95444  0.42408  0.92548  1.0000
  C   C1234     1.0  0.62599  0.47257  0.85468  1.0000
  C   C1235     1.0  0.78132  0.30012  0.88815  1.0000
  H   H952      1.0  0.79477  0.15159  0.78264  1.0000
  H   H953      1.0  0.74298  0.10742  0.80191  1.0000
  H   H954      1.0  0.69363  0.13345  0.83583  1.0000
  H   H955      1.0  0.69642  0.20325  0.85090  1.0000
  H   H956      1.0  0.80051  0.22025  0.79898  1.0000
  H   H957      1.0  0.69886  0.25697  0.88526  1.0000
  H   H958      1.0  0.63658  0.29063  0.89895  1.0000
  H   H959      1.0  0.60796  0.34368  0.86901  1.0000
  H   H960      1.0  0.64136  0.36235  0.82478  1.0000
  H   H961      1.0  0.70346  0.32969  0.81071  1.0000
  H   H962      1.0  0.82489  0.31883  0.83920  1.0000
  H   H963      1.0  0.85940  0.35582  0.80229  1.0000
  H   H964      1.0  0.83427  0.35475  0.75351  1.0000
  H   H965      1.0  0.77370  0.31616  0.74197  1.0000
  H   H966      1.0  0.51419  0.32961  0.79291  1.0000
  H   H967      1.0  0.91451  0.41916  0.70889  1.0000
  C   C1236     1.0  0.63672  0.15703  0.90981  1.0000
  C   C1237     1.0  0.95781  0.24609  0.88552  1.0000
  H   H968      1.0  0.93660  0.08055  0.86861  1.0000
  H   H969      1.0  0.79828  0.41167  0.65537  1.0000
  H   H970      1.0  0.79184  0.27976  0.68831  1.0000
  H   H971      1.0  0.98938  0.39534  0.77916  1.0000
  C   C1238     1.0  0.55073  0.43908  0.86211  1.0000
  H   H972      1.0  0.57178  0.02275  0.83568  1.0000
  H   H973      1.0  0.58049  0.44474  0.77677  1.0000
  C   C1239     1.0  0.57660  0.48019  0.73964  1.0000
  H   H974      1.0  0.55545  0.11935  0.65681  1.0000
  Fe  Fe103     1.0  0.55544  0.28443  0.65583  1.0000
  C   C1240     1.0  0.79936  0.29863  0.91444  1.0000
  P   P42       1.0  0.51869  0.47307  0.81423  1.0000
  H   H975      1.0  0.88766  0.42318  0.80446  1.0000
  H   H976      1.0  0.64176  0.44356  0.89326  1.0000
  C   C1241     1.0  0.82516  0.39395  0.65434  1.0000
  H   H977      1.0  0.93911  0.23318  0.66844  1.0000
  H   H978      1.0  0.57467  0.41442  0.90014  1.0000
  C   C1242     1.0  0.94630  0.09023  0.65570  1.0000
  C   C1243     1.0  0.75273  0.01364  0.83620  1.0000
  C   C1244     1.0  0.51542  0.39167  0.80391  1.0000
  C   C1245     1.0  0.58071  0.43235  0.88184  1.0000
  C   C1246     1.0  0.57297  0.12981  0.95670  1.0000
  P   P43       1.0  0.93938  0.47594  0.97040  1.0000
  H   H979      1.0  0.59875  0.46256  0.72871  1.0000
  C   C1247     1.0  0.89531  0.49152  0.95147  1.0000
  C   C1248     1.0  0.93495  0.01831  0.73447  1.0000
  H   H980      1.0  0.67506  0.46851  0.69373  1.0000
  H   H981      1.0  0.79410  0.49397  0.95738  1.0000
  C   C1249     1.0  0.56609  0.47005  0.76695  1.0000
  S   S197      1.0  0.00103  0.29558  0.73949  1.0000
  H   H982      1.0  0.88763  0.49401  0.79057  1.0000
  C   C1250     1.0  0.53647  0.49157  0.78113  1.0000
  H   H983      1.0  0.92847  0.04458  0.91342  1.0000
  C   C1251     1.0  0.97541  0.49144  0.82635  1.0000
  H   H984      1.0  0.67619  0.48356  0.74443  1.0000
  S   S198      1.0  0.56815  0.21959  0.64621  1.0000
  C   C1252     1.0  0.87909  0.49904  0.70129  1.0000
  C   C1253     1.0  0.98303  0.41259  0.76068  1.0000
  S   S199      1.0  0.89979  0.32567  0.97542  1.0000
  H   H985      1.0  0.81251  0.00517  0.76708  1.0000
  C   C1254     1.0  0.99911  0.36747  0.92812  1.0000
  C   C1255     1.0  0.59983  0.00627  0.87440  1.0000
  H   H986      1.0  0.62211  0.08846  0.65031  1.0000
  H   H987      1.0  0.50229  0.12320  0.90596  1.0000
  C   C1256     1.0  0.90243  0.48997  0.67772  1.0000
  C   C1257     1.0  0.00016  0.46571  0.72880  1.0000
  C   C1258     1.0  0.66876  0.49842  0.70095  1.0000
  H   H988      1.0  0.60262  0.49803  0.81701  1.0000
  C   C1259     1.0  0.91230  0.48206  0.80251  1.0000
  H   H989      1.0  0.87870  0.05570  0.97079  1.0000
  C   C1260     1.0  0.73548  0.27601  0.64596  1.0000
  C   C1261     1.0  0.66547  0.63161  0.02600  1.0000
  S   S200      1.0  0.68345  0.57677  0.11323  1.0000
  S   S201      1.0  0.82016  0.53802  0.02116  1.0000
  H   H990      1.0  0.91496  0.64532  0.99922  1.0000
  H   H991      1.0  0.91864  0.60117  0.08327  1.0000
  H   H992      1.0  0.53424  0.58749  0.24837  1.0000
  H   H993      1.0  0.86279  0.55526  0.07303  1.0000
  S   S202      1.0  0.65819  0.96591  0.14945  1.0000
  S   S203      1.0  0.82507  0.95824  0.23717  1.0000
  C   C1262     1.0  0.87331  0.59816  0.00916  1.0000
  C   C1263     1.0  0.90396  0.62554  0.01526  1.0000
  H   H994      1.0  0.60045  0.73869  0.01049  1.0000
  H   H995      1.0  0.64781  0.54552  0.99902  1.0000
  C   C1264     1.0  0.66445  0.64102  0.99737  1.0000
  S   S204      1.0  0.95879  0.66085  0.05171  1.0000
  H   H996      1.0  0.96396  0.92648  0.26014  1.0000
  C   C1265     1.0  0.58121  0.99122  0.23569  1.0000
  C   C1266     1.0  0.67354  0.63175  0.27170  1.0000
  S   S205      1.0  0.99221  0.77255  0.04854  1.0000
  C   C1267     1.0  0.90535  0.63844  0.31156  1.0000
  C   C1268     1.0  0.57884  0.89879  0.00608  1.0000
  C   C1269     1.0  0.54637  0.90664  0.28519  1.0000
  S   S206      1.0  0.94763  0.81598  0.21491  1.0000
  S   S207      1.0  0.97132  0.78328  0.29371  1.0000
  C   C1270     1.0  0.86034  0.86809  0.99961  1.0000
  C   C1271     1.0  0.54849  0.56334  0.25953  1.0000
  H   H997      1.0  0.74324  0.94312  0.03924  1.0000
  C   C1272     1.0  0.58797  0.55304  0.25356  1.0000
  C   C1273     1.0  0.65217  0.81050  0.18815  1.0000
  C   C1274     1.0  0.85689  0.91701  0.23047  1.0000
  C   C1275     1.0  0.86143  0.90053  0.20384  1.0000
  C   C1276     1.0  0.88892  0.86923  0.19950  1.0000
  C   C1277     1.0  0.91169  0.85372  0.22173  1.0000
  C   C1278     1.0  0.90633  0.86955  0.24846  1.0000
  C   C1279     1.0  0.87938  0.90123  0.25271  1.0000
  H   H998      1.0  0.84438  0.91236  0.18652  1.0000
  H   H999      1.0  0.89277  0.85712  0.17875  1.0000
  H   H1000     1.0  0.92361  0.85795  0.26574  1.0000
  H   H1001     1.0  0.87612  0.91378  0.27337  1.0000
  C   C1280     1.0  0.62375  0.92843  0.15876  1.0000
  C   C1281     1.0  0.60038  0.91066  0.13787  1.0000
  C   C1282     1.0  0.57190  0.88152  0.14470  1.0000
  C   C1283     1.0  0.56593  0.87070  0.17260  1.0000
  C   C1284     1.0  0.58953  0.88828  0.19343  1.0000
  C   C1285     1.0  0.61877  0.91649  0.18646  1.0000
  H   H1002     1.0  0.60430  0.91958  0.11631  1.0000
  H   H1003     1.0  0.55415  0.86792  0.12851  1.0000
  H   H1004     1.0  0.58540  0.87969  0.21502  1.0000
  H   H1005     1.0  0.63743  0.92927  0.20237  1.0000
  C   C1286     1.0  0.92758  0.59195  0.21178  1.0000
  C   C1287     1.0  0.86840  0.56503  0.29898  1.0000
  C   C1288     1.0  0.55527  0.72430  0.04019  1.0000
  C   C1289     1.0  0.95232  0.96454  0.20202  1.0000
  H   H1006     1.0  0.81497  0.94144  0.04906  1.0000
  C   C1290     1.0  0.91857  0.61575  0.28893  1.0000
  C   C1291     1.0  0.90039  0.57908  0.28296  1.0000
  H   H1007     1.0  0.67298  0.83455  0.18457  1.0000
  C   C1292     1.0  0.99536  0.56682  0.21183  1.0000
  H   H1008     1.0  0.94301  0.62623  0.27617  1.0000
  H   H1009     1.0  0.91106  0.56129  0.26586  1.0000
  C   C1293     1.0  0.63433  0.59618  0.11382  1.0000
  C   C1294     1.0  0.62802  0.63410  0.12536  1.0000
  C   C1295     1.0  0.58964  0.65113  0.12620  1.0000
  C   C1296     1.0  0.55714  0.63023  0.11561  1.0000
  C   C1297     1.0  0.56330  0.59200  0.10447  1.0000
  C   C1298     1.0  0.60173  0.57499  0.10359  1.0000
  H   H1010     1.0  0.65308  0.65061  0.13344  1.0000
  H   H1011     1.0  0.58523  0.68046  0.13487  1.0000
  H   H1012     1.0  0.53817  0.57552  0.09648  1.0000
  H   H1013     1.0  0.60617  0.54547  0.09522  1.0000
  C   C1299     1.0  0.85800  0.57275  0.02995  1.0000
  C   C1300     1.0  0.87405  0.57467  0.05684  1.0000
  C   C1301     1.0  0.90555  0.60099  0.06266  1.0000
  C   C1302     1.0  0.92034  0.62707  0.04213  1.0000
  H   H1014     1.0  0.68956  0.60427  0.27576  1.0000
  H   H1015     1.0  0.93182  0.94128  0.19616  1.0000
  H   H1016     1.0  0.84729  0.52318  0.14004  1.0000
  C   C1303     1.0  0.70020  0.61616  0.03798  1.0000
  C   C1304     1.0  0.94113  0.99261  0.22210  1.0000
  S   S208      1.0  0.77802  0.51864  0.09782  1.0000
  C   C1305     1.0  0.59611  0.97623  0.02320  1.0000
  C   C1306     1.0  0.53770  0.71361  0.27685  1.0000
  C   C1307     1.0  0.89501  0.95685  0.06172  1.0000
  C   C1308     1.0  0.53223  0.50402  0.15876  1.0000
  H   H1017     1.0  0.51491  0.63301  0.05053  1.0000
  C   C1309     1.0  0.60632  0.52194  0.26814  1.0000
  C   C1310     1.0  0.75768  0.96938  0.04738  1.0000
  C   C1311     1.0  0.73401  0.60972  0.02159  1.0000
  H   H1018     1.0  0.57083  0.97323  0.21843  1.0000
  C   C1312     1.0  0.68019  0.51291  0.18145  1.0000
  C   C1313     1.0  0.88326  0.92394  0.07778  1.0000
  H   H1019     1.0  0.58664  0.75250  0.15286  1.0000
  H   H1020     1.0  0.84263  0.52503  0.23015  1.0000
  C   C1314     1.0  0.52026  0.59836  0.18682  1.0000
  C   C1315     1.0  0.92938  0.86864  0.98456  1.0000
  C   C1316     1.0  0.59623  0.75058  0.19735  1.0000
  C   C1317     1.0  0.75190  0.50537  0.18086  1.0000
  H   H1021     1.0  0.63622  0.80570  0.14473  1.0000
  C   C1318     1.0  0.55725  0.96178  0.02542  1.0000
  H   H1022     1.0  0.56407  0.64444  0.19141  1.0000
  H   H1023     1.0  0.50950  0.92935  0.12043  1.0000
  H   H1024     1.0  0.65825  0.57302  0.18309  1.0000
  C   C1319     1.0  0.72245  0.57103  0.18375  1.0000
  H   H1025     1.0  0.91946  0.50276  0.07120  1.0000
  P   P44       1.0  0.80555  0.56881  0.18319  1.0000
  C   C1320     1.0  0.81618  0.59852  0.15251  1.0000
  C   C1321     1.0  0.80762  0.59865  0.21450  1.0000
  C   C1322     1.0  0.82732  0.63544  0.21476  1.0000
  C   C1323     1.0  0.83105  0.65674  0.23966  1.0000
  C   C1324     1.0  0.81437  0.64195  0.26428  1.0000
  C   C1325     1.0  0.79335  0.60623  0.26399  1.0000
  C   C1326     1.0  0.79004  0.58458  0.23924  1.0000
  C   C1327     1.0  0.85536  0.61108  0.14728  1.0000
  C   C1328     1.0  0.86402  0.63426  0.12379  1.0000
  C   C1329     1.0  0.83393  0.64393  0.10478  1.0000
  C   C1330     1.0  0.79502  0.63095  0.10954  1.0000
  C   C1331     1.0  0.78613  0.60862  0.13340  1.0000
  S   S209      1.0  0.80555  0.92664  0.98912  1.0000
  S   S210      1.0  0.98050  0.71277  0.24646  1.0000
  H   H1026     1.0  0.61168  0.56113  0.04282  1.0000
  H   H1027     1.0  0.72535  0.60304  0.18465  1.0000
  H   H1028     1.0  0.84060  0.64751  0.19605  1.0000
  H   H1029     1.0  0.84764  0.68432  0.24002  1.0000
  C   C1332     1.0  0.61772  0.91340  0.00394  1.0000
  H   H1030     1.0  0.78135  0.59419  0.28324  1.0000
  H   H1031     1.0  0.77511  0.55607  0.23972  1.0000
  H   H1032     1.0  0.87926  0.60281  0.16130  1.0000
  H   H1033     1.0  0.89425  0.64418  0.11996  1.0000
  H   H1034     1.0  0.84101  0.66084  0.08612  1.0000
  H   H1035     1.0  0.77174  0.63769  0.09456  1.0000
  H   H1036     1.0  0.75601  0.59858  0.13640  1.0000
  H   H1037     1.0  0.56282  0.61601  0.01304  1.0000
  C   C1333     1.0  0.60360  0.76419  0.17022  1.0000
  Fe  Fe104     1.0  0.71143  0.52240  0.09214  1.0000
  H   H1038     1.0  0.60426  0.56897  0.23755  1.0000
  H   H1039     1.0  0.89649  0.58791  0.21689  1.0000
  C   C1334     1.0  0.52664  0.76920  0.24558  1.0000
  H   H1040     1.0  0.83648  0.85384  0.01100  1.0000
  C   C1335     1.0  0.63179  0.70291  0.26142  1.0000
  H   H1041     1.0  0.63744  0.68667  0.21773  1.0000
  H   H1042     1.0  0.55730  0.69361  0.28800  1.0000
  C   C1336     1.0  0.85412  0.51334  0.21079  1.0000
  C   C1337     1.0  0.64377  0.67848  0.23912  1.0000
  C   C1338     1.0  0.99300  0.92517  0.26990  1.0000
  C   C1339     1.0  0.90320  0.88758  0.07513  1.0000
  H   H1043     1.0  0.67958  0.72427  0.99562  1.0000
  C   C1340     1.0  0.53076  0.69479  0.05129  1.0000
  S   S211      1.0  0.72842  0.51494  0.30258  1.0000
  H   H1044     1.0  0.66060  0.81079  0.23239  1.0000
  H   H1045     1.0  0.67378  0.62435  0.22706  1.0000
  C   C1341     1.0  0.66449  0.64301  0.24430  1.0000
  H   H1046     1.0  0.64122  0.89484  0.99544  1.0000
  Fe  Fe105     1.0  0.98208  0.77998  0.24768  1.0000
  C   C1342     1.0  0.62291  0.78513  0.28089  1.0000
  H   H1047     1.0  0.56392  0.80815  0.29048  1.0000
  S   S212      1.0  0.84538  0.51982  0.28907  1.0000
  H   H1048     1.0  0.70096  0.60905  0.06005  1.0000
  S   S213      1.0  0.97819  0.84877  0.98441  1.0000
  C   C1343     1.0  0.62238  0.52781  0.00523  1.0000
  C   C1344     1.0  0.84238  0.52948  0.18498  1.0000
  C   C1345     1.0  0.51085  0.65727  0.21493  1.0000
  C   C1346     1.0  0.85328  0.90468  0.98624  1.0000
  C   C1347     1.0  0.61328  0.97763  0.25180  1.0000
  C   C1348     1.0  0.99632  0.92787  0.29888  1.0000
  H   H1049     1.0  0.59430  0.93876  0.30451  1.0000
  H   H1050     1.0  0.76080  0.59754  0.03098  1.0000
  C   C1349     1.0  0.79854  0.96847  0.05319  1.0000
  H   H1051     1.0  0.81871  0.65757  0.28372  1.0000
  H   H1052     1.0  0.86120  0.59680  0.98824  1.0000
  Fe  Fe106     1.0  0.99684  0.70998  0.03157  1.0000
  C   C1350     1.0  0.50479  0.50416  0.18094  1.0000
  H   H1053     1.0  0.97344  0.91420  0.02760  1.0000
  C   C1351     1.0  0.52730  0.54251  0.27998  1.0000
  C   C1352     1.0  0.62630  0.95213  0.01241  1.0000
  C   C1353     1.0  0.58527  0.67602  0.00879  1.0000
  C   C1354     1.0  0.58225  0.71511  0.01890  1.0000
  Fe  Fe107     1.0  0.78003  0.99429  0.21149  1.0000
  H   H1054     1.0  0.55479  0.51983  0.05776  1.0000
  H   H1055     1.0  0.51038  0.97620  0.98177  1.0000
  C   C1355     1.0  0.56081  0.64640  0.02032  1.0000
  C   C1356     1.0  0.60204  0.53656  0.02993  1.0000
  S   S214      1.0  0.76675  0.99572  0.16541  1.0000
  H   H1056     1.0  0.90332  0.82194  0.00918  1.0000
  H   H1057     1.0  0.57314  0.86871  0.99938  1.0000
  H   H1058     1.0  0.63991  0.63648  0.03934  1.0000
  C   C1357     1.0  0.56997  0.51298  0.03837  1.0000
  C   C1358     1.0  0.55305  0.74290  0.25896  1.0000
  H   H1059     1.0  0.53416  0.98102  0.03371  1.0000
  H   H1060     1.0  0.99800  0.94486  0.17366  1.0000
  H   H1061     1.0  0.62727  0.94939  0.24723  1.0000
  H   H1062     1.0  0.56581  0.88722  0.27333  1.0000
  H   H1063     1.0  0.63672  0.51324  0.26334  1.0000
  C   C1359     1.0  0.63150  0.79419  0.16563  1.0000
  H   H1064     1.0  0.52161  0.68533  0.22269  1.0000
  C   C1360     1.0  0.94069  0.62808  0.20068  1.0000
  H   H1065     1.0  0.99144  0.66141  0.18614  1.0000
  C   C1361     1.0  0.54587  0.51186  0.29516  1.0000
  H   H1066     1.0  0.93849  0.97844  0.03185  1.0000
  H   H1067     1.0  0.65629  0.96369  0.01054  1.0000
  C   C1362     1.0  0.66177  0.65590  0.29394  1.0000
  H   H1068     1.0  0.91174  0.99050  0.23123  1.0000
  C   C1363     1.0  0.93557  0.88415  0.05695  1.0000
  C   C1364     1.0  0.94831  0.91713  0.04167  1.0000
  C   C1365     1.0  0.92812  0.95337  0.04395  1.0000
  C   C1366     1.0  0.64483  0.79700  0.21534  1.0000
  C   C1367     1.0  0.59553  0.80966  0.29488  1.0000
  S   S215      1.0  0.52930  0.83589  0.18277  1.0000
  C   C1368     1.0  0.53474  0.63417  0.19740  1.0000
  Fe  Fe108     1.0  0.78010  0.50476  0.05210  1.0000
  C   C1369     1.0  0.68442  0.55413  0.18321  1.0000
  C   C1370     1.0  0.89814  0.84991  0.99859  1.0000
  H   H1069     1.0  0.65306  0.99059  0.28595  1.0000
  H   H1070     1.0  0.85857  0.92644  0.09228  1.0000
  H   H1071     1.0  0.52745  0.52254  0.14050  1.0000
  C   C1371     1.0  0.75651  0.54678  0.18218  1.0000
  Fe  Fe109     1.0  0.70212  0.99766  0.17810  1.0000
  H   H1072     1.0  0.57391  0.72793  0.20054  1.0000
  H   H1073     1.0  0.94417  0.53370  0.22607  1.0000
  H   H1074     1.0  0.50960  0.70206  0.06762  1.0000
  C   C1372     1.0  0.61674  0.76689  0.22017  1.0000
  H   H1075     1.0  0.53772  0.79306  0.23261  1.0000
  P   P45       1.0  0.62067  0.66319  0.98175  1.0000
  P   P46       1.0  0.60617  0.74957  0.25524  1.0000
  C   C1373     1.0  0.85714  0.51250  0.16025  1.0000
  H   H1076     1.0  0.95071  0.85586  0.05446  1.0000
  C   C1374     1.0  0.58535  0.50145  0.28886  1.0000
  C   C1375     1.0  0.73322  0.61875  0.99312  1.0000
  C   C1376     1.0  0.56234  0.93610  0.30234  1.0000
  H   H1077     1.0  0.89350  0.86199  0.08707  1.0000
  C   C1377     1.0  0.64057  0.69103  0.28890  1.0000
  C   C1378     1.0  0.95477  0.56127  0.21717  1.0000
  H   H1078     1.0  0.91982  0.65218  0.19706  1.0000
  C   C1379     1.0  0.54812  0.92308  0.01652  1.0000
  H   H1079     1.0  0.68523  0.76934  0.27685  1.0000
  Fe  Fe110     1.0  0.97395  0.71642  0.29313  1.0000
  H   H1080     1.0  0.53892  0.58155  0.17269  1.0000
  S   S216      1.0  0.71368  0.51194  0.04581  1.0000
  H   H1081     1.0  0.53588  0.91569  0.07338  1.0000
  H   H1082     1.0  0.55308  0.75444  0.04800  1.0000
  C   C1380     1.0  0.53363  0.65584  0.04147  1.0000
  H   H1083     1.0  0.63087  0.70880  0.30653  1.0000
  S   S217      1.0  0.71531  0.99128  0.22399  1.0000
  C   C1381     1.0  0.98100  0.63337  0.19458  1.0000
  C   C1382     1.0  0.66360  0.78795  0.28744  1.0000
  H   H1084     1.0  0.98493  0.91408  0.12007  1.0000
  H   H1085     1.0  0.93989  0.52080  0.02350  1.0000
  C   C1383     1.0  0.98965  0.96662  0.18927  1.0000
  C   C1384     1.0  0.50405  0.91933  0.07607  1.0000
  C   C1385     1.0  0.67663  0.81494  0.30766  1.0000
  H   H1086     1.0  0.83747  0.71729  0.30947  1.0000
  C   C1386     1.0  0.50522  0.90133  0.28405  1.0000
  S   S218      1.0  0.50831  0.65029  0.11582  1.0000
  H   H1087     1.0  0.50346  0.96958  0.24341  1.0000
  H   H1088     1.0  0.96981  0.93086  0.31162  1.0000
  C   C1387     1.0  0.69871  0.63469  0.98105  1.0000
  H   H1089     1.0  0.75953  0.61337  0.98049  1.0000
  C   C1388     1.0  0.50221  0.83880  0.98448  1.0000
  H   H1090     1.0  0.98928  0.99223  0.97940  1.0000
  S   S219      1.0  0.69662  0.56546  0.37442  1.0000
  H   H1091     1.0  0.87522  0.61488  0.48424  1.0000
  S   S220      1.0  0.67948  0.97174  0.39232  1.0000
  S   S221      1.0  0.81817  0.94310  0.49150  1.0000
  H   H1092     1.0  0.92101  0.66697  0.50244  1.0000
  S   S222      1.0  0.55814  0.83182  0.42230  1.0000
  S   S223      1.0  0.53914  0.66110  0.34141  1.0000
  H   H1093     1.0  0.88013  0.96240  0.58724  1.0000
  C   C1389     1.0  0.86112  0.91525  0.48307  1.0000
  C   C1390     1.0  0.88253  0.92164  0.45846  1.0000
  C   C1391     1.0  0.91667  0.89864  0.45271  1.0000
  H   H1094     1.0  0.87283  0.94437  0.44400  1.0000
  H   H1095     1.0  0.93345  0.90402  0.43383  1.0000
  C   C1392     1.0  0.64445  0.93418  0.40124  1.0000
  C   C1393     1.0  0.61998  0.91797  0.38029  1.0000
  C   C1394     1.0  0.59284  0.88721  0.38648  1.0000
  C   C1395     1.0  0.59033  0.87185  0.41359  1.0000
  C   C1396     1.0  0.61420  0.88858  0.43462  1.0000
  C   C1397     1.0  0.64087  0.91971  0.42854  1.0000
  H   H1096     1.0  0.62197  0.92938  0.35919  1.0000
  H   H1097     1.0  0.57361  0.87548  0.37046  1.0000
  H   H1098     1.0  0.61208  0.87736  0.45577  1.0000
  H   H1099     1.0  0.65877  0.93244  0.44495  1.0000
  C   C1398     1.0  0.65358  0.59256  0.36434  1.0000
  C   C1399     1.0  0.64136  0.62525  0.38050  1.0000
  C   C1400     1.0  0.60662  0.64687  0.37371  1.0000
  C   C1401     1.0  0.58390  0.63607  0.35048  1.0000
  H   H1100     1.0  0.50541  0.91463  0.62327  1.0000
  C   C1402     1.0  0.68856  0.52931  0.46813  1.0000
  H   H1101     1.0  0.65877  0.63375  0.39844  1.0000
  H   H1102     1.0  0.59724  0.67162  0.38653  1.0000
  Fe  Fe111     1.0  0.78590  0.99044  0.46605  1.0000
  H   H1103     1.0  0.87555  0.64703  0.58495  1.0000
  S   S224      1.0  0.69645  0.57300  0.61756  1.0000
  S   S225      1.0  0.81537  0.56659  0.51019  1.0000
  H   H1104     1.0  0.82931  0.59596  0.56667  1.0000
  C   C1403     1.0  0.87494  0.62230  0.50618  1.0000
  C   C1404     1.0  0.97064  0.75163  0.37723  1.0000
  H   H1105     1.0  0.51709  0.56780  0.33620  1.0000
  S   S226      1.0  0.93317  0.69745  0.55923  1.0000
  H   H1106     1.0  0.58716  0.85482  0.32595  1.0000
  S   S227      1.0  0.97177  0.83994  0.46303  1.0000
  H   H1107     1.0  0.78680  0.88501  0.34611  1.0000
  C   C1405     1.0  0.92934  0.86884  0.47133  1.0000
  C   C1406     1.0  0.90770  0.86234  0.49586  1.0000
  C   C1407     1.0  0.87389  0.88563  0.50175  1.0000
  H   H1108     1.0  0.91691  0.83933  0.51025  1.0000
  H   H1109     1.0  0.85751  0.88065  0.52089  1.0000
  H   H1110     1.0  0.68375  0.99526  0.58422  1.0000
  C   C1408     1.0  0.65019  0.59642  0.61050  1.0000
  C   C1409     1.0  0.62258  0.57957  0.59225  1.0000
  C   C1410     1.0  0.58567  0.59841  0.58762  1.0000
  C   C1411     1.0  0.57634  0.63470  0.60054  1.0000
  C   C1412     1.0  0.60374  0.65136  0.61909  1.0000
  C   C1413     1.0  0.64046  0.63219  0.62406  1.0000
  H   H1111     1.0  0.62949  0.55183  0.58187  1.0000
  H   H1112     1.0  0.56440  0.58495  0.57366  1.0000
  H   H1113     1.0  0.63740  0.57829  0.51969  1.0000
  C   C1414     1.0  0.84576  0.74449  0.34955  1.0000
  C   C1415     1.0  0.84876  0.60213  0.52414  1.0000
  C   C1416     1.0  0.84920  0.61122  0.55260  1.0000
  C   C1417     1.0  0.87539  0.64031  0.56291  1.0000
  C   C1418     1.0  0.90144  0.66067  0.54497  1.0000
  C   C1419     1.0  0.90108  0.65157  0.51647  1.0000
  C   C1420     1.0  0.60906  0.91617  0.63565  1.0000
  C   C1421     1.0  0.85306  0.67770  0.64195  1.0000
  C   C1422     1.0  0.58006  0.92129  0.55775  1.0000
  C   C1423     1.0  0.61957  0.91069  0.56345  1.0000
  C   C1424     1.0  0.65110  0.93290  0.55220  1.0000
  C   C1425     1.0  0.64238  0.96587  0.53515  1.0000
  P   P47       1.0  0.70250  0.91863  0.55801  1.0000
  C   C1426     1.0  0.73143  0.96317  0.56357  1.0000
  C   C1427     1.0  0.70752  0.88633  0.58806  1.0000
  C   C1428     1.0  0.63212  0.69453  0.45636  1.0000
  S   S228      1.0  0.78821  0.52217  0.58471  1.0000
  C   C1429     1.0  0.62810  0.55614  0.44821  1.0000
  H   H1114     1.0  0.75387  0.68363  0.37311  1.0000
  C   C1430     1.0  0.69323  0.84718  0.58697  1.0000
  C   C1431     1.0  0.87128  0.84006  0.63059  1.0000
  C   C1432     1.0  0.64911  0.83910  0.32159  1.0000
  H   H1115     1.0  0.68342  0.79281  0.60986  1.0000
  H   H1116     1.0  0.86833  0.87098  0.62450  1.0000
  H   H1117     1.0  0.97943  0.59918  0.49716  1.0000
  C   C1433     1.0  0.72140  0.89184  0.52808  1.0000
  C   C1434     1.0  0.70279  0.89491  0.50187  1.0000
  C   C1435     1.0  0.71906  0.87564  0.47863  1.0000
  C   C1436     1.0  0.75396  0.85331  0.48134  1.0000
  C   C1437     1.0  0.77228  0.84950  0.50740  1.0000
  C   C1438     1.0  0.75596  0.86845  0.53073  1.0000
  C   C1439     1.0  0.68112  0.60090  0.46249  1.0000
  H   H1118     1.0  0.91982  0.99437  0.46583  1.0000
  H   H1119     1.0  0.55589  0.90411  0.56661  1.0000
  H   H1120     1.0  0.62508  0.88554  0.57696  1.0000
  H   H1121     1.0  0.52909  0.98167  0.61192  1.0000
  C   C1440     1.0  0.57627  0.56079  0.51440  1.0000
  C   C1441     1.0  0.97831  0.96773  0.60519  1.0000
  H   H1122     1.0  0.67908  0.83623  0.56819  1.0000
  H   H1123     1.0  0.78578  0.93994  0.54541  1.0000
  Fe  Fe112     1.0  0.50460  0.71071  0.61621  1.0000
  H   H1124     1.0  0.66873  0.64722  0.31520  1.0000
  C   C1442     1.0  0.79827  0.87657  0.36646  1.0000
  H   H1125     1.0  0.82432  0.72453  0.61802  1.0000
  H   H1126     1.0  0.67631  0.91285  0.49903  1.0000
  H   H1127     1.0  0.70519  0.87894  0.45832  1.0000
  H   H1128     1.0  0.76725  0.83985  0.46310  1.0000
  H   H1129     1.0  0.80003  0.83325  0.50935  1.0000
  H   H1130     1.0  0.77118  0.86617  0.55062  1.0000
  H   H1131     1.0  0.86374  0.64110  0.34586  1.0000
  C   C1443     1.0  0.95854  0.61908  0.45696  1.0000
  H   H1132     1.0  0.66154  0.64533  0.63826  1.0000
  C   C1444     1.0  0.99161  0.78685  0.38148  1.0000
  H   H1133     1.0  0.69619  0.68458  0.58279  1.0000
  S   S229      1.0  0.66847  0.97101  0.64277  1.0000
  C   C1445     1.0  0.57174  0.95398  0.54069  1.0000
  C   C1446     1.0  0.95348  0.93974  0.38088  1.0000
  C   C1447     1.0  0.82417  0.61202  0.63601  1.0000
  H   H1134     1.0  0.98832  0.50765  0.62611  1.0000
  H   H1135     1.0  0.90881  0.82455  0.59565  1.0000
  H   H1136     1.0  0.73740  0.92965  0.61402  1.0000
  C   C1448     1.0  0.79120  0.90102  0.38947  1.0000
  H   H1137     1.0  0.84713  0.67556  0.46363  1.0000
  C   C1449     1.0  0.53650  0.57344  0.51398  1.0000
  C   C1450     1.0  0.59733  0.62832  0.52313  1.0000
  H   H1138     1.0  0.51320  0.55176  0.51072  1.0000
  C   C1451     1.0  0.92986  0.75006  0.38298  1.0000
  C   C1452     1.0  0.90940  0.78423  0.39205  1.0000
  C   C1453     1.0  0.93072  0.81945  0.39637  1.0000
  P   P48       1.0  0.85724  0.78147  0.40111  1.0000
  C   C1454     1.0  0.83389  0.82959  0.39616  1.0000
  C   C1455     1.0  0.83268  0.74737  0.37740  1.0000
  C   C1456     1.0  0.79934  0.72515  0.38577  1.0000
  C   C1457     1.0  0.82834  0.85539  0.41890  1.0000
  C   C1458     1.0  0.80663  0.89067  0.41561  1.0000
  H   H1139     1.0  0.73435  0.57099  0.47777  1.0000
  C   C1459     1.0  0.59665  0.60392  0.33395  1.0000
  H   H1140     1.0  0.64073  0.55754  0.32793  1.0000
  C   C1460     1.0  0.85243  0.76752  0.43760  1.0000
  C   C1461     1.0  0.88634  0.75897  0.45384  1.0000
  C   C1462     1.0  0.88252  0.75060  0.48237  1.0000
  C   C1463     1.0  0.84503  0.75058  0.49496  1.0000
  C   C1464     1.0  0.81122  0.75954  0.47912  1.0000
  C   C1465     1.0  0.81491  0.76837  0.45065  1.0000
  Fe  Fe113     1.0  0.99863  0.79759  0.49495  1.0000
  H   H1141     1.0  0.61963  0.67903  0.47416  1.0000
  C   C1466     1.0  0.67130  0.68652  0.44750  1.0000
  H   H1142     1.0  0.91445  0.72216  0.38008  1.0000
  H   H1143     1.0  0.91605  0.84565  0.40450  1.0000
  H   H1144     1.0  0.78861  0.72611  0.40696  1.0000
  H   H1145     1.0  0.84041  0.84827  0.43931  1.0000
  H   H1146     1.0  0.80156  0.90994  0.43342  1.0000
  H   H1147     1.0  0.54116  0.96183  0.53615  1.0000
  C   C1467     1.0  0.91227  0.94022  0.37671  1.0000
  H   H1148     1.0  0.62076  0.64924  0.52774  1.0000
  H   H1149     1.0  0.91597  0.75963  0.44487  1.0000
  H   H1150     1.0  0.90873  0.74455  0.49491  1.0000
  H   H1151     1.0  0.84245  0.74382  0.51707  1.0000
  H   H1152     1.0  0.78217  0.76000  0.48899  1.0000
  H   H1153     1.0  0.78858  0.77668  0.43895  1.0000
  C   C1468     1.0  0.82620  0.71981  0.33063  1.0000
  H   H1154     1.0  0.51693  0.97142  0.38218  1.0000
  H   H1155     1.0  0.98604  0.72552  0.36944  1.0000
  C   C1469     1.0  0.77140  0.96505  0.55510  1.0000
  C   C1470     1.0  0.78401  0.66438  0.46524  1.0000
  H   H1156     1.0  0.87788  0.50578  0.50656  1.0000
  H   H1157     1.0  0.56379  0.87163  0.62848  1.0000
  C   C1471     1.0  0.75104  0.64858  0.45119  1.0000
  H   H1158     1.0  0.72752  0.62225  0.56601  1.0000
  S   S230      1.0  0.92724  0.68481  0.31997  1.0000
  H   H1159     1.0  0.77806  0.67853  0.32453  1.0000
  H   H1160     1.0  0.58367  0.52961  0.51158  1.0000
  H   H1161     1.0  0.98838  0.84753  0.39520  1.0000
  C   C1472     1.0  0.55762  0.64114  0.52254  1.0000
  C   C1473     1.0  0.79438  0.62931  0.41276  1.0000
  C   C1474     1.0  0.68668  0.70753  0.42450  1.0000
  H   H1162     1.0  0.77374  0.60857  0.60843  1.0000
  H   H1163     1.0  0.97139  0.91592  0.37215  1.0000
  H   H1164     1.0  0.58351  0.51919  0.35093  1.0000
  Fe  Fe114     1.0  0.77895  0.52617  0.53860  1.0000
  C   C1475     1.0  0.75651  0.63113  0.42485  1.0000
  C   C1476     1.0  0.96549  0.90950  0.57657  1.0000
  C   C1477     1.0  0.63135  0.58229  0.34079  1.0000
  C   C1478     1.0  0.70412  0.56765  0.47028  1.0000
  H   H1165     1.0  0.94804  0.53343  0.49373  1.0000
  C   C1479     1.0  0.79606  0.66838  0.61137  1.0000
  H   H1166     1.0  0.52282  0.51381  0.58711  1.0000
  C   C1480     1.0  0.72628  0.89961  0.61249  1.0000
  H   H1167     1.0  0.66617  0.98348  0.52612  1.0000
  C   C1481     1.0  0.99192  0.93319  0.59169  1.0000
  P   P49       1.0  0.70168  0.65046  0.46614  1.0000
  C   C1482     1.0  0.89411  0.81399  0.61440  1.0000
  H   H1168     1.0  0.78086  0.67719  0.48583  1.0000
  H   H1169     1.0  0.59982  0.93478  0.61839  1.0000
  C   C1483     1.0  0.60876  0.72267  0.44230  1.0000
  C   C1484     1.0  0.82173  0.66329  0.45278  1.0000
  H   H1170     1.0  0.62479  0.61900  0.44388  1.0000
  C   C1485     1.0  0.98669  0.65483  0.62359  1.0000
  S   S231      1.0  0.71285  0.53436  0.54194  1.0000
  H   H1171     1.0  0.85628  0.64450  0.41719  1.0000
  H   H1172     1.0  0.73354  0.60930  0.51578  1.0000
  H   H1173     1.0  0.65903  0.85989  0.33740  1.0000
  C   C1486     1.0  0.89887  0.77437  0.62272  1.0000
  Fe  Fe115     1.0  0.72139  0.52638  0.58779  1.0000
  H   H1174     1.0  0.70605  0.50388  0.47494  1.0000
  C   C1487     1.0  0.69600  0.82238  0.61042  1.0000
  C   C1488     1.0  0.53715  0.96190  0.31698  1.0000
  S   S232      1.0  0.53062  0.65838  0.59232  1.0000
  H   H1175     1.0  0.59686  0.67919  0.62933  1.0000
  H   H1176     1.0  0.89820  0.91680  0.36478  1.0000
  H   H1177     1.0  0.55095  0.67216  0.52635  1.0000
  C   C1489     1.0  0.92143  0.54452  0.45312  1.0000
  C   C1490     1.0  0.91848  0.57208  0.43110  1.0000
  C   C1491     1.0  0.93666  0.60932  0.43313  1.0000
  C   C1492     1.0  0.85522  0.58758  0.32175  1.0000
  H   H1178     1.0  0.91681  0.75463  0.60991  1.0000
  C   C1493     1.0  0.94402  0.55437  0.47681  1.0000
  H   H1179     1.0  0.51038  0.92983  0.42451  1.0000
  S   S233      1.0  0.98142  0.79806  0.54002  1.0000
  H   H1180     1.0  0.76771  0.55134  0.42810  1.0000
  H   H1181     1.0  0.83925  0.55708  0.43961  1.0000
  H   H1182     1.0  0.90271  0.56443  0.41211  1.0000
  H   H1183     1.0  0.93449  0.63031  0.41598  1.0000
  H   H1184     1.0  0.67485  0.75129  0.39248  1.0000
  C   C1494     1.0  0.52688  0.61381  0.51784  1.0000
  H   H1185     1.0  0.87128  0.76122  0.34225  1.0000
  H   H1186     1.0  0.59917  0.55162  0.43889  1.0000
  H   H1187     1.0  0.85727  0.97138  0.38469  1.0000
  C   C1495     1.0  0.88919  0.97088  0.38802  1.0000
  Fe  Fe116     1.0  0.98244  0.73146  0.53666  1.0000
  H   H1188     1.0  0.83073  0.57700  0.33439  1.0000
  H   H1189     1.0  0.99257  0.62951  0.61027  1.0000
  C   C1496     1.0  0.81955  0.84103  0.36973  1.0000
  C   C1497     1.0  0.60864  0.83637  0.31516  1.0000
  H   H1190     1.0  0.57861  0.72896  0.44924  1.0000
  C   C1498     1.0  0.65063  0.52350  0.45703  1.0000
  C   C1499     1.0  0.72966  0.87455  0.63571  1.0000
  H   H1191     1.0  0.51977  0.61273  0.64379  1.0000
  C   C1500     1.0  0.71408  0.83616  0.63482  1.0000
  C   C1501     1.0  0.97171  0.82068  0.39112  1.0000
  C   C1502     1.0  0.64302  0.59466  0.45112  1.0000
  C   C1503     1.0  0.62417  0.74291  0.41924  1.0000
  C   C1504     1.0  0.79572  0.62786  0.61782  1.0000
  H   H1192     1.0  0.77369  0.92798  0.38702  1.0000
  C   C1505     1.0  0.92526  0.92005  0.57479  1.0000
  C   C1506     1.0  0.93770  0.97774  0.60368  1.0000
  C   C1507     1.0  0.66309  0.73540  0.41037  1.0000
  H   H1193     1.0  0.90493  0.90191  0.56278  1.0000
  H   H1194     1.0  0.67283  0.73521  0.54860  1.0000
  C   C1508     1.0  0.91135  0.95407  0.58846  1.0000
  C   C1509     1.0  0.96240  0.59154  0.47869  1.0000
  C   C1510     1.0  0.60667  0.58826  0.51889  1.0000
  S   S234      1.0  0.52634  0.77970  0.34825  1.0000
  H   H1195     1.0  0.71673  0.70254  0.41730  1.0000
  H   H1196     1.0  0.79836  0.61509  0.39261  1.0000
  H   H1197     1.0  0.98908  0.99120  0.47852  1.0000
  H   H1198     1.0  0.77452  0.68037  0.59678  1.0000
  C   C1511     1.0  0.79304  0.69798  0.33913  1.0000
  H   H1199     1.0  0.82432  0.82250  0.35161  1.0000
  H   H1200     1.0  0.55015  0.98439  0.33028  1.0000
  H   H1201     1.0  0.97287  0.64783  0.45853  1.0000
  H   H1202     1.0  0.73147  0.61845  0.41380  1.0000
  C   C1512     1.0  0.78534  0.52504  0.43191  1.0000
  C   C1513     1.0  0.82606  0.52799  0.43791  1.0000
  C   C1514     1.0  0.82697  0.64566  0.42663  1.0000
  C   C1515     1.0  0.77950  0.70081  0.36662  1.0000
  Fe  Fe117     1.0  0.51799  0.79512  0.39359  1.0000
  H   H1203     1.0  0.60590  0.76449  0.40823  1.0000
  Fe  Fe118     1.0  0.72289  0.51406  0.34931  1.0000
  H   H1204     1.0  0.67764  0.72235  0.49821  1.0000
  H   H1205     1.0  0.97646  0.88298  0.56620  1.0000
  C   C1516     1.0  0.68581  0.70758  0.54128  1.0000
  C   C1517     1.0  0.69921  0.67929  0.56055  1.0000
  C   C1518     1.0  0.71659  0.64405  0.55111  1.0000
  C   C1519     1.0  0.71923  0.63639  0.52247  1.0000
  C   C1520     1.0  0.70336  0.66331  0.50295  1.0000
  C   C1521     1.0  0.68824  0.69988  0.51259  1.0000
  S   S235      1.0  0.71922  0.98869  0.46910  1.0000
  C   C1522     1.0  0.97157  0.96960  0.39669  1.0000
  C   C1523     1.0  0.87386  0.62398  0.32811  1.0000
  C   C1524     1.0  0.58843  0.88071  0.64147  1.0000
  S   S236      1.0  0.99536  0.73089  0.49055  1.0000
  C   C1525     1.0  0.82453  0.69329  0.62342  1.0000
  S   S237      1.0  0.50779  0.73121  0.40638  1.0000
  C   C1526     1.0  0.71423  0.99619  0.57688  1.0000
  S   S238      1.0  0.51222  0.77529  0.60472  1.0000
  Fe  Fe119     1.0  0.51121  0.71692  0.36067  1.0000
  H   H1206     1.0  0.53517  0.52033  0.44097  1.0000
  C   C1527     1.0  0.60289  0.97638  0.52949  1.0000
  H   H1207     1.0  0.57970  0.59577  0.31566  1.0000
  H   H1208     1.0  0.92418  0.64434  0.62466  1.0000
  C   C1528     1.0  0.79332  0.99985  0.55887  1.0000
  C   C1529     1.0  0.94767  0.66331  0.63210  1.0000
  C   C1530     1.0  0.94847  0.00015  0.40855  1.0000
  H   H1209     1.0  0.82405  0.58049  0.64074  1.0000
  H   H1210     1.0  0.70805  0.81716  0.31255  1.0000
  H   H1211     1.0  0.85674  0.58414  0.82106  1.0000
  S   S239      1.0  0.70898  0.56115  0.87411  1.0000
  S   S240      1.0  0.83319  0.54993  0.76715  1.0000
  H   H1212     1.0  0.90833  0.63397  0.83327  1.0000
  H   H1213     1.0  0.94596  0.63906  0.74774  1.0000
  H   H1214     1.0  0.71540  0.81750  0.65326  1.0000
  S   S241      1.0  0.82524  0.92673  0.73167  1.0000
  H   H1215     1.0  0.89360  0.58996  0.73533  1.0000
  S   S242      1.0  0.68868  0.95045  0.88408  1.0000
  H   H1216     1.0  0.95725  0.63081  0.69518  1.0000
  C   C1531     1.0  0.87620  0.59575  0.80502  1.0000
  H   H1217     1.0  0.52108  0.55911  0.82372  1.0000
  S   S243      1.0  0.54877  0.82972  0.91475  1.0000
  S   S244      1.0  0.54748  0.65096  0.84140  1.0000
  C   C1532     1.0  0.90557  0.62398  0.81191  1.0000
  P   P50       1.0  0.86517  0.97899  0.81313  1.0000
  H   H1218     1.0  0.73173  0.64842  0.83289  1.0000
  S   S245      1.0  0.96592  0.67708  0.80116  1.0000
  Fe  Fe120     1.0  0.52200  0.78414  0.65088  1.0000
  S   S246      1.0  0.97603  0.81988  0.69856  1.0000
  S   S247      1.0  0.78659  0.96960  0.65846  1.0000
  C   C1533     1.0  0.91553  0.96663  0.76699  1.0000
  H   H1219     1.0  0.58677  0.85349  0.78753  1.0000
  C   C1534     1.0  0.65689  0.78061  0.93873  1.0000
  C   C1535     1.0  0.52867  0.53400  0.74033  1.0000
  C   C1536     1.0  0.82974  0.86243  0.81267  1.0000
  C   C1537     1.0  0.65101  0.91546  0.89281  1.0000
  C   C1538     1.0  0.63389  0.89192  0.87171  1.0000
  C   C1539     1.0  0.60279  0.86508  0.87787  1.0000
  C   C1540     1.0  0.58840  0.86181  0.90523  1.0000
  C   C1541     1.0  0.60556  0.88528  0.92621  1.0000
  C   C1542     1.0  0.63670  0.91179  0.92013  1.0000
  H   H1220     1.0  0.64449  0.89476  0.85046  1.0000
  H   H1221     1.0  0.58969  0.84738  0.86146  1.0000
  H   H1222     1.0  0.59447  0.88311  0.94733  1.0000
  H   H1223     1.0  0.64917  0.92980  0.93656  1.0000
  C   C1543     1.0  0.86804  0.89839  0.72218  1.0000
  C   C1544     1.0  0.88215  0.86907  0.74072  1.0000
  C   C1545     1.0  0.91561  0.84547  0.73410  1.0000
  C   C1546     1.0  0.93522  0.85057  0.70858  1.0000
  C   C1547     1.0  0.92147  0.88022  0.69010  1.0000
  C   C1548     1.0  0.88816  0.90413  0.69687  1.0000
  H   H1224     1.0  0.86694  0.86441  0.76029  1.0000
  H   H1225     1.0  0.92589  0.82300  0.74860  1.0000
  H   H1226     1.0  0.93643  0.88444  0.67029  1.0000
  H   H1227     1.0  0.87787  0.92669  0.68241  1.0000
  H   H1228     1.0  0.54319  0.56208  0.90334  1.0000
  C   C1549     1.0  0.65321  0.90400  0.67466  1.0000
  C   C1550     1.0  0.63235  0.86881  0.68066  1.0000
  H   H1229     1.0  0.92805  0.51500  0.91624  1.0000
  H   H1230     1.0  0.52101  0.62446  0.78699  1.0000
  H   H1231     1.0  0.92468  0.56552  0.69219  1.0000
  H   H1232     1.0  0.67822  0.91271  0.68747  1.0000
  H   H1233     1.0  0.64141  0.85065  0.69824  1.0000
  H   H1234     1.0  0.66685  0.68267  0.82602  1.0000
  C   C1551     1.0  0.66490  0.58714  0.86448  1.0000
  C   C1552     1.0  0.65217  0.62027  0.88010  1.0000
  C   C1553     1.0  0.61631  0.64030  0.87344  1.0000
  C   C1554     1.0  0.59254  0.62688  0.85141  1.0000
  C   C1555     1.0  0.60525  0.59355  0.83611  1.0000
  C   C1556     1.0  0.64161  0.57453  0.84208  1.0000
  H   H1235     1.0  0.67003  0.63040  0.89746  1.0000
  H   H1236     1.0  0.60695  0.66586  0.88540  1.0000
  H   H1237     1.0  0.58681  0.58203  0.81964  1.0000
  H   H1238     1.0  0.65141  0.54974  0.82953  1.0000
  C   C1557     1.0  0.87148  0.58343  0.77732  1.0000
  C   C1558     1.0  0.89711  0.59906  0.75680  1.0000
  C   C1559     1.0  0.92681  0.62696  0.76378  1.0000
  C   C1560     1.0  0.93082  0.64006  0.79136  1.0000
  Fe  Fe121     1.0  0.51338  0.78194  0.89196  1.0000
  H   H1239     1.0  0.55880  0.84009  0.73460  1.0000
  C   C1561     1.0  0.85292  0.82643  0.65499  1.0000
  C   C1562     1.0  0.98842  0.58731  0.97261  1.0000
  H   H1240     1.0  0.80482  0.99126  0.85662  1.0000
  C   C1563     1.0  0.66950  0.50694  0.72950  1.0000
  C   C1564     1.0  0.56202  0.90920  0.77266  1.0000
  C   C1565     1.0  0.57024  0.94950  0.76761  1.0000
  C   C1566     1.0  0.57470  0.62331  0.76226  1.0000
  H   H1241     1.0  0.61533  0.99498  0.76612  1.0000
  C   C1567     1.0  0.88857  0.99830  0.84438  1.0000
  H   H1242     1.0  0.61382  0.76537  0.90726  1.0000
  H   H1243     1.0  0.80289  0.84602  0.80794  1.0000
  C   C1568     1.0  0.66475  0.66191  0.70675  1.0000
  C   C1569     1.0  0.50147  0.92923  0.71995  1.0000
  C   C1570     1.0  0.90602  0.73149  0.71386  1.0000
  H   H1244     1.0  0.83236  0.66672  0.69632  1.0000
  H   H1245     1.0  0.92632  0.92092  0.82842  1.0000
  H   H1246     1.0  0.99151  0.78562  0.91687  1.0000
  C   C1571     1.0  0.71105  0.61739  0.76687  1.0000
  C   C1572     1.0  0.86468  0.92537  0.81575  1.0000
  C   C1573     1.0  0.99407  0.56676  0.85569  1.0000
  H   H1247     1.0  0.87462  0.62409  0.66216  1.0000
  H   H1248     1.0  0.51869  0.84879  0.82448  1.0000
  C   C1574     1.0  0.65946  0.52840  0.68176  1.0000
  H   H1249     1.0  0.95347  0.95707  0.73128  1.0000
  H   H1250     1.0  0.69878  0.64215  0.95901  1.0000
  H   H1251     1.0  0.80066  0.52471  0.91041  1.0000
  H   H1252     1.0  0.63032  0.67554  0.78179  1.0000
  C   C1575     1.0  0.73222  0.62263  0.79174  1.0000
  H   H1253     1.0  0.94641  0.91975  0.96014  1.0000
  H   H1254     1.0  0.92796  0.75126  0.70517  1.0000
  C   C1576     1.0  0.53549  0.82241  0.74408  1.0000
  H   H1255     1.0  0.51113  0.85901  0.96797  1.0000
  H   H1256     1.0  0.53417  0.54167  0.65340  1.0000
  C   C1577     1.0  0.55839  0.51255  0.72645  1.0000
  P   P51       1.0  0.64541  0.62636  0.73155  1.0000
  C   C1578     1.0  0.89910  0.86341  0.82643  1.0000
  C   C1579     1.0  0.93112  0.80136  0.92625  1.0000
  C   C1580     1.0  0.90060  0.82926  0.92281  1.0000
  C   C1581     1.0  0.90686  0.86293  0.90631  1.0000
  C   C1582     1.0  0.94371  0.86885  0.89331  1.0000
  C   C1583     1.0  0.97453  0.84074  0.89638  1.0000
  C   C1584     1.0  0.96791  0.80704  0.91315  1.0000
  H   H1257     1.0  0.65876  0.52179  0.65959  1.0000
  S   S248      1.0  0.51817  0.71916  0.66129  1.0000
  C   C1585     1.0  0.71600  0.64561  0.81321  1.0000
  C   C1586     1.0  0.82998  0.90383  0.80985  1.0000
  H   H1258     1.0  0.57968  0.64680  0.69307  1.0000
  C   C1587     1.0  0.86488  0.52153  0.91036  1.0000
  H   H1259     1.0  0.54662  0.96989  0.76174  1.0000
  H   H1260     1.0  0.93636  0.54038  0.86375  1.0000
  C   C1588     1.0  0.61617  0.59702  0.94607  1.0000
  C   C1589     1.0  0.59210  0.63124  0.73621  1.0000
  C   C1590     1.0  0.71645  0.68179  0.67402  1.0000
  H   H1261     1.0  0.87924  0.95141  0.96168  1.0000
  H   H1262     1.0  0.74380  0.67510  0.66293  1.0000
  P   P52       1.0  0.51133  0.89152  0.77159  1.0000
  H   H1263     1.0  0.53325  0.92541  0.71697  1.0000
  C   C1591     1.0  0.65838  0.65998  0.78438  1.0000
  H   H1264     1.0  0.64682  0.59058  0.95126  1.0000
  H   H1265     1.0  0.82544  0.66416  0.74719  1.0000
  H   H1266     1.0  0.92679  0.77603  0.93991  1.0000
  H   H1267     1.0  0.87255  0.82547  0.93372  1.0000
  H   H1268     1.0  0.88340  0.88495  0.90428  1.0000
  H   H1269     1.0  0.94783  0.89557  0.88124  1.0000
  H   H1270     1.0  0.55233  0.76948  0.72159  1.0000
  Fe  Fe122     1.0  0.72016  0.98813  0.91705  1.0000
  C   C1592     1.0  0.63974  0.93855  0.77898  1.0000
  C   C1593     1.0  0.81453  0.99753  0.81208  1.0000
  C   C1594     1.0  0.55760  0.58039  0.91893  1.0000
  C   C1595     1.0  0.56739  0.64202  0.71374  1.0000
  C   C1596     1.0  0.52649  0.64760  0.71801  1.0000
  H   H1271     1.0  0.83577  0.84684  0.66778  1.0000
  C   C1597     1.0  0.53388  0.62916  0.76649  1.0000
  C   C1598     1.0  0.67558  0.76876  0.96350  1.0000
  C   C1599     1.0  0.64190  0.92761  0.65193  1.0000
  H   H1272     1.0  0.70901  0.73948  0.65506  1.0000
  C   C1600     1.0  0.92229  0.90515  0.97103  1.0000
  H   H1273     1.0  0.92604  0.84772  0.83242  1.0000
  C   C1601     1.0  0.94120  0.59777  0.88279  1.0000
  C   C1602     1.0  0.83776  0.50305  0.69877  1.0000
  C   C1603     1.0  0.95635  0.56739  0.68846  1.0000
  Fe  Fe123     1.0  0.79564  0.51185  0.79683  1.0000
  C   C1604     1.0  0.70050  0.65384  0.69255  1.0000
  H   H1274     1.0  0.94306  0.53780  0.80447  1.0000
  H   H1275     1.0  0.53995  0.66197  0.95878  1.0000
  C   C1605     1.0  0.82708  0.51569  0.92187  1.0000
  C   C1606     1.0  0.61850  0.71981  0.93887  1.0000
  C   C1607     1.0  0.89255  0.99412  0.78222  1.0000
  C   C1608     1.0  0.85282  0.63676  0.64798  1.0000
  H   H1276     1.0  0.50752  0.65713  0.70104  1.0000
  C   C1609     1.0  0.60906  0.96396  0.77039  1.0000
  C   C1610     1.0  0.59606  0.62972  0.95776  1.0000
  H   H1277     1.0  0.95446  0.65551  0.89979  1.0000
  Fe  Fe124     1.0  0.73793  0.51521  0.84538  1.0000
  C   C1611     1.0  0.86429  0.84221  0.82090  1.0000
  H   H1278     1.0  0.74310  0.88557  0.65476  1.0000
  H   H1279     1.0  0.72410  0.59919  0.75059  1.0000
  C   C1612     1.0  0.55621  0.63692  0.95016  1.0000
  C   C1613     1.0  0.65179  0.56709  0.69103  1.0000
  C   C1614     1.0  0.67312  0.63461  0.76346  1.0000
  C   C1615     1.0  0.66097  0.54537  0.73888  1.0000
  H   H1280     1.0  0.60231  0.97514  0.86896  1.0000
  C   C1616     1.0  0.59279  0.88414  0.78207  1.0000
  Fe  Fe125     1.0  0.79462  0.97414  0.70484  1.0000
  C   C1617     1.0  0.67937  0.66472  0.80938  1.0000
  C   C1618     1.0  0.88236  0.70776  0.69646  1.0000
  C   C1619     1.0  0.63155  0.89873  0.78496  1.0000
  S   S249      1.0  0.57579  0.81181  0.67223  1.0000
  C   C1620     1.0  0.64591  0.69888  0.70283  1.0000
  C   C1621     1.0  0.51735  0.52329  0.76746  1.0000
  H   H1281     1.0  0.59286  0.61338  0.77944  1.0000
  S   S250      1.0  0.72874  0.51826  0.79908  1.0000
  H   H1282     1.0  0.50675  0.61892  0.92455  1.0000
  H   H1283     1.0  0.64507  0.58998  0.67580  1.0000
  H   H1284     1.0  0.61920  0.70658  0.71434  1.0000
  H   H1285     1.0  0.96580  0.74928  0.66711  1.0000
  H   H1286     1.0  0.71605  0.62590  0.69572  1.0000
  C   C1622     1.0  0.65340  0.57606  0.71963  1.0000
  H   H1287     1.0  0.64651  0.75480  0.68077  1.0000
  S   S251      1.0  0.71333  0.97587  0.96255  1.0000
  H   H1288     1.0  0.80320  0.91880  0.80274  1.0000
  S   S252      1.0  0.80514  0.51237  0.84308  1.0000
  C   C1623     1.0  0.89923  0.90484  0.82405  1.0000
  S   S253      1.0  0.78737  0.98775  0.91820  1.0000
  H   H1289     1.0  0.76091  0.60819  0.79457  1.0000
  H   H1290     1.0  0.86928  0.70470  0.77738  1.0000
  H   H1291     1.0  0.92041  0.74805  0.75612  1.0000
  C   C1624     1.0  0.88407  0.97815  0.86997  1.0000
  C   C1625     1.0  0.95543  0.56580  0.86695  1.0000
  H   H1292     1.0  0.91673  0.93564  0.77287  1.0000
  Fe  Fe126     1.0  0.51299  0.70103  0.86316  1.0000
  H   H1293     1.0  0.62740  0.99885  0.91469  1.0000
  H   H1294     1.0  0.86421  0.81010  0.82266  1.0000
  C   C1626     1.0  0.97116  0.72197  0.65596  1.0000
  H   H1295     1.0  0.66069  0.55106  0.76114  1.0000
  H   H1296     1.0  0.91130  0.59717  0.89128  1.0000
  H   H1297     1.0  0.89456  0.97919  0.91438  1.0000
  C   C1627     1.0  0.89891  0.51001  0.92525  1.0000
  H   H1298     1.0  0.50552  0.78733  0.95779  1.0000
  C   C1628     1.0  0.93653  0.97870  0.74321  1.0000
  C   C1629     1.0  0.66538  0.73263  0.97615  1.0000
  C   C1630     1.0  0.66165  0.72657  0.68402  1.0000
  H   H1299     1.0  0.84406  0.77728  0.68278  1.0000
  S   S254      1.0  0.51010  0.76401  0.84667  1.0000
  H   H1300     1.0  0.59655  0.70132  0.92898  1.0000
  H   H1301     1.0  0.51401  0.55860  0.72988  1.0000
  C   C1631     1.0  0.90124  0.73041  0.74287  1.0000
  C   C1632     1.0  0.87222  0.70621  0.75484  1.0000
  C   C1633     1.0  0.84770  0.68327  0.73780  1.0000
  C   C1634     1.0  0.85244  0.68424  0.70876  1.0000
  C   C1635     1.0  0.59694  0.57249  0.92677  1.0000
  S   S255      1.0  0.52036  0.71935  0.90775  1.0000
  C   C1636     1.0  0.62856  0.75600  0.92636  1.0000
  H   H1302     1.0  0.66413  0.80895  0.92915  1.0000
  C   C1637     1.0  0.85791  0.78693  0.66352  1.0000
  H   H1303     1.0  0.61305  0.54806  0.91717  1.0000
  Fe  Fe127     1.0  0.72390  0.99086  0.66617  1.0000
  P   P53       1.0  0.88890  0.70983  0.65877  1.0000
  C   C1638     1.0  0.63631  0.70809  0.96408  1.0000
  C   C1639     1.0  0.53174  0.78247  0.73643  1.0000
  H   H1304     1.0  0.66977  0.94985  0.78134  1.0000
  C   C1640     1.0  0.53718  0.61247  0.93076  1.0000
  C   C1641     1.0  0.94372  0.50671  0.81044  1.0000
  H   H1305     1.0  0.65521  0.87929  0.79221  1.0000
  C   C1642     1.0  0.60008  0.85689  0.66402  1.0000
  C   C1643     1.0  0.69686  0.71800  0.66958  1.0000
  C   C1644     1.0  0.88433  0.92308  0.97176  1.0000
  H   H1306     1.0  0.86762  0.53479  0.88984  1.0000
  H   H1307     1.0  0.86785  0.95044  0.87107  1.0000
  C   C1645     1.0  0.50863  0.83938  0.76319  1.0000
  Fe  Fe128     1.0  0.78003  0.97857  0.96433  1.0000
  S   S256      1.0  0.72997  0.99021  0.71286  1.0000
  C   C1646     1.0  0.50669  0.55489  0.66090  1.0000
  C   C1647     1.0  0.93953  0.69670  0.64884  1.0000
  H   H1308     1.0  0.89269  0.50274  0.72166  1.0000
  H   H1309     1.0  0.56708  0.52071  0.70541  1.0000
  C   C1648     1.0  0.97895  0.53329  0.68220  1.0000
  C   C1649     1.0  0.97466  0.60457  0.69019  1.0000
  H   H1310     1.0  0.78741  0.50109  0.67092  1.0000
  C   C1650     1.0  0.89901  0.99444  0.89468  1.0000
  H   H1311     1.0  0.99691  0.78189  0.84626  1.0000
  C   C1651     1.0  0.96546  0.63070  0.88760  1.0000
  C   C1652     1.0  0.50984  0.64181  0.74442  1.0000
  H   H1312     1.0  0.92980  0.56267  0.96930  1.0000
  H   H1313     1.0  0.69763  0.78786  0.97304  1.0000
  H   H1314     1.0  0.81975  0.50914  0.71705  1.0000
  H   H1315     1.0  0.97782  0.61778  0.97280  1.0000
  C   C1653     1.0  0.96132  0.55595  0.97054  1.0000
  C   C1654     1.0  0.79211  0.99999  0.83681  1.0000
  C   C1655     1.0  0.97479  0.51636  0.97099  1.0000
  H   H1316     1.0  0.00088  0.97616  0.83124  1.0000
  C   C1656     1.0  0.88130  0.76069  0.64759  1.0000
