data_image0
_chemical_formula_structural       C3FeS2FeS2FeSFeS3FeS2FeS2FeSFeS3CFeSC2HCFeS2FeS2FeS2FeHFeS3FeS2FeS2FeSFeS3C4HC6H6C2H2C8H4C4HCH3C6H4C6H4C6H4CHCH2C5H3C3H4CH2C3H2CH3CH2CH2C4PC8PHC10H20CHC5HCHC2H2C3HC4HC5H3C4H5C13PC11H9CH3C6PC2SC16H3C2H2C2H6C6PC16H14C2HC3H2C2HCHC3H2SHPCHC3HCH2C2HSHCHCHCHC2HCH2CH3C2HC2HCHCH4C5H4C5HC3H3C2PCH2C2H2CHCH2PHCHC7H2C4HCH2C3H4PCHCH3CHCHC4HCH4CHCH5CH3C2H3C4HPHCH2C4HCH2CHC3SCHSH2C4H2CHCFeCHFeCHC5HC4H2C2HCSHC2HCH5SC2FeSHFeSCSCS2FeSFeSC2HCFeS2FeS2Fe2S3FeS2FeHSFeCFeCS2C2H2C6H4C6H3C4HCH2C8H4C4HC4H2C2HCH2CH3C6H3CH3SCFeC2HPFeHC2HCH2CH2SHC3HCHC4H4FeH2SH3C4HCSCHC2HC5H2CHCHSHC2HCHC2HC8PC2H2C10SCPH3CH2CHPCH8CH2CHCHCH2C2HCHCHCHC2H2CHCH2SPHCHCH2CSCH2CPC13HSCPHCH3CH4CHCH4C5HC2HCH2CHCH2C5HCHC3HC2H2SHCPH4CHCH2CHC6PC18H21C2HC2HCH3C3HC2HC4HC4HCH2CHCHCH10CHC2HC3HC5HCFeCHC2HC6H4C4HC2H2CHSHSH4FeSFeSHFeSC2SFeS2FeS2FeSFeS3FeS2FeS2FeSFeS3FeSCFeS2FeSFeS3C7H4C2H3C4H2C6H4C6H4C2HC2H5C5H3C7H4CPCHCHC3HCHCH3CHC2H3C3HC4HCH7CHCH2C13H2CH2CH2CHC2H5C6PC18H20C5HCH2C2H2C3PH2SH2C2H2CHC4HC4H3C7PHC2H5C4HPHC6HC5H5CH2C2H3CH2C2HC2HC2HC3PC2HC2HCHCPHC2HCHCHC2HCSC6HCSH2SC3HC3HCH2CHFeH4C2H7CHC3H2CHCH2SC2H3CHCHCH2C5HCHC2HCH2C4HCH2CH2C4H4SFeH2SPHSCH2CH2C9H6FeHCHC4HC4HCHC4HCHSCH5SCH2C2H2SHCH4CHCHCHCH3SPH2CHCH2FeHCHC7H2C4HC3HC2HCHCH4C6H2CHCHCH2CH4CH2SC2HCHFeS2CHFe2PS2HC3HSCHCHC4H3CHC2H3CHC2HCH2CHC5H3CHCH4CH2C3HCHC3HC3HCPCH7C2PH4C5H2C6HCHCHCHC2H2C2H2CHCHCHCH2C3H2C3FeCHCHC4PCHC4H5C6SHC2HCHC4PC3H2CH3CH2C2SCH5CH2CH2C2H3CHCHSCH2CH4C4HCFeS2HSFeSFeSH2FeCSFeS2FeHFeCS2FeS2FeS2FeSFeS3FeS2FeSHFeSFeS3H2CPH2SCHC2HC4H2CHC3HC3H2C6HCH2C6H4C5HCSHSC12H4C6H12CH5C2H5CHCHC6H2C5H3CH2C2H2C2H2C2H5C4HC3HC2H2CHC6H2C7SC4H8C7PHC7SHC8H5CH4CHCH8C2H5CHC3H3C2H4C2H4PHC2HCHCHCHC4HPC3H3CH2CHCHC2HSHC4H2C4H2C2SC5SCHPHSH2CHCHCHC3HC3HC2H4CHCH2C2FeHC2HC4HCH2C2H7C5HPC6FeS2CFeS2CFeS2FeS2FeSFeS3FeS2FeS2FeSFeS3FeS2FeS2FeCFeS3PH3C2HC2H2C7H6C6H4C2HC2H3CH2C2HCHC3H2C6H4C7H5C4H2CH2CH2C15HCFeC4H10CH2CHC4HCH2CPC15HC3H2PHCH6CHCH3C5PC14H2C3H7C2H4C2H2CH3CHCHPC2HCHCHC11HSH2CH8CHC7PC18H16CH2PC5H4C4HCH3C2H2C3SH2C3H2CHC6HCH3C2HCHCH5CHC7PC18H13CH6C6PC2HCSH2C5H2CH7CH5CHCH3C2HCHC2HCH2CHCHCHC3H2C9HCH5CH5C2PH2C2H2C2HCH2SC5H2C2H2CH2C3H2C2H3SC2HFeS2PFePHSFeS2FeS2FeSFeS3FeS2FeS2FeSFeS3CSHFeSHFeCFeSHSFeS2FeS2FeCFeS3C2SC6H2C3HC4HPH2CHC4HC7H5C3H2C7H4C3H2C6H4C6H4CH3C6H6C2H2PCH3SH2FeCH2C2HC6H4C5HCHC3H4C2H2C6HCHC3HCHC5H6C7PC18H20C4FeHCHPCSHC7H5C4H2C8H2C3H3C5PC14HCH11C2H4SCH2C2H3CHC2H3CHCH3C2HC2H3C2HC4HCHFeC3HPCPCH2C2HC7HCH5C2H6CPHC2H3C10H2C3HCH4C2HCHCH3C2HPCSC6SHSH2CHC3H4C2HC4HC4H2C2FeHCH2CH2C2HCFeH3C3H3CH4C2HC2HCH3CHC6HC3HCHC4HC4HC2HCH7CH2C4FeS2FeS2FeCFeHS2FeS2FeS2FeHFeS3H2CH2CHCH4CH3C3H3CH3C3H3C6H4CH3CPC2HC5H3C3HC7HC4HC3HC4H6CH5CH3CH2C8HC2HCHPCH2PCH2C3H2C3H2CH3C2HC7HC3HC2H2C4H2C2HC4HC5HCSC3HC2HCH3CH4C2H2CHCH2CH2CHC8PCHCHCSH4CPHCHCH5PHCH3CH2C8HC2HC6HCH2C3HFeS2FeS2FeSFeS3FeS2FeS2Fe2S3FeS2FeS2FeSFeHSCFeSCFeS2FeSFeS3C6H3PC6H4C6HCH2C6H5CHCH2C3H5CPCHCHC5H2C3H2CHC2HCHC2H2CH2CH4CH2C7H2CH2C3HC4H4CHCH2CHC10HC2H2CH2CHCH3CSCH2C10HC7SCHCH2CH4CHSHC3HCHCHCHCH2CHC7H2CH2C2HC2HCPC3HC2HCHPHCHCH3CH2C4HC2H3CH4C2HCH2CH5C2HCHC2HC4HCHSCH3C2HCHCHCH3C2H2C6HCH2CH2C5H9PCH2CH2CHCH3CHC2HCHC4HCHC4HC2H3C4H2SC3HC3HCHCHCH2CH2C2SC2H3CH6CHCH3C5HC2FeHFeS2FeHS2FeS2FeS2FeSFeS2C2SC2HSFeSFeS2FeS2HSFeSHFeSFeSCSPSCFeSHFeSFeS2HFeHCFeS2H2FeHS2HC7HC4SC4HCH2C4H2C6H4C6H4C6HCH2C2H2C6H4C6H4C5PC3H2CH2CHC3HSH2C3HCHC6PC18H20C2HC3HC2HC2H9CPHSC4H2SHSC2FeH3CH2C2HC3PC8HCHC2H4CH2CHC2H2C2HCH2CSHC7PC2H3C4H2C2H2CHCH6C2H4CHCHC3HC6PC18H19CH3CH2C3H3C2H2C2HCHC2HCHCHSCH3FeHCH3CSC2HCHC2H4FeH2C2SFeCH2CSPSHFeCSHC3H2CH2C3H3CH2CHC2SHCS2H2C2H2C2HC2H3SPH4C4HC8HCHCHCH3C2HCHCH2C3H3C2HC3H2C3HC4FeSCFeS2Fe3S3FeSHFeSCHFeS2FeS2FeS2FeHFeS3FeSCFeS2FeSFeSFeS2FeS2FeSFeS3FeS2FeSHFeSFeSC8H4CHC7H5C6H4C6H3C6HCH2C7H4C6H9CHC3HC5H2C3H3SH4CH3C5HCH2CSCHCH3C2HC2HC3H3C2H7C2H5CH3CHC2HCHC5HC2SH2CHC6HCH3CH2CHC2PC12H11C6H6PC3HCHC5H2PHC6H2C7H2CPH7CHCH4SC6PC18H20PC4HC16H10SHCH2C5SH2C3HCSCHC4HCSPHCSH2C2HC3HC4HC2H2CHC5HCHCHSCH3PCHCHCH2CHCHSHC4HC3HCHC2H9C2H4CSHC4H2C3HCHCHCHC4HC2HC2HC4H2C2H3CH2C3HC4H2CH2C4H3C2HC2PH3C2H4C2PH3CHCH4CFeS2FeSCFeSFeS3FeC2FeS2FeSFeCS2FeSHFeS2FeCFeS3FeCHFeCSFeSFeCS2HCH2C7H4C6H4CHC6H4C6H5CHC4HC3H4C2HCHC4H3C2H3CH2CHC5H5C6PC18HPH22SH5CPC4HC3HC2HPCH5CHCH2CHC2HC3HCHC2HCH3SCH2CH6CH2CHC3HCH4C6HCHPHC2HC2H3CHC5HCSCSCHC3HC4SC2H4CHC2H2CHC2SC8H2CSHC5H3CPH2CHCH3C8HCHCHSC3HC2HCH2CHC2H4C2FeSCS2FeHFeS2FeCFeS2CHCHC4HCH2C5HC2HC4H2C5H2C2HCSHC3H3CHC3H4C3H2FeCHCHC3H4C2SH5CH2PCHC4HSC3H2CH2C2HC3HC2HC2HC2H2C2HC4SH5C4HC5H3SHC4HC2H7CHCHC2PH6CSH2CH6CSH2C2HC2PHC12HC2PH2C2HC12HCH4C2HSHCHCH2CH2C4H3FeH5CHFeC2H3FeS2H3SFeS2FeS2Fe2S3FeS2FeS2FeSFeS3FeS2FeS2FeSFeS3FeSHFeS2FeSFeS3C3HSC7H2C2HC6H4C6H4C6H5C4H2C7H4PCHCHSH2CHC2PC3H2C7H5C8PC18HCH18C6PC13HCHCH7CSH6CHC7PC18H20C6PC18HCH19PH4CHCH2CH2C9H6CH2C2HC2HSCSCHC3H4CFeCHC3HCFeCH2CHC4HCHCH2CH2C7FeCHC4H2C2H2C5HCHCH2C2HC10H3CH2CH6CH2CHC2HC6HC3HPH2C2H2CHC2H3CHCHCH2CHCH4CH3C2HC3H2CH3C2HCHC3PH3C4H2C3HCHCHCSCHC2H2C2FeSC2FeSCS2HSCFeSFeS2C2SFeS2FeS2FeCFeS3FeS2FeS2FeSFeS3FeCFeH2C2H3C3HC2H2CHC2HPCHCH2C6H4C7H3C6H4C3H2CH2CSCHC2HC6H5C2HC3SHC6H2CHCH2C3HPC13HC4H4CH6C6PC18H21CH4CHC8S2HC3HCHCHC4H3C9HCH5C8PC18H6C2H12C3H2C5H2CH4C2H2CH2CH9CHCHC2HC8PC9H2C4PC2H11CH4CH3C3HCHCHC4HCHCHPCH2C5HC2HCSPH3SCHCHSFeCH4C2HC3H2C3H2CHCH2CSH2CH4C3HC2HPC2SHCH2C2H2CH2CPC2HC5HCH3CHC2HCFeC2HC2FeSHFeSFe2SHSHCH2FeS2FeS2FeSFeS3FeS2FeS2FeSFeS4FeS2FeSHFeSFeS3CHCHC2HC7H3SC7H4C6H5C2HCH2C6H4C2HC3H2CH3CH2C2H2C6H6C3HC2HCHCHCH3SPC3H2C2H2CH2C6SH2CH2CH4CHCH6C2HCHPC2H2CHCHCH3CH2CH2C2H2PC2HC2HCHC2SHCHC6PC18H2CH18C5HCH3C4H3C2H3CHPHPC2SCHCHC4HC3HC8HCHCH4C3HC2H2CHCH2C2HCH5CHC3HCHC12H3CPC7H2CH2C2H2CHCHC3HC2HCHCHC4H3CSCH6C2H3C2HCHCH3C2H2CHCFeSCFeSHFeSFeS3CHC2HC2HSHC4H2CHC4HC2H2C3PCH2CHSC4H3CH3CHC2HC4H2CHC2H2CH5C2HC2H2C3HPCHC2HC13HC3PCH3CHCHCHCHCH2CH3C2HCH3PH2CHC2HC2H2C7PC7H3CH2C2HC2H2C2H6CHCHC2HC2H4CHC3HCHCHC3HCH3C3HC2H3C2H2C2HC3HC2H4C2HFeSCFeSCSC2HSH2SCHCH2CHSC4H3C3H2C2HC2PC8HC2HCHC3H2C2H6C2HC3H2C3HC2HC3H6CHCHSCHC3HC2HCH2CHCHC5H3CHC4HC2HCH3SHCH2C2HPHCPHFeH2C2HFeC2H3SC5HC2H2C4H2CHCH3C2HC4H2CHC2H3C8HCHC2HCHCH3CFeCSHFeHFeCSC2S2FeS2FeS2FeSFeCS2FeS2FeS2FeCFeS3H5CH3C4HC5HFeC8H2C6H4C6H5C5HC6PC18H16CH3SHC4PCHCH3CHC6HCH3SHC3HCH7CHCHCH3C2HCHSHC2HC3HC2HC3HC4FeCH2SH4C3H2C2H3C2HCHCSH3CHC2H2CHCH4CHC6H2CHCHC3H2CHCSHC2HSCH2CHCH2CHC2FeCHC2HCPCH2CPH4C2HC2PC4HC5FeC8HCH5CH3C4HC4H4CH2C2HCH3C2SC2SH2FeH2CH3CSC2HCHC2H5CHPSCHC3HC2PH2C2H3CHCHCHCHCH3FeS2FeSFeSFeS3FeS2FeSCFeSFeS3CFeS2FeH2SC2HFeS2HSFeSFeS3HC2HC6H3CHSCHC6H3CSHC7H5C2H2C6H5CHC7H4C7H2CHC6PC11HC2HC3H12C2H6C2HC3PC9HCH8C5PC14H14C2H2SH4CHC3SC3H2C4H3C2HCH3CSC2PHC3HCHCHSHCPHC6PC5HC10HC3H4C3H11PHCH2C2FeCH2CHCHC2HC5HC3H2C5HPCH2PCH2C5HC4HPC4HCH2C3H2SC2HCH3C2H2SC6H3CHC4HCH5C3H4C2HFeCH3CHCHCHC8HCSH5C5HSH5C5HCH2CHC2HCHC2HC2HC4H3C4H3CHC2HCH2CH3CH3C3FeS2FeSFeSCFeS2FeS2FeSFeS3FeS2FeS2FeSFeS3CFeCSFeS2FeS2FeSFeS3FeS2FeS2FeSFeS3C6H4C6H5C3HCHCHC6H5CHC6H4C6H6PH3C4FeC6H4C2HC5H2C2HC6HCHC3SC4H5C9H8C6PC8HC8H12CH5C6PC18H23C2HCHCH3CHCHC3HCHCHCH2C2HCH2CHC7HC3HCH2C3H4C3HC2HC4H4PCHC4H2C2H2C4HCH3CHCHCHC3HCH3C2HC2H3CH2C5H3CH3PCHCH4C4HC2H2C2H2C4PC4HCH2C6SHCH5CHC5H6CSC5H4C2SCHC2H2C2H2CHCHC5HCH5C3HC4PC2HCHCH3C4H2SC2H8CHP2CHCHCHC2
_chemical_formula_sum              "C4800 Fe320 S640 H3840 P160"
_cell_length_a       58.5926
_cell_length_b       58.6967
_cell_length_c       104.768
_cell_angle_alpha    78.3074
_cell_angle_beta     78.2479
_cell_angle_gamma    78.5944

_space_group_name_H-M_alt    "P 1"
_space_group_IT_number       1

loop_
  _space_group_symop_operation_xyz
  'x, y, z'

loop_
  _atom_site_type_symbol
  _atom_site_label
  _atom_site_symmetry_multiplicity
  _atom_site_fract_x
  _atom_site_fract_y
  _atom_site_fract_z
  _atom_site_occupancy
  C   C1        1.0  0.30326  0.08570  0.01647  1.0000
  C   C2        1.0  0.23750  0.28817  0.03297  1.0000
  C   C3        1.0  0.31889  0.10322  0.07383  1.0000
  Fe  Fe1       1.0  0.18997  0.16948  0.09765  1.0000
  S   S1        1.0  0.21311  0.18270  0.07906  1.0000
  S   S2        1.0  0.15118  0.17512  0.09627  1.0000
  Fe  Fe2       1.0  0.23157  0.15237  0.11266  1.0000
  S   S3        1.0  0.25760  0.16494  0.09475  1.0000
  S   S4        1.0  0.24976  0.13502  0.13035  1.0000
  Fe  Fe3       1.0  0.23036  0.19760  0.09205  1.0000
  S   S5        1.0  0.23664  0.23508  0.08373  1.0000
  Fe  Fe4       1.0  0.23780  0.14901  0.08357  1.0000
  S   S6        1.0  0.25192  0.12750  0.06721  1.0000
  S   S7        1.0  0.20560  0.18645  0.11060  1.0000
  S   S8        1.0  0.21333  0.13447  0.10146  1.0000
  Fe  Fe5       1.0  0.26412  0.39030  0.09342  1.0000
  S   S9        1.0  0.23496  0.41627  0.10241  1.0000
  S   S10       1.0  0.29441  0.40053  0.07733  1.0000
  Fe  Fe6       1.0  0.24409  0.34776  0.11095  1.0000
  S   S11       1.0  0.21363  0.37096  0.12128  1.0000
  S   S12       1.0  0.24769  0.30827  0.11835  1.0000
  Fe  Fe7       1.0  0.21131  0.39123  0.10074  1.0000
  S   S13       1.0  0.17717  0.40427  0.09237  1.0000
  Fe  Fe8       1.0  0.24009  0.39367  0.12197  1.0000
  S   S14       1.0  0.24657  0.40507  0.14040  1.0000
  S   S15       1.0  0.24028  0.36679  0.09043  1.0000
  S   S16       1.0  0.27081  0.36886  0.11302  1.0000
  C   C4        1.0  0.08582  0.26526  0.13937  1.0000
  Fe  Fe9       1.0  0.27625  0.00638  0.20430  1.0000
  S   S17       1.0  0.24159  0.00337  0.19967  1.0000
  C   C5        1.0  0.01062  0.26909  0.00355  1.0000
  C   C6        1.0  0.30020  0.42958  0.07517  1.0000
  H   H1        1.0  0.01368  0.19203  0.99084  1.0000
  C   C7        1.0  0.01116  0.28973  0.04962  1.0000
  Fe  Fe10      1.0  0.23437  0.04304  0.19756  1.0000
  S   S18       1.0  0.21427  0.06177  0.18088  1.0000
  S   S19       1.0  0.27055  0.04615  0.20080  1.0000
  Fe  Fe11      1.0  0.10488  0.14986  0.03565  1.0000
  S   S20       1.0  0.11783  0.17727  0.01891  1.0000
  S   S21       1.0  0.12900  0.13144  0.05035  1.0000
  Fe  Fe12      1.0  0.06090  0.14880  0.02373  1.0000
  S   S22       1.0  0.07124  0.17582  0.00604  1.0000
  S   S23       1.0  0.02728  0.13224  0.02881  1.0000
  Fe  Fe13      1.0  0.10846  0.15559  0.00588  1.0000
  H   H2        1.0  0.14374  0.47496  0.99536  1.0000
  Fe  Fe14      1.0  0.07981  0.19463  0.02073  1.0000
  S   S24       1.0  0.06429  0.23287  0.02171  1.0000
  S   S25       1.0  0.09740  0.12726  0.02252  1.0000
  S   S26       1.0  0.06743  0.16873  0.03854  1.0000
  Fe  Fe15      1.0  0.11336  0.39741  0.01576  1.0000
  S   S27       1.0  0.09608  0.39422  0.03729  1.0000
  S   S28       1.0  0.12218  0.43341  0.00527  1.0000
  Fe  Fe16      1.0  0.11575  0.34501  0.01567  1.0000
  S   S29       1.0  0.09921  0.33873  0.03685  1.0000
  S   S30       1.0  0.12891  0.31265  0.00597  1.0000
  Fe  Fe17      1.0  0.07357  0.37162  0.03184  1.0000
  S   S31       1.0  0.03530  0.36804  0.04111  1.0000
  Fe  Fe18      1.0  0.12316  0.36147  0.04021  1.0000
  S   S32       1.0  0.14699  0.34549  0.05549  1.0000
  S   S33       1.0  0.08897  0.37693  0.01013  1.0000
  S   S34       1.0  0.14144  0.36599  0.01909  1.0000
  C   C8        1.0  0.23346  0.04792  0.05364  1.0000
  C   C9        1.0  0.01241  0.36996  0.03192  1.0000
  C   C10       1.0  0.01459  0.38003  0.01854  1.0000
  C   C11       1.0  0.10700  0.05279  0.02568  1.0000
  H   H3        1.0  0.03046  0.38703  0.01359  1.0000
  C   C12       1.0  0.08296  0.25442  0.01755  1.0000
  C   C13       1.0  0.07397  0.27687  0.02077  1.0000
  C   C14       1.0  0.08798  0.29475  0.01739  1.0000
  C   C15       1.0  0.11103  0.29042  0.01048  1.0000
  C   C16       1.0  0.11998  0.26804  0.00704  1.0000
  C   C17       1.0  0.10613  0.24994  0.01076  1.0000
  H   H4        1.0  0.05614  0.28031  0.02601  1.0000
  H   H5        1.0  0.08084  0.31196  0.02001  1.0000
  H   H6        1.0  0.13775  0.26462  0.00163  1.0000
  H   H7        1.0  0.11322  0.23271  0.00817  1.0000
  H   H8        1.0  0.02398  0.31877  0.03574  1.0000
  H   H9        1.0  0.25893  0.45363  0.21381  1.0000
  C   C18       1.0  0.00796  0.14692  0.00574  1.0000
  C   C19       1.0  0.28224  0.17811  0.04295  1.0000
  H   H10       1.0  0.25720  0.02683  0.11966  1.0000
  H   H11       1.0  0.02500  0.15152  0.00098  1.0000
  C   C20       1.0  0.29391  0.46138  0.20619  1.0000
  C   C21       1.0  0.24768  0.40049  0.01644  1.0000
  C   C22       1.0  0.16850  0.38768  0.08233  1.0000
  C   C23       1.0  0.14953  0.39750  0.07553  1.0000
  C   C24       1.0  0.14281  0.38491  0.06716  1.0000
  C   C25       1.0  0.15454  0.36209  0.06587  1.0000
  C   C26       1.0  0.17280  0.35192  0.07311  1.0000
  C   C27       1.0  0.18015  0.36487  0.08101  1.0000
  H   H12       1.0  0.14031  0.41509  0.07655  1.0000
  H   H13       1.0  0.12855  0.39283  0.06173  1.0000
  H   H14       1.0  0.18176  0.33415  0.07232  1.0000
  H   H15       1.0  0.19476  0.35719  0.08613  1.0000
  C   C28       1.0  0.23716  0.43302  0.14543  1.0000
  C   C29       1.0  0.24683  0.43792  0.15561  1.0000
  C   C30       1.0  0.16258  0.42115  0.03193  1.0000
  C   C31       1.0  0.06480  0.07944  0.01888  1.0000
  H   H16       1.0  0.08630  0.15151  0.98320  1.0000
  C   C32       1.0  0.22032  0.45024  0.13971  1.0000
  H   H17       1.0  0.25980  0.42469  0.16010  1.0000
  H   H18       1.0  0.07513  0.23596  0.99340  1.0000
  H   H19       1.0  0.21244  0.44655  0.13203  1.0000
  C   C33       1.0  0.14582  0.16478  0.08262  1.0000
  C   C34       1.0  0.12421  0.17271  0.07803  1.0000
  C   C35       1.0  0.11922  0.16348  0.06767  1.0000
  C   C36       1.0  0.13554  0.14572  0.06215  1.0000
  C   C37       1.0  0.15720  0.13801  0.06666  1.0000
  C   C38       1.0  0.16254  0.14785  0.07665  1.0000
  H   H20       1.0  0.11120  0.18582  0.08258  1.0000
  H   H21       1.0  0.10243  0.16943  0.06430  1.0000
  H   H22       1.0  0.16979  0.12414  0.06253  1.0000
  H   H23       1.0  0.17921  0.14156  0.08012  1.0000
  C   C39       1.0  0.23951  0.11466  0.14429  1.0000
  C   C40       1.0  0.25456  0.10426  0.15351  1.0000
  C   C41       1.0  0.24719  0.08794  0.16474  1.0000
  C   C42       1.0  0.22462  0.08193  0.16684  1.0000
  C   C43       1.0  0.20967  0.09215  0.15754  1.0000
  C   C44       1.0  0.21706  0.10845  0.14631  1.0000
  H   H24       1.0  0.27194  0.10902  0.15203  1.0000
  H   H25       1.0  0.25883  0.08024  0.17183  1.0000
  H   H26       1.0  0.19219  0.08760  0.15910  1.0000
  H   H27       1.0  0.20536  0.11629  0.13926  1.0000
  C   C45       1.0  0.23944  0.25513  0.09359  1.0000
  C   C46       1.0  0.24014  0.24824  0.10710  1.0000
  C   C47       1.0  0.24291  0.26466  0.11455  1.0000
  C   C48       1.0  0.24466  0.28809  0.10861  1.0000
  C   C49       1.0  0.24386  0.29498  0.09511  1.0000
  C   C50       1.0  0.24130  0.27855  0.08762  1.0000
  H   H28       1.0  0.23882  0.23023  0.11176  1.0000
  H   H29       1.0  0.24367  0.25921  0.12498  1.0000
  H   H30       1.0  0.24542  0.31291  0.09050  1.0000
  H   H31       1.0  0.24088  0.28395  0.07716  1.0000
  C   C51       1.0  0.01772  0.34302  0.98880  1.0000
  H   H32       1.0  0.27091  0.31909  0.06794  1.0000
  C   C52       1.0  0.08565  0.00547  0.97999  1.0000
  H   H33       1.0  0.03989  0.25536  0.07357  1.0000
  H   H34       1.0  0.19910  0.44685  0.08773  1.0000
  C   C53       1.0  0.28245  0.44781  0.07900  1.0000
  C   C54       1.0  0.23055  0.42457  0.20741  1.0000
  C   C55       1.0  0.26074  0.42336  0.99504  1.0000
  C   C56       1.0  0.01127  0.28885  0.00892  1.0000
  C   C57       1.0  0.07011  0.07837  0.03143  1.0000
  H   H35       1.0  0.29830  0.02875  0.97754  1.0000
  H   H36       1.0  0.12353  0.04272  0.02823  1.0000
  H   H37       1.0  0.99346  0.05372  0.01541  1.0000
  C   C58       1.0  0.28950  0.09641  0.05755  1.0000
  C   C59       1.0  0.28087  0.11194  0.06662  1.0000
  C   C60       1.0  0.29554  0.11518  0.07484  1.0000
  H   H38       1.0  0.21499  0.00579  0.16723  1.0000
  H   H39       1.0  0.98960  0.35346  0.04858  1.0000
  H   H40       1.0  0.27815  0.09377  0.05122  1.0000
  H   H41       1.0  0.28909  0.12729  0.08178  1.0000
  C   C61       1.0  0.02021  0.33847  0.97598  1.0000
  H   H42       1.0  0.05333  0.36955  0.06997  1.0000
  H   H43       1.0  0.30568  0.98385  0.06655  1.0000
  C   C62       1.0  0.14734  0.11846  0.98560  1.0000
  C   C63       1.0  0.14327  0.09974  0.99594  1.0000
  C   C64       1.0  0.15329  0.07645  0.99436  1.0000
  H   H44       1.0  0.13253  0.10310  0.00522  1.0000
  H   H45       1.0  0.15016  0.06219  0.00249  1.0000
  C   C65       1.0  0.30021  0.99759  0.99244  1.0000
  H   H46       1.0  0.28993  0.06266  0.14176  1.0000
  H   H47       1.0  0.31505  0.97857  0.08890  1.0000
  H   H48       1.0  0.21745  0.41974  0.07187  1.0000
  C   C66       1.0  0.27817  0.43001  0.00017  1.0000
  H   H49       1.0  0.20326  0.14965  0.05218  1.0000
  H   H50       1.0  0.05998  0.31510  0.04498  1.0000
  C   C67       1.0  0.00207  0.20664  0.01666  1.0000
  H   H51       1.0  0.00049  0.35025  0.99377  1.0000
  H   H52       1.0  0.25904  0.42961  0.98475  1.0000
  C   C68       1.0  0.22683  0.08992  0.05362  1.0000
  C   C69       1.0  0.21709  0.08617  0.06705  1.0000
  C   C70       1.0  0.21596  0.06320  0.07398  1.0000
  C   C71       1.0  0.22384  0.04408  0.06710  1.0000
  P   P1        1.0  0.20305  0.05891  0.09131  1.0000
  C   C72       1.0  0.20212  0.02803  0.09747  1.0000
  C   C73       1.0  0.22032  0.06751  0.10143  1.0000
  C   C74       1.0  0.21409  0.06271  0.11527  1.0000
  C   C75       1.0  0.22681  0.06973  0.12331  1.0000
  C   C76       1.0  0.24604  0.08126  0.11759  1.0000
  C   C77       1.0  0.25273  0.08556  0.10387  1.0000
  C   C78       1.0  0.23988  0.07880  0.09578  1.0000
  C   C79       1.0  0.18059  0.01953  0.10179  1.0000
  P   P2        1.0  0.98834  0.23863  0.99503  1.0000
  H   H53       1.0  0.30672  0.03438  0.22267  1.0000
  C   C80       1.0  0.27986  0.42267  0.01354  1.0000
  C   C81       1.0  0.22343  0.01223  0.09812  1.0000
  C   C82       1.0  0.17381  0.07632  0.09240  1.0000
  C   C83       1.0  0.15890  0.07444  0.08385  1.0000
  C   C84       1.0  0.13674  0.08873  0.08400  1.0000
  C   C85       1.0  0.12930  0.10500  0.09266  1.0000
  C   C86       1.0  0.14408  0.10710  0.10113  1.0000
  C   C87       1.0  0.16631  0.09294  0.10097  1.0000
  C   C88       1.0  0.27638  0.44717  0.20884  1.0000
  C   C89       1.0  0.10158  0.05354  0.01319  1.0000
  H   H54       1.0  0.22820  0.10771  0.04846  1.0000
  H   H55       1.0  0.21071  0.10124  0.07209  1.0000
  H   H56       1.0  0.22253  0.02620  0.07197  1.0000
  H   H57       1.0  0.19903  0.05403  0.11983  1.0000
  H   H58       1.0  0.22159  0.06663  0.13398  1.0000
  H   H59       1.0  0.25545  0.08736  0.12378  1.0000
  H   H60       1.0  0.26743  0.09487  0.09947  1.0000
  H   H61       1.0  0.24522  0.08273  0.08519  1.0000
  H   H62       1.0  0.16391  0.03134  0.10160  1.0000
  H   H63       1.0  0.06794  0.27926  0.98841  1.0000
  H   H64       1.0  0.11410  0.04375  0.00638  1.0000
  H   H65       1.0  0.21103  0.46485  0.03926  1.0000
  H   H66       1.0  0.24024  0.01850  0.09494  1.0000
  H   H67       1.0  0.16464  0.06237  0.07683  1.0000
  H   H68       1.0  0.12568  0.08793  0.07701  1.0000
  H   H69       1.0  0.11254  0.11672  0.09239  1.0000
  H   H70       1.0  0.13874  0.12051  0.10740  1.0000
  H   H71       1.0  0.17770  0.09571  0.10723  1.0000
  H   H72       1.0  0.23142  0.40466  0.99908  1.0000
  H   H73       1.0  0.09559  0.06488  0.04442  1.0000
  C   C90       1.0  0.00454  0.13700  0.01915  1.0000
  H   H74       1.0  0.24458  0.44657  0.18954  1.0000
  C   C91       1.0  0.03731  0.33803  0.99522  1.0000
  C   C92       1.0  0.08077  0.11541  0.98763  1.0000
  C   C93       1.0  0.19510  0.33239  0.01843  1.0000
  C   C94       1.0  0.05945  0.32871  0.98875  1.0000
  C   C95       1.0  0.28717  0.47093  0.07683  1.0000
  H   H75       1.0  0.02058  0.21560  0.04521  1.0000
  C   C96       1.0  0.30963  0.47607  0.07082  1.0000
  H   H76       1.0  0.29417  0.22676  0.02228  1.0000
  C   C97       1.0  0.14664  0.35108  0.97643  1.0000
  C   C98       1.0  0.23517  0.07080  0.04695  1.0000
  H   H77       1.0  0.27952  0.17103  0.03471  1.0000
  H   H78       1.0  0.11863  0.38077  0.97792  1.0000
  C   C99       1.0  0.22439  0.24935  0.05139  1.0000
  C   C100      1.0  0.28255  0.99488  0.11820  1.0000
  C   C101      1.0  0.20174  0.21401  0.03353  1.0000
  H   H79       1.0  0.28242  0.43315  0.04997  1.0000
  C   C102      1.0  0.99192  0.08251  0.99906  1.0000
  C   C103      1.0  0.16700  0.41820  0.99215  1.0000
  C   C104      1.0  0.29438  0.44269  0.04258  1.0000
  C   C105      1.0  0.18287  0.17941  0.04155  1.0000
  H   H80       1.0  0.30557  0.09586  0.12604  1.0000
  C   C106      1.0  0.22816  0.33781  0.00067  1.0000
  C   C107      1.0  0.26911  0.19975  0.04591  1.0000
  C   C108      1.0  0.30203  0.17366  0.06168  1.0000
  C   C109      1.0  0.24220  0.36259  0.04008  1.0000
  C   C110      1.0  0.22108  0.47018  0.00589  1.0000
  H   H81       1.0  0.18284  0.39971  0.01793  1.0000
  H   H82       1.0  0.30872  0.39948  0.19602  1.0000
  H   H83       1.0  0.07447  0.32494  0.99385  1.0000
  C   C111      1.0  0.30425  0.41675  0.19884  1.0000
  C   C112      1.0  0.18179  0.42472  0.04964  1.0000
  C   C113      1.0  0.28179  0.03855  0.07358  1.0000
  C   C114      1.0  0.23861  0.33933  0.06217  1.0000
  H   H84       1.0  0.27735  0.35820  0.02840  1.0000
  H   H85       1.0  0.24288  0.07370  0.03661  1.0000
  H   H86       1.0  0.20111  0.19227  0.14763  1.0000
  H   H87       1.0  0.03714  0.04531  0.01187  1.0000
  H   H88       1.0  0.23763  0.16910  0.04951  1.0000
  C   C115      1.0  0.31579  0.05572  0.10529  1.0000
  C   C116      1.0  0.11011  0.00195  0.97572  1.0000
  C   C117      1.0  0.00493  0.09600  0.98864  1.0000
  C   C118      1.0  0.26078  0.37463  0.17728  1.0000
  C   C119      1.0  0.00264  0.22444  0.04801  1.0000
  C   C120      1.0  0.24004  0.45989  0.15992  1.0000
  C   C121      1.0  0.28826  0.01984  0.06650  1.0000
  C   C122      1.0  0.16060  0.27872  0.07503  1.0000
  C   C123      1.0  0.16436  0.25586  0.07222  1.0000
  C   C124      1.0  0.16440  0.23661  0.08253  1.0000
  C   C125      1.0  0.16066  0.24012  0.09565  1.0000
  C   C126      1.0  0.15699  0.26302  0.09859  1.0000
  C   C127      1.0  0.15687  0.28232  0.08813  1.0000
  P   P3        1.0  0.15042  0.26788  0.11559  1.0000
  C   C128      1.0  0.15824  0.29604  0.11593  1.0000
  C   C129      1.0  0.11902  0.26957  0.12137  1.0000
  C   C130      1.0  0.10317  0.28127  0.11285  1.0000
  C   C131      1.0  0.07888  0.28514  0.11758  1.0000
  C   C132      1.0  0.11018  0.26185  0.13473  1.0000
  C   C133      1.0  0.18065  0.30121  0.10971  1.0000
  C   C134      1.0  0.18631  0.32342  0.10930  1.0000
  C   C135      1.0  0.16943  0.34088  0.11465  1.0000
  C   C136      1.0  0.14714  0.33591  0.12089  1.0000
  C   C137      1.0  0.14158  0.31353  0.12165  1.0000
  C   C138      1.0  0.16652  0.24411  0.12589  1.0000
  H   H89       1.0  0.16066  0.29373  0.06704  1.0000
  H   H90       1.0  0.16742  0.25299  0.06208  1.0000
  H   H91       1.0  0.16735  0.21885  0.08036  1.0000
  H   H92       1.0  0.16072  0.22483  0.10338  1.0000
  H   H93       1.0  0.15376  0.30025  0.09002  1.0000
  H   H94       1.0  0.10965  0.28801  0.10267  1.0000
  H   H95       1.0  0.06687  0.29465  0.11096  1.0000
  H   H96       1.0  0.12207  0.25373  0.14165  1.0000
  H   H97       1.0  0.20378  0.32719  0.10476  1.0000
  C   C139      1.0  0.21795  0.27202  0.05458  1.0000
  H   H98       1.0  0.13418  0.34951  0.12509  1.0000
  H   H99       1.0  0.12417  0.31022  0.12657  1.0000
  H   H100      1.0  0.14309  0.21934  0.12666  1.0000
  C   C140      1.0  0.23016  0.01392  0.00537  1.0000
  C   C141      1.0  0.24376  0.00015  0.01452  1.0000
  C   C142      1.0  0.25658  0.01081  0.02084  1.0000
  C   C143      1.0  0.25609  0.03521  0.01788  1.0000
  C   C144      1.0  0.24324  0.04908  0.00826  1.0000
  C   C145      1.0  0.22989  0.03824  0.00224  1.0000
  P   P4        1.0  0.24283  0.08057  0.00372  1.0000
  C   C146      1.0  0.26407  0.09077  0.01078  1.0000
  C   C147      1.0  0.24944  0.08647  0.98582  1.0000
  S   S35       1.0  0.31081  0.98208  0.19890  1.0000
  C   C148      1.0  0.21351  0.47223  0.14403  1.0000
  C   C149      1.0  0.15052  0.43727  0.99609  1.0000
  C   C150      1.0  0.06221  0.32459  0.97573  1.0000
  C   C151      1.0  0.21095  0.45285  0.07882  1.0000
  C   C152      1.0  0.28730  0.07850  0.01045  1.0000
  C   C153      1.0  0.99602  0.38146  0.01157  1.0000
  C   C154      1.0  0.22211  0.20201  0.03859  1.0000
  C   C155      1.0  0.25729  0.11069  0.01709  1.0000
  C   C156      1.0  0.21348  0.09522  0.00957  1.0000
  C   C157      1.0  0.20472  0.11768  0.00308  1.0000
  C   C158      1.0  0.18222  0.12920  0.00777  1.0000
  C   C159      1.0  0.16852  0.11862  0.01910  1.0000
  C   C160      1.0  0.17721  0.09646  0.02573  1.0000
  C   C161      1.0  0.19959  0.08471  0.02097  1.0000
  C   C162      1.0  0.30532  0.44890  0.15920  1.0000
  C   C163      1.0  0.22324  0.47714  0.15419  1.0000
  H   H101      1.0  0.26743  0.00002  0.02776  1.0000
  H   H102      1.0  0.26608  0.04287  0.02301  1.0000
  H   H103      1.0  0.21933  0.04843  0.99503  1.0000
  C   C164      1.0  0.30017  0.99828  0.07211  1.0000
  C   C165      1.0  0.20097  0.34916  0.02443  1.0000
  H   H104      1.0  0.10880  0.21300  0.98055  1.0000
  H   H105      1.0  0.04854  0.09029  0.01641  1.0000
  C   C166      1.0  0.16205  0.43022  0.04335  1.0000
  C   C167      1.0  0.30372  0.47762  0.02715  1.0000
  H   H106      1.0  0.23956  0.12057  0.01761  1.0000
  H   H107      1.0  0.21517  0.12627  0.99436  1.0000
  H   H108      1.0  0.17518  0.14621  0.00254  1.0000
  H   H109      1.0  0.15106  0.12752  0.02269  1.0000
  H   H110      1.0  0.16646  0.08846  0.03455  1.0000
  H   H111      1.0  0.20595  0.06749  0.02621  1.0000
  C   C168      1.0  0.06048  0.24742  0.10468  1.0000
  C   C169      1.0  0.08064  0.23053  0.10622  1.0000
  C   C170      1.0  0.10014  0.22993  0.09603  1.0000
  C   C171      1.0  0.09944  0.24597  0.08422  1.0000
  C   C172      1.0  0.07912  0.26281  0.08250  1.0000
  C   C173      1.0  0.05986  0.26377  0.09295  1.0000
  P   P5        1.0  0.07830  0.28431  0.06751  1.0000
  C   C174      1.0  0.08028  0.31212  0.07185  1.0000
  C   C175      1.0  0.10306  0.27507  0.05522  1.0000
  C   C176      1.0  0.12243  0.28717  0.05112  1.0000
  C   C177      1.0  0.14105  0.27995  0.04138  1.0000
  C   C178      1.0  0.14084  0.26020  0.03593  1.0000
  C   C179      1.0  0.12203  0.24756  0.04027  1.0000
  C   C180      1.0  0.10309  0.25511  0.04976  1.0000
  C   C181      1.0  0.06326  0.33236  0.06951  1.0000
  C   C182      1.0  0.06599  0.35382  0.07239  1.0000
  C   C183      1.0  0.08528  0.35513  0.07799  1.0000
  C   C184      1.0  0.10170  0.33490  0.08089  1.0000
  C   C185      1.0  0.09918  0.31352  0.07783  1.0000
  C   C186      1.0  0.05210  0.28587  0.06050  1.0000
  C   C187      1.0  0.03635  0.26972  0.06560  1.0000
  C   C188      1.0  0.02722  0.30518  0.04416  1.0000
  C   C189      1.0  0.04772  0.30304  0.04945  1.0000
  H   H112      1.0  0.04546  0.24801  0.11264  1.0000
  H   H113      1.0  0.08129  0.21795  0.11533  1.0000
  H   H114      1.0  0.11584  0.21692  0.09725  1.0000
  H   H115      1.0  0.11485  0.24509  0.07652  1.0000
  H   H116      1.0  0.04436  0.27714  0.09197  1.0000
  H   H117      1.0  0.12308  0.30264  0.05503  1.0000
  H   H118      1.0  0.15538  0.29005  0.03786  1.0000
  H   H119      1.0  0.15491  0.25513  0.02808  1.0000
  H   H120      1.0  0.12167  0.23236  0.03596  1.0000
  H   H121      1.0  0.08834  0.24548  0.05272  1.0000
  H   H122      1.0  0.04804  0.33204  0.06527  1.0000
  H   H123      1.0  0.08775  0.37189  0.07989  1.0000
  H   H124      1.0  0.11694  0.33606  0.08496  1.0000
  H   H125      1.0  0.11246  0.29819  0.07965  1.0000
  C   C190      1.0  0.29796  0.22169  0.00217  1.0000
  C   C191      1.0  0.25508  0.39044  0.18623  1.0000
  H   H126      1.0  0.26497  0.44421  0.08345  1.0000
  C   C192      1.0  0.15859  0.22224  0.12986  1.0000
  C   C193      1.0  0.28116  0.36445  0.20015  1.0000
  C   C194      1.0  0.20845  0.32696  0.00646  1.0000
  H   H127      1.0  0.19345  0.26368  0.12738  1.0000
  H   H128      1.0  0.99235  0.15784  0.98803  1.0000
  C   C195      1.0  0.01586  0.27183  0.06024  1.0000
  C   C196      1.0  0.20196  0.40992  0.04461  1.0000
  H   H129      1.0  0.05800  0.08828  0.03842  1.0000
  C   C197      1.0  0.07440  0.02561  0.98538  1.0000
  H   H130      1.0  0.19374  0.28809  0.10517  1.0000
  C   C198      1.0  0.28935  0.19531  0.06458  1.0000
  C   C199      1.0  0.16736  0.07141  0.98241  1.0000
  C   C200      1.0  0.28706  0.46578  0.03635  1.0000
  H   H131      1.0  0.25002  0.36201  0.00231  1.0000
  H   H132      1.0  0.14722  0.42533  0.02710  1.0000
  S   S36       1.0  0.17771  0.04140  0.98089  1.0000
  H   H133      1.0  0.21696  0.40556  0.04971  1.0000
  P   P6        1.0  0.30595  0.01003  0.10840  1.0000
  C   C201      1.0  0.07017  0.27694  0.13081  1.0000
  H   H134      1.0  0.16491  0.18678  0.14062  1.0000
  C   C202      1.0  0.08650  0.24507  0.98531  1.0000
  C   C203      1.0  0.17081  0.20375  0.13783  1.0000
  C   C204      1.0  0.18682  0.24714  0.13013  1.0000
  H   H135      1.0  0.07913  0.25926  0.14970  1.0000
  C   C205      1.0  0.08385  0.09421  0.98279  1.0000
  H   H136      1.0  0.99573  0.11049  0.98240  1.0000
  H   H137      1.0  0.17993  0.32384  0.02300  1.0000
  C   C206      1.0  0.00360  0.06404  0.00728  1.0000
  C   C207      1.0  0.22322  0.98817  0.10268  1.0000
  H   H138      1.0  0.05134  0.27994  0.13446  1.0000
  S   S37       1.0  0.13478  0.14810  0.98733  1.0000
  H   H139      1.0  0.05545  0.02801  0.98855  1.0000
  C   C208      1.0  0.31658  0.45333  0.19985  1.0000
  H   H140      1.0  0.21302  0.08989  0.98322  1.0000
  C   C209      1.0  0.25728  0.46824  0.11170  1.0000
  H   H141      1.0  0.28745  0.08233  0.98448  1.0000
  C   C210      1.0  0.28763  0.03587  0.08615  1.0000
  H   H142      1.0  0.28083  0.34149  0.17280  1.0000
  C   C211      1.0  0.22119  0.43763  0.06981  1.0000
  C   C212      1.0  0.29625  0.10528  0.02285  1.0000
  H   H143      1.0  0.17356  0.35836  0.11388  1.0000
  C   C213      1.0  0.24080  0.46868  0.05547  1.0000
  H   H144      1.0  0.21512  0.23086  0.14093  1.0000
  H   H145      1.0  0.20941  0.36086  0.05382  1.0000
  C   C214      1.0  0.04155  0.07318  0.99496  1.0000
  H   H146      1.0  0.26386  0.22518  0.05911  1.0000
  H   H147      1.0  0.16277  0.40056  0.99502  1.0000
  H   H148      1.0  0.03534  0.34137  0.00522  1.0000
  C   C215      1.0  0.19122  0.20683  0.14179  1.0000
  C   C216      1.0  0.19916  0.22852  0.13797  1.0000
  H   H149      1.0  0.29893  0.33234  0.19312  1.0000
  C   C217      1.0  0.15293  0.32779  0.97421  1.0000
  C   C218      1.0  0.30574  0.99545  0.08476  1.0000
  H   H150      1.0  0.16379  0.98893  0.10976  1.0000
  C   C219      1.0  0.29716  0.03965  0.12724  1.0000
  H   H151      1.0  0.24294  0.43377  0.05104  1.0000
  C   C220      1.0  0.27327  0.11775  0.02318  1.0000
  H   H152      1.0  0.07282  0.11658  0.99780  1.0000
  H   H153      1.0  0.24793  0.46360  0.16755  1.0000
  H   H154      1.0  0.00431  0.25059  0.03044  1.0000
  H   H155      1.0  0.27257  0.05526  0.06923  1.0000
  C   C221      1.0  0.23823  0.24579  0.03912  1.0000
  C   C222      1.0  0.20244  0.40037  0.03329  1.0000
  C   C223      1.0  0.18880  0.42202  0.98420  1.0000
  C   C224      1.0  0.22893  0.44296  0.19658  1.0000
  C   C225      1.0  0.20709  0.45661  0.19468  1.0000
  H   H156      1.0  0.23963  0.03312  0.04840  1.0000
  H   H157      1.0  0.20351  0.31429  0.00173  1.0000
  H   H158      1.0  0.28276  0.05061  0.09137  1.0000
  H   H159      1.0  0.18116  0.43139  0.05865  1.0000
  C   C226      1.0  0.27654  0.35371  0.17977  1.0000
  C   C227      1.0  0.09128  0.06520  0.03480  1.0000
  C   C228      1.0  0.29984  0.01437  0.09179  1.0000
  C   C229      1.0  0.23118  0.09020  0.97838  1.0000
  C   C230      1.0  0.29728  0.06063  0.13160  1.0000
  H   H160      1.0  0.19372  0.99707  0.19014  1.0000
  C   C231      1.0  0.27313  0.20842  0.05667  1.0000
  C   C232      1.0  0.99148  0.36123  0.03822  1.0000
  C   C233      1.0  0.26030  0.00781  0.12224  1.0000
  H   H161      1.0  0.02771  0.29145  0.01118  1.0000
  H   H162      1.0  0.02662  0.25631  0.00208  1.0000
  H   H163      1.0  0.17397  0.98032  0.21764  1.0000
  C   C234      1.0  0.18276  0.40644  0.02683  1.0000
  C   C235      1.0  0.24186  0.99624  0.12954  1.0000
  P   P7        1.0  0.22839  0.38112  0.02686  1.0000
  C   C236      1.0  0.26643  0.35343  0.03787  1.0000
  H   H164      1.0  0.28450  0.02216  0.05657  1.0000
  H   H165      1.0  0.31562  0.22610  0.99944  1.0000
  C   C237      1.0  0.22431  0.29144  0.04535  1.0000
  C   C238      1.0  0.18227  0.20265  0.03494  1.0000
  H   H166      1.0  0.24275  0.40640  0.18400  1.0000
  H   H167      1.0  0.23868  0.33342  0.99146  1.0000
  C   C239      1.0  0.08046  0.06699  0.00963  1.0000
  H   H168      1.0  0.19028  0.35322  0.03369  1.0000
  C   C240      1.0  0.21635  0.47559  0.07652  1.0000
  H   H169      1.0  0.24257  0.30326  0.02587  1.0000
  H   H170      1.0  0.30859  0.11055  0.02769  1.0000
  P   P8        1.0  0.07341  0.06868  0.99337  1.0000
  H   H171      1.0  0.28542  0.98171  0.17762  1.0000
  C   C241      1.0  0.02832  0.05931  0.00522  1.0000
  H   H172      1.0  0.29362  0.43991  0.16715  1.0000
  C   C242      1.0  0.11217  0.03877  0.98211  1.0000
  C   C243      1.0  0.22247  0.17870  0.04528  1.0000
  C   C244      1.0  0.26481  0.20951  0.99638  1.0000
  C   C245      1.0  0.18045  0.99545  0.10648  1.0000
  C   C246      1.0  0.23433  0.35431  0.00676  1.0000
  C   C247      1.0  0.15630  0.46012  0.99224  1.0000
  C   C248      1.0  0.27677  0.33797  0.04794  1.0000
  H   H173      1.0  0.31485  0.00739  0.15141  1.0000
  H   H174      1.0  0.19351  0.45817  0.02121  1.0000
  C   C249      1.0  0.24525  0.40902  0.00318  1.0000
  C   C250      1.0  0.27288  0.08584  0.97913  1.0000
  C   C251      1.0  0.22829  0.35492  0.05217  1.0000
  C   C252      1.0  0.20290  0.16752  0.04680  1.0000
  H   H175      1.0  0.25294  0.37865  0.16836  1.0000
  C   C253      1.0  0.18823  0.43432  0.21472  1.0000
  H   H176      1.0  0.28941  0.36033  0.20888  1.0000
  H   H177      1.0  0.00374  0.25942  0.06426  1.0000
  C   C254      1.0  0.26523  0.38551  0.19776  1.0000
  C   C255      1.0  0.02964  0.09135  0.98654  1.0000
  C   C256      1.0  0.22038  0.36058  0.01851  1.0000
  H   H178      1.0  0.22775  0.33371  0.07154  1.0000
  H   H179      1.0  0.01970  0.21081  0.01298  1.0000
  H   H180      1.0  0.26596  0.40289  0.03206  1.0000
  H   H181      1.0  0.29304  0.06300  0.00580  1.0000
  P   P9        1.0  0.24792  0.21612  0.03561  1.0000
  C   C257      1.0  0.23595  0.44551  0.05815  1.0000
  H   H182      1.0  0.14620  0.44119  0.04743  1.0000
  C   C258      1.0  0.98939  0.26554  0.00055  1.0000
  H   H183      1.0  0.31926  0.07197  0.04976  1.0000
  H   H184      1.0  0.99117  0.32060  0.01552  1.0000
  H   H185      1.0  0.09981  0.44867  0.98258  1.0000
  C   C259      1.0  0.31575  0.07673  0.10968  1.0000
  H   H186      1.0  0.12279  0.05156  0.98274  1.0000
  C   C260      1.0  0.29797  0.46695  0.11395  1.0000
  H   H187      1.0  0.16670  0.21170  0.03087  1.0000
  C   C261      1.0  0.26456  0.40812  0.02169  1.0000
  C   C262      1.0  0.19439  0.44488  0.98009  1.0000
  C   C263      1.0  0.17807  0.46398  0.98419  1.0000
  C   C264      1.0  0.98879  0.21607  0.05991  1.0000
  H   H188      1.0  0.29015  0.02541  0.13424  1.0000
  C   C265      1.0  0.26288  0.33101  0.06012  1.0000
  H   H189      1.0  0.22477  0.00637  0.13270  1.0000
  H   H190      1.0  0.25676  0.20446  0.98915  1.0000
  H   H191      1.0  0.29557  0.33132  0.04634  1.0000
  H   H192      1.0  0.28995  0.44137  0.99386  1.0000
  C   C266      1.0  0.16170  0.11351  0.97364  1.0000
  H   H193      1.0  0.21920  0.30898  0.04788  1.0000
  C   C267      1.0  0.30761  0.44476  0.14627  1.0000
  H   H194      1.0  0.01296  0.18132  0.03316  1.0000
  H   H195      1.0  0.16776  0.17065  0.04265  1.0000
  H   H196      1.0  0.24229  0.45934  0.11286  1.0000
  H   H197      1.0  0.29755  0.43257  0.14432  1.0000
  H   H198      1.0  0.99599  0.20058  0.06634  1.0000
  C   C268      1.0  0.31485  0.02787  0.16630  1.0000
  H   H199      1.0  0.30828  0.14820  0.04867  1.0000
  H   H200      1.0  0.31434  0.16335  0.06793  1.0000
  H   H201      1.0  0.27893  0.43728  0.12016  1.0000
  C   C269      1.0  0.08244  0.26972  0.98238  1.0000
  C   C270      1.0  0.21003  0.46499  0.01900  1.0000
  H   H202      1.0  0.20108  0.23201  0.02833  1.0000
  H   H203      1.0  0.20132  0.40716  0.98107  1.0000
  H   H204      1.0  0.29177  0.20190  0.07308  1.0000
  C   C271      1.0  0.26292  0.21625  0.01874  1.0000
  C   C272      1.0  0.28671  0.34860  0.19120  1.0000
  C   C273      1.0  0.29860  0.16515  0.05081  1.0000
  C   C274      1.0  0.27825  0.45570  0.11570  1.0000
  H   H205      1.0  0.21945  0.23446  0.05875  1.0000
  P   P10       1.0  0.25875  0.40625  0.20920  1.0000
  H   H206      1.0  0.26774  0.13268  0.02836  1.0000
  C   C275      1.0  0.10544  0.23210  0.97803  1.0000
  H   H207      1.0  0.29299  0.42838  0.01756  1.0000
  H   H208      1.0  0.99779  0.38960  0.00126  1.0000
  C   C276      1.0  0.28576  0.22207  0.01509  1.0000
  C   C277      1.0  0.99828  0.19013  0.02820  1.0000
  C   C278      1.0  0.02371  0.20495  0.98458  1.0000
  C   C279      1.0  0.30623  0.07930  0.12277  1.0000
  H   H209      1.0  0.20863  0.27436  0.06440  1.0000
  C   C280      1.0  0.31272  0.08401  0.05674  1.0000
  H   H210      1.0  0.29701  0.21501  0.98282  1.0000
  H   H211      1.0  0.20597  0.47062  0.18619  1.0000
  C   C281      1.0  0.01580  0.22906  0.98474  1.0000
  H   H212      1.0  0.99530  0.29158  0.04546  1.0000
  C   C282      1.0  0.18675  0.45236  0.20378  1.0000
  C   C283      1.0  0.28134  0.42481  0.20512  1.0000
  C   C284      1.0  0.30571  0.03731  0.11394  1.0000
  S   S38       1.0  0.21703  0.04313  0.21901  1.0000
  C   C285      1.0  0.30568  0.01982  0.98624  1.0000
  H   H213      1.0  0.16994  0.46328  0.20242  1.0000
  S   S39       1.0  0.22037  0.98594  0.97603  1.0000
  H   H214      1.0  0.25488  0.26335  0.02024  1.0000
  H   H215      1.0  0.23516  0.20490  0.01184  1.0000
  C   C286      1.0  0.28748  0.21543  0.99281  1.0000
  C   C287      1.0  0.24450  0.26544  0.02984  1.0000
  C   C288      1.0  0.08760  0.04241  0.98653  1.0000
  C   C289      1.0  0.25255  0.20986  0.00930  1.0000
  H   H216      1.0  0.31776  0.42651  0.09929  1.0000
  H   H217      1.0  0.29602  0.03437  0.16742  1.0000
  C   C290      1.0  0.99340  0.24424  0.03962  1.0000
  H   H218      1.0  0.21336  0.46721  0.99793  1.0000
  C   C291      1.0  0.99073  0.30514  0.01144  1.0000
  Fe  Fe19      1.0  0.22662  0.00365  0.22112  1.0000
  C   C292      1.0  0.21004  0.42040  0.21653  1.0000
  H   H219      1.0  0.22025  0.00567  0.00044  1.0000
  Fe  Fe20      1.0  0.25374  0.04362  0.22242  1.0000
  C   C293      1.0  0.21926  0.98860  0.17316  1.0000
  H   H220      1.0  0.15948  0.35985  0.97881  1.0000
  C   C294      1.0  0.02848  0.24559  0.97607  1.0000
  C   C295      1.0  0.12358  0.36283  0.97598  1.0000
  C   C296      1.0  0.31785  0.43174  0.03966  1.0000
  C   C297      1.0  0.20718  0.98365  0.18608  1.0000
  C   C298      1.0  0.22030  0.46851  0.02924  1.0000
  H   H221      1.0  0.17063  0.31849  0.97495  1.0000
  C   C299      1.0  0.31025  0.98629  0.00370  1.0000
  C   C300      1.0  0.04446  0.19738  0.97623  1.0000
  C   C301      1.0  0.24214  0.47665  0.02642  1.0000
  C   C302      1.0  0.31774  0.46497  0.16181  1.0000
  H   H222      1.0  0.31558  0.46857  0.17176  1.0000
  H   H223      1.0  0.05040  0.17869  0.97621  1.0000
  C   C303      1.0  0.10678  0.35132  0.97330  1.0000
  C   C304      1.0  0.09480  0.46396  0.97535  1.0000
  H   H224      1.0  0.02224  0.26432  0.97571  1.0000
  C   C305      1.0  0.98943  0.15044  0.99844  1.0000
  S   S40       1.0  0.28182  0.98266  0.98635  1.0000
  H   H225      1.0  0.07542  0.99256  0.97909  1.0000
  C   C306      1.0  0.08807  0.13541  0.97933  1.0000
  C   C307      1.0  0.12335  0.01861  0.97679  1.0000
  H   H226      1.0  0.24476  0.98116  0.01645  1.0000
  C   C308      1.0  0.20174  0.97978  0.10688  1.0000
  H   H227      1.0  0.03925  0.10237  0.97855  1.0000
  H   H228      1.0  0.19863  0.10876  0.22277  1.0000
  H   H229      1.0  0.17254  0.43133  0.22190  1.0000
  H   H230      1.0  0.06369  0.45200  0.97305  1.0000
  H   H231      1.0  0.14236  0.01594  0.97353  1.0000
  S   S41       1.0  0.14189  0.45436  0.36588  1.0000
  C   C309      1.0  0.29116  0.24477  0.33760  1.0000
  C   C310      1.0  0.28129  0.22473  0.32190  1.0000
  Fe  Fe21      1.0  0.22844  0.00952  0.43263  1.0000
  S   S42       1.0  0.21380  0.03927  0.44409  1.0000
  H   H232      1.0  0.12168  0.06418  0.28952  1.0000
  Fe  Fe22      1.0  0.25168  0.04013  0.44515  1.0000
  S   S43       1.0  0.26212  0.07658  0.44142  1.0000
  C   C311      1.0  0.02087  0.99992  0.30991  1.0000
  S   S44       1.0  0.26634  0.01229  0.43256  1.0000
  C   C312      1.0  0.30768  0.28742  0.30907  1.0000
  S   S45       1.0  0.09189  0.02365  0.34077  1.0000
  S   S46       1.0  0.08560  0.03825  0.37004  1.0000
  Fe  Fe23      1.0  0.07047  0.01408  0.36095  1.0000
  S   S47       1.0  0.03164  0.00872  0.36679  1.0000
  Fe  Fe24      1.0  0.10953  0.04509  0.35035  1.0000
  S   S48       1.0  0.11656  0.08216  0.34062  1.0000
  C   C313      1.0  0.14698  0.03172  0.29158  1.0000
  C   C314      1.0  0.08322  0.00477  0.42716  1.0000
  H   H233      1.0  0.08260  0.01282  0.41692  1.0000
  C   C315      1.0  0.11244  0.11805  0.30278  1.0000
  Fe  Fe25      1.0  0.23866  0.18810  0.30295  1.0000
  S   S49       1.0  0.27396  0.18115  0.28995  1.0000
  S   S50       1.0  0.21855  0.22416  0.30679  1.0000
  Fe  Fe26      1.0  0.23671  0.13517  0.31217  1.0000
  S   S51       1.0  0.27207  0.12492  0.29986  1.0000
  S   S52       1.0  0.22208  0.10339  0.32480  1.0000
  Fe  Fe27      1.0  0.28351  0.15351  0.30727  1.0000
  Fe  Fe28      1.0  0.25893  0.15302  0.28386  1.0000
  S   S53       1.0  0.26096  0.15001  0.26218  1.0000
  S   S54       1.0  0.24906  0.16202  0.32053  1.0000
  S   S55       1.0  0.22280  0.16181  0.29587  1.0000
  Fe  Fe29      1.0  0.21707  0.39238  0.30859  1.0000
  S   S56       1.0  0.24520  0.41364  0.30827  1.0000
  S   S57       1.0  0.17842  0.40673  0.31474  1.0000
  Fe  Fe30      1.0  0.25166  0.35373  0.29571  1.0000
  H   H234      1.0  0.09187  0.11377  0.27542  1.0000
  S   S58       1.0  0.26158  0.31958  0.28724  1.0000
  Fe  Fe31      1.0  0.26697  0.37863  0.31482  1.0000
  C   C316      1.0  0.25320  0.23172  0.34167  1.0000
  Fe  Fe32      1.0  0.25797  0.40584  0.28756  1.0000
  C   C317      1.0  0.16946  0.00767  0.39071  1.0000
  S   S59       1.0  0.23753  0.35777  0.31684  1.0000
  S   S60       1.0  0.22860  0.38662  0.28744  1.0000
  C   C318      1.0  0.29988  0.16929  0.33641  1.0000
  C   C319      1.0  0.20295  0.47665  0.42531  1.0000
  H   H235      1.0  0.05418  0.00486  0.29736  1.0000
  H   H236      1.0  0.17099  0.14471  0.22832  1.0000
  C   C320      1.0  0.23169  0.25011  0.30200  1.0000
  C   C321      1.0  0.25229  0.25119  0.29257  1.0000
  C   C322      1.0  0.26124  0.27256  0.28828  1.0000
  C   C323      1.0  0.25009  0.29293  0.29356  1.0000
  C   C324      1.0  0.22994  0.29169  0.30333  1.0000
  C   C325      1.0  0.22067  0.27042  0.30742  1.0000
  H   H237      1.0  0.26094  0.23576  0.28828  1.0000
  H   H238      1.0  0.27669  0.27341  0.28065  1.0000
  H   H239      1.0  0.22115  0.30724  0.30746  1.0000
  H   H240      1.0  0.20474  0.26976  0.31472  1.0000
  C   C326      1.0  0.26279  0.08244  0.24554  1.0000
  C   C327      1.0  0.26848  0.08096  0.25812  1.0000
  C   C328      1.0  0.26792  0.10143  0.26333  1.0000
  C   C329      1.0  0.26153  0.12372  0.25605  1.0000
  C   C330      1.0  0.25599  0.12526  0.24340  1.0000
  C   C331      1.0  0.25664  0.10474  0.23815  1.0000
  H   H241      1.0  0.27359  0.06384  0.26386  1.0000
  H   H242      1.0  0.27295  0.10000  0.27286  1.0000
  H   H243      1.0  0.25124  0.14242  0.23762  1.0000
  C   C332      1.0  0.22934  0.46722  0.23743  1.0000
  C   C333      1.0  0.22093  0.44978  0.24758  1.0000
  C   C334      1.0  0.23356  0.43963  0.25794  1.0000
  C   C335      1.0  0.25484  0.44672  0.25818  1.0000
  H   H244      1.0  0.10255  0.02977  0.43028  1.0000
  C   C336      1.0  0.04403  0.47185  0.30664  1.0000
  H   H245      1.0  0.20468  0.44386  0.24734  1.0000
  H   H246      1.0  0.22696  0.42605  0.26560  1.0000
  C   C337      1.0  0.12499  0.99130  0.28392  1.0000
  C   C338      1.0  0.04908  0.45466  0.31761  1.0000
  C   C339      1.0  0.14592  0.08814  0.33590  1.0000
  C   C340      1.0  0.15001  0.11121  0.33035  1.0000
  C   C341      1.0  0.17325  0.11629  0.32647  1.0000
  C   C342      1.0  0.19251  0.09831  0.32833  1.0000
  C   C343      1.0  0.18835  0.07538  0.33378  1.0000
  C   C344      1.0  0.16527  0.07029  0.33757  1.0000
  H   H247      1.0  0.13516  0.12521  0.32912  1.0000
  H   H248      1.0  0.17626  0.13410  0.32233  1.0000
  H   H249      1.0  0.20319  0.06142  0.33506  1.0000
  H   H250      1.0  0.16258  0.05254  0.34185  1.0000
  C   C345      1.0  0.15978  0.01549  0.30043  1.0000
  C   C346      1.0  0.00888  0.01497  0.35701  1.0000
  C   C347      1.0  0.31548  0.11426  0.42585  1.0000
  C   C348      1.0  0.13154  0.05115  0.29607  1.0000
  H   H251      1.0  0.19319  0.21634  0.27451  1.0000
  C   C349      1.0  0.99167  0.03491  0.33757  1.0000
  C   C350      1.0  0.29024  0.08389  0.43373  1.0000
  C   C351      1.0  0.24544  0.46621  0.42467  1.0000
  C   C352      1.0  0.29376  0.10734  0.43227  1.0000
  H   H252      1.0  0.30654  0.04903  0.43012  1.0000
  H   H253      1.0  0.27944  0.12036  0.43594  1.0000
  C   C353      1.0  0.19275  0.00515  0.40808  1.0000
  C   C354      1.0  0.13856  0.99915  0.26023  1.0000
  H   H254      1.0  0.19334  0.44959  0.30448  1.0000
  C   C355      1.0  0.22265  0.46088  0.42929  1.0000
  H   H255      1.0  0.09695  0.05712  0.39406  1.0000
  H   H256      1.0  0.25204  0.01304  0.25963  1.0000
  C   C356      1.0  0.31906  0.15478  0.33029  1.0000
  H   H257      1.0  0.17945  0.42123  0.43104  1.0000
  H   H258      1.0  0.24693  0.21432  0.32683  1.0000
  H   H259      1.0  0.24241  0.36213  0.22296  1.0000
  C   C357      1.0  0.15285  0.44204  0.35140  1.0000
  C   C358      1.0  0.14384  0.45157  0.33973  1.0000
  C   C359      1.0  0.15221  0.44093  0.32844  1.0000
  C   C360      1.0  0.16988  0.42092  0.32867  1.0000
  C   C361      1.0  0.17930  0.41174  0.34023  1.0000
  C   C362      1.0  0.17069  0.42217  0.35161  1.0000
  H   H260      1.0  0.14492  0.44823  0.31952  1.0000
  H   H261      1.0  0.19253  0.39604  0.34053  1.0000
  H   H262      1.0  0.17770  0.41466  0.36061  1.0000
  C   C363      1.0  0.27004  0.31049  0.33968  1.0000
  H   H263      1.0  0.13270  0.11859  0.26511  1.0000
  H   H264      1.0  0.27959  0.47002  0.24825  1.0000
  H   H265      1.0  0.31609  0.41286  0.37581  1.0000
  S   S61       1.0  0.09728  0.98257  0.36721  1.0000
  C   C364      1.0  0.12433  0.38659  0.30931  1.0000
  Fe  Fe33      1.0  0.11945  0.99363  0.34758  1.0000
  C   C365      1.0  0.17487  0.44515  0.44491  1.0000
  C   C366      1.0  0.17836  0.42280  0.44128  1.0000
  H   H266      1.0  0.15972  0.20211  0.29068  1.0000
  P   P11       1.0  0.17320  0.47126  0.43234  1.0000
  Fe  Fe34      1.0  0.21513  0.01149  0.46223  1.0000
  H   H267      1.0  0.12654  0.04717  0.40901  1.0000
  C   C367      1.0  0.24909  0.36934  0.22993  1.0000
  C   C368      1.0  0.21242  0.47007  0.28791  1.0000
  H   H268      1.0  0.17357  0.46356  0.46112  1.0000
  C   C369      1.0  0.07349  0.98430  0.43246  1.0000
  H   H269      1.0  0.26041  0.45461  0.42828  1.0000
  H   H270      1.0  0.22060  0.44484  0.43629  1.0000
  C   C370      1.0  0.26591  0.39993  0.23543  1.0000
  H   H271      1.0  0.25654  0.35681  0.26219  1.0000
  H   H272      1.0  0.29017  0.46210  0.44493  1.0000
  S   S62       1.0  0.27159  0.43365  0.27082  1.0000
  H   H273      1.0  0.26974  0.08820  0.40305  1.0000
  C   C371      1.0  0.09071  0.41643  0.31533  1.0000
  C   C372      1.0  0.28803  0.30461  0.34730  1.0000
  C   C373      1.0  0.17790  0.13169  0.23611  1.0000
  H   H274      1.0  0.31212  0.35577  0.35351  1.0000
  C   C374      1.0  0.12893  0.05411  0.30923  1.0000
  H   H275      1.0  0.13305  0.44716  0.43457  1.0000
  C   C375      1.0  0.25913  0.42692  0.40097  1.0000
  C   C376      1.0  0.26912  0.24270  0.34554  1.0000
  C   C377      1.0  0.10407  0.11591  0.28142  1.0000
  C   C378      1.0  0.11589  0.09006  0.24712  1.0000
  H   H276      1.0  0.16795  0.01117  0.38036  1.0000
  H   H277      1.0  0.30404  0.23719  0.41509  1.0000
  H   H278      1.0  0.11035  0.44941  0.29443  1.0000
  H   H279      1.0  0.30677  0.42131  0.44063  1.0000
  Fe  Fe35      1.0  0.26381  0.98645  0.45175  1.0000
  H   H280      1.0  0.17161  0.00024  0.29726  1.0000
  H   H281      1.0  0.28517  0.21789  0.31272  1.0000
  S   S63       1.0  0.25169  0.01457  0.46443  1.0000
  H   H282      1.0  0.31889  0.42145  0.39747  1.0000
  H   H283      1.0  0.29308  0.32403  0.30478  1.0000
  H   H284      1.0  0.27161  0.39484  0.25559  1.0000
  C   C379      1.0  0.03044  0.44516  0.32640  1.0000
  C   C380      1.0  0.24214  0.29663  0.35868  1.0000
  C   C381      1.0  0.13450  0.98885  0.46289  1.0000
  C   C382      1.0  0.29677  0.46010  0.29479  1.0000
  H   H285      1.0  0.29279  0.24365  0.36882  1.0000
  C   C383      1.0  0.30450  0.25958  0.39604  1.0000
  S   S64       1.0  0.28902  0.36677  0.33122  1.0000
  C   C384      1.0  0.30784  0.40673  0.33138  1.0000
  H   H286      1.0  0.18586  0.99056  0.26178  1.0000
  C   C385      1.0  0.12752  0.03751  0.44722  1.0000
  C   C386      1.0  0.08656  0.98281  0.45316  1.0000
  H   H287      1.0  0.26304  0.46330  0.28895  1.0000
  C   C387      1.0  0.14783  0.07315  0.42894  1.0000
  C   C388      1.0  0.16123  0.05090  0.43192  1.0000
  C   C389      1.0  0.15133  0.03332  0.44128  1.0000
  C   C390      1.0  0.22291  0.47354  0.38475  1.0000
  C   C391      1.0  0.00400  0.98498  0.31453  1.0000
  H   H288      1.0  0.01847  0.01637  0.31357  1.0000
  H   H289      1.0  0.30545  0.30853  0.34275  1.0000
  C   C392      1.0  0.30897  0.06716  0.42905  1.0000
  H   H290      1.0  0.15973  0.15112  0.25156  1.0000
  C   C393      1.0  0.30577  0.04479  0.46642  1.0000
  H   H291      1.0  0.28547  0.99791  0.40449  1.0000
  S   S65       1.0  0.26410  0.05578  0.23962  1.0000
  H   H292      1.0  0.27226  0.41664  0.23288  1.0000
  C   C394      1.0  0.30175  0.42149  0.39509  1.0000
  C   C395      1.0  0.04091  0.99349  0.30074  1.0000
  H   H293      1.0  0.04959  0.47039  0.34090  1.0000
  C   C396      1.0  0.26528  0.12235  0.40838  1.0000
  H   H294      1.0  0.13828  0.99033  0.42096  1.0000
  C   C397      1.0  0.31065  0.02188  0.40049  1.0000
  C   C398      1.0  0.15701  0.46721  0.42017  1.0000
  H   H295      1.0  0.15568  0.08673  0.42175  1.0000
  C   C399      1.0  0.17497  0.44670  0.45811  1.0000
  C   C400      1.0  0.30019  0.41674  0.38283  1.0000
  C   C401      1.0  0.22899  0.37723  0.36035  1.0000
  C   C402      1.0  0.23725  0.38882  0.34775  1.0000
  C   C403      1.0  0.24318  0.41126  0.34607  1.0000
  C   C404      1.0  0.24049  0.42235  0.35701  1.0000
  C   C405      1.0  0.23183  0.41098  0.36972  1.0000
  C   C406      1.0  0.22634  0.38821  0.37133  1.0000
  P   P12       1.0  0.22890  0.42521  0.38385  1.0000
  C   C407      1.0  0.20855  0.41136  0.39709  1.0000
  C   C408      1.0  0.25744  0.42264  0.38850  1.0000
  H   H296      1.0  0.10693  0.11721  0.31340  1.0000
  H   H297      1.0  0.24335  0.43113  0.40806  1.0000
  C   C409      1.0  0.30376  0.31327  0.37889  1.0000
  C   C410      1.0  0.12726  0.11882  0.27558  1.0000
  C   C411      1.0  0.27822  0.41715  0.37953  1.0000
  C   C412      1.0  0.18415  0.41697  0.39698  1.0000
  C   C413      1.0  0.16848  0.40452  0.40640  1.0000
  C   C414      1.0  0.17698  0.38643  0.41600  1.0000
  C   C415      1.0  0.20125  0.38071  0.41618  1.0000
  C   C416      1.0  0.21701  0.39299  0.40671  1.0000
  C   C417      1.0  0.21668  0.45593  0.37944  1.0000
  C   C418      1.0  0.20089  0.46246  0.37041  1.0000
  S   S66       1.0  0.28224  0.37272  0.29411  1.0000
  C   C419      1.0  0.29227  0.09641  0.36401  1.0000
  P   P13       1.0  0.07912  0.44472  0.32050  1.0000
  H   H298      1.0  0.15097  0.09361  0.23666  1.0000
  H   H299      1.0  0.22473  0.35970  0.36154  1.0000
  H   H300      1.0  0.23932  0.38026  0.33927  1.0000
  C   C420      1.0  0.24863  0.35717  0.24292  1.0000
  H   H301      1.0  0.24535  0.43967  0.35558  1.0000
  H   H302      1.0  0.21999  0.37883  0.38100  1.0000
  C   C421      1.0  0.19685  0.09868  0.25607  1.0000
  H   H303      1.0  0.14831  0.00876  0.25158  1.0000
  P   P14       1.0  0.30575  0.28815  0.37094  1.0000
  C   C422      1.0  0.16538  0.16834  0.28436  1.0000
  H   H304      1.0  0.27778  0.41346  0.36988  1.0000
  H   H305      1.0  0.17716  0.43046  0.38940  1.0000
  H   H306      1.0  0.14973  0.40868  0.40604  1.0000
  H   H307      1.0  0.16478  0.37667  0.42320  1.0000
  H   H308      1.0  0.20792  0.36641  0.42349  1.0000
  H   H309      1.0  0.23580  0.38763  0.40669  1.0000
  H   H310      1.0  0.19532  0.44933  0.36632  1.0000
  H   H311      1.0  0.12392  0.99466  0.29384  1.0000
  C   C423      1.0  0.30065  0.13208  0.38671  1.0000
  H   H312      1.0  0.22384  0.45476  0.28452  1.0000
  H   H313      1.0  0.23142  0.04727  0.27018  1.0000
  C   C424      1.0  0.18355  0.02265  0.26957  1.0000
  H   H314      1.0  0.05133  0.46932  0.36428  1.0000
  C   C425      1.0  0.01076  0.02949  0.34460  1.0000
  H   H315      1.0  0.25023  0.41980  0.33630  1.0000
  C   C426      1.0  0.13800  0.45456  0.42426  1.0000
  H   H316      1.0  0.26427  0.24968  0.35466  1.0000
  H   H317      1.0  0.31432  0.13617  0.37831  1.0000
  C   C427      1.0  0.12479  0.45188  0.41510  1.0000
  C   C428      1.0  0.29678  0.08042  0.35513  1.0000
  H   H318      1.0  0.19175  0.05105  0.30804  1.0000
  C   C429      1.0  0.27723  0.11798  0.36136  1.0000
  H   H319      1.0  0.16623  0.07992  0.29448  1.0000
  C   C430      1.0  0.24719  0.30632  0.34530  1.0000
  H   H320      1.0  0.23341  0.31085  0.33927  1.0000
  C   C431      1.0  0.11518  0.40848  0.31317  1.0000
  H   H321      1.0  0.30096  0.36718  0.39584  1.0000
  C   C432      1.0  0.22008  0.99952  0.26036  1.0000
  C   C433      1.0  0.08470  0.38007  0.30969  1.0000
  H   H322      1.0  0.12020  0.45979  0.39468  1.0000
  H   H323      1.0  0.26412  0.11191  0.33216  1.0000
  C   C434      1.0  0.26690  0.12340  0.34999  1.0000
  H   H324      1.0  0.99314  0.04651  0.32810  1.0000
  C   C435      1.0  0.27344  0.03068  0.39249  1.0000
  H   H325      1.0  0.13985  0.04037  0.32804  1.0000
  H   H326      1.0  0.23609  0.23018  0.34776  1.0000
  S   S67       1.0  0.12307  0.99902  0.39584  1.0000
  P   P15       1.0  0.30570  0.08884  0.37870  1.0000
  H   H327      1.0  0.22435  0.29364  0.36307  1.0000
  C   C436      1.0  0.19053  0.00969  0.39465  1.0000
  H   H328      1.0  0.23163  0.46522  0.33094  1.0000
  C   C437      1.0  0.11003  0.46460  0.29888  1.0000
  H   H329      1.0  0.02675  0.03689  0.34055  1.0000
  H   H330      1.0  0.26520  0.15732  0.41181  1.0000
  C   C438      1.0  0.12435  0.07776  0.43518  1.0000
  S   S68       1.0  0.22720  0.98149  0.45071  1.0000
  C   C439      1.0  0.28128  0.42620  0.40425  1.0000
  H   H331      1.0  0.13003  0.46679  0.33948  1.0000
  H   H332      1.0  0.16721  0.00617  0.32032  1.0000
  C   C440      1.0  0.13555  0.12109  0.29697  1.0000
  P   P16       1.0  0.17360  0.12420  0.27621  1.0000
  C   C441      1.0  0.19232  0.10294  0.28630  1.0000
  C   C442      1.0  0.17944  0.15356  0.27575  1.0000
  C   C443      1.0  0.19826  0.16193  0.26656  1.0000
  C   C444      1.0  0.20299  0.18457  0.26601  1.0000
  C   C445      1.0  0.18900  0.19910  0.27465  1.0000
  C   C446      1.0  0.19507  0.46711  0.29912  1.0000
  C   C447      1.0  0.13811  0.05307  0.26425  1.0000
  C   C448      1.0  0.21566  0.10573  0.28600  1.0000
  C   C449      1.0  0.23022  0.08881  0.29352  1.0000
  C   C450      1.0  0.22165  0.06911  0.30142  1.0000
  C   C451      1.0  0.19852  0.06611  0.30172  1.0000
  C   C452      1.0  0.18396  0.08285  0.29416  1.0000
  C   C453      1.0  0.15163  0.06580  0.25358  1.0000
  H   H333      1.0  0.28678  0.18951  0.35216  1.0000
  S   S69       1.0  0.13855  0.01563  0.35585  1.0000
  C   C454      1.0  0.30907  0.46641  0.30331  1.0000
  P   P17       1.0  0.15184  0.02772  0.27455  1.0000
  H   H334      1.0  0.30007  0.45028  0.35898  1.0000
  C   C455      1.0  0.30154  0.17775  0.34775  1.0000
  H   H335      1.0  0.20976  0.15081  0.25998  1.0000
  H   H336      1.0  0.21809  0.19048  0.25919  1.0000
  H   H337      1.0  0.28282  0.42938  0.41383  1.0000
  C   C456      1.0  0.19673  0.03834  0.27203  1.0000
  H   H338      1.0  0.08319  0.08139  0.25905  1.0000
  H   H339      1.0  0.22272  0.12089  0.28000  1.0000
  H   H340      1.0  0.24803  0.09120  0.29351  1.0000
  H   H341      1.0  0.23278  0.05655  0.30758  1.0000
  C   C457      1.0  0.25802  0.39069  0.22604  1.0000
  H   H342      1.0  0.26539  0.06509  0.38122  1.0000
  C   C458      1.0  0.15740  0.01879  0.31349  1.0000
  H   H343      1.0  0.18787  0.05337  0.27659  1.0000
  H   H344      1.0  0.14772  0.12254  0.30318  1.0000
  H   H345      1.0  0.03387  0.43194  0.33495  1.0000
  H   H346      1.0  0.18960  0.46241  0.33408  1.0000
  C   C459      1.0  0.07550  0.40200  0.31356  1.0000
  C   C460      1.0  0.29760  0.23548  0.32578  1.0000
  C   C461      1.0  0.09638  0.00341  0.44791  1.0000
  C   C462      1.0  0.00712  0.45310  0.32440  1.0000
  C   C463      1.0  0.19348  0.11150  0.23296  1.0000
  H   H347      1.0  0.12613  0.97913  0.24873  1.0000
  C   C464      1.0  0.09679  0.46680  0.31149  1.0000
  C   C465      1.0  0.30165  0.35217  0.39114  1.0000
  H   H348      1.0  0.17587  0.99330  0.42777  1.0000
  C   C466      1.0  0.09471  0.02568  0.47158  1.0000
  H   H349      1.0  0.98852  0.99035  0.32158  1.0000
  H   H350      1.0  0.11626  0.35535  0.30461  1.0000
  C   C467      1.0  0.16220  0.47752  0.40681  1.0000
  H   H351      1.0  0.31348  0.07188  0.22741  1.0000
  C   C468      1.0  0.30467  0.38376  0.33744  1.0000
  H   H352      1.0  0.28442  0.46114  0.33823  1.0000
  H   H353      1.0  0.05656  0.40750  0.31518  1.0000
  C   C469      1.0  0.07948  0.44255  0.33795  1.0000
  C   C470      1.0  0.09676  0.42649  0.34412  1.0000
  C   C471      1.0  0.09768  0.42599  0.35741  1.0000
  C   C472      1.0  0.08139  0.44145  0.36466  1.0000
  C   C473      1.0  0.06389  0.45718  0.35869  1.0000
  H   H354      1.0  0.31039  0.27329  0.39938  1.0000
  C   C474      1.0  0.13817  0.00374  0.27292  1.0000
  H   H355      1.0  0.18327  0.38520  0.44795  1.0000
  C   C475      1.0  0.25930  0.22277  0.32987  1.0000
  C   C476      1.0  0.11417  0.05999  0.44424  1.0000
  C   C477      1.0  0.31482  0.37335  0.34870  1.0000
  H   H356      1.0  0.10734  0.10415  0.24040  1.0000
  C   C478      1.0  0.06296  0.45775  0.34540  1.0000
  C   C479      1.0  0.17388  0.99792  0.41752  1.0000
  H   H357      1.0  0.21079  0.40664  0.22510  1.0000
  H   H358      1.0  0.23488  0.46919  0.39180  1.0000
  S   S70       1.0  0.21959  0.00831  0.41249  1.0000
  H   H359      1.0  0.09575  0.06361  0.44873  1.0000
  C   C480      1.0  0.13037  0.46185  0.40181  1.0000
  P   P18       1.0  0.11316  0.01398  0.45756  1.0000
  H   H360      1.0  0.12731  0.41914  0.31450  1.0000
  H   H361      1.0  0.11001  0.41479  0.33867  1.0000
  H   H362      1.0  0.11157  0.41416  0.36199  1.0000
  H   H363      1.0  0.08258  0.44151  0.37484  1.0000
  C   C481      1.0  0.17734  0.42627  0.46761  1.0000
  H   H364      1.0  0.20525  0.01471  0.38725  1.0000
  C   C482      1.0  0.29039  0.14913  0.39464  1.0000
  H   H365      1.0  0.25691  0.02552  0.39198  1.0000
  H   H366      1.0  0.25220  0.11831  0.41707  1.0000
  C   C483      1.0  0.27549  0.10520  0.40047  1.0000
  H   H367      1.0  0.28394  0.17451  0.33220  1.0000
  C   C484      1.0  0.20417  0.11020  0.40770  1.0000
  C   C485      1.0  0.21737  0.08980  0.41370  1.0000
  C   C486      1.0  0.22168  0.06919  0.40832  1.0000
  C   C487      1.0  0.21244  0.06874  0.39709  1.0000
  C   C488      1.0  0.19924  0.08913  0.39094  1.0000
  C   C489      1.0  0.19508  0.10989  0.39637  1.0000
  P   P19       1.0  0.18608  0.08788  0.37695  1.0000
  C   C490      1.0  0.20474  0.06606  0.36780  1.0000
  C   C491      1.0  0.15737  0.07925  0.38273  1.0000
  C   C492      1.0  0.14060  0.08467  0.37425  1.0000
  C   C493      1.0  0.11873  0.07707  0.37842  1.0000
  C   C494      1.0  0.11354  0.06380  0.39102  1.0000
  C   C495      1.0  0.13019  0.05826  0.39947  1.0000
  C   C496      1.0  0.15212  0.06577  0.39533  1.0000
  C   C497      1.0  0.19516  0.04846  0.36438  1.0000
  C   C498      1.0  0.20991  0.03043  0.35834  1.0000
  C   C499      1.0  0.23432  0.03000  0.35550  1.0000
  C   C500      1.0  0.24398  0.04764  0.35869  1.0000
  C   C501      1.0  0.22927  0.06565  0.36478  1.0000
  C   C502      1.0  0.18257  0.11664  0.36665  1.0000
  C   C503      1.0  0.19894  0.12210  0.35517  1.0000
  C   C504      1.0  0.19552  0.14411  0.34707  1.0000
  C   C505      1.0  0.17591  0.16096  0.35039  1.0000
  C   C506      1.0  0.15962  0.15580  0.36189  1.0000
  C   C507      1.0  0.16291  0.13374  0.36999  1.0000
  H   H368      1.0  0.20095  0.12622  0.41186  1.0000
  H   H369      1.0  0.22429  0.08986  0.42255  1.0000
  H   H370      1.0  0.23197  0.05339  0.41296  1.0000
  H   H371      1.0  0.21535  0.05232  0.39334  1.0000
  H   H372      1.0  0.18477  0.12580  0.39195  1.0000
  H   H373      1.0  0.14462  0.09417  0.36427  1.0000
  H   H374      1.0  0.10611  0.08093  0.37169  1.0000
  H   H375      1.0  0.16517  0.06025  0.40177  1.0000
  H   H376      1.0  0.17632  0.04838  0.36641  1.0000
  H   H377      1.0  0.20231  0.01685  0.35584  1.0000
  H   H378      1.0  0.24571  0.01606  0.35079  1.0000
  H   H379      1.0  0.26288  0.04729  0.35645  1.0000
  H   H380      1.0  0.23696  0.07927  0.36714  1.0000
  H   H381      1.0  0.21407  0.10931  0.35219  1.0000
  H   H382      1.0  0.20779  0.14780  0.33798  1.0000
  H   H383      1.0  0.17325  0.17787  0.34395  1.0000
  H   H384      1.0  0.14428  0.16878  0.36441  1.0000
  H   H385      1.0  0.14996  0.12991  0.37878  1.0000
  H   H386      1.0  0.29636  0.16601  0.39237  1.0000
  H   H387      1.0  0.07881  0.11295  0.29958  1.0000
  H   H388      1.0  0.30015  0.41492  0.32267  1.0000
  C   C508      1.0  0.09458  0.01435  0.43483  1.0000
  C   C509      1.0  0.25688  0.36628  0.25213  1.0000
  H   H389      1.0  0.17066  0.06112  0.25153  1.0000
  C   C510      1.0  0.30262  0.45936  0.43600  1.0000
  C   C511      1.0  0.18096  0.11872  0.25936  1.0000
  H   H390      1.0  0.28914  0.47688  0.37565  1.0000
  C   C512      1.0  0.28959  0.01508  0.39954  1.0000
  H   H391      1.0  0.16229  0.01651  0.44372  1.0000
  H   H392      1.0  0.29295  0.28181  0.30643  1.0000
  H   H393      1.0  0.17931  0.04715  0.42688  1.0000
  C   C513      1.0  0.26004  0.29082  0.36637  1.0000
  C   C514      1.0  0.28325  0.29432  0.36066  1.0000
  C   C515      1.0  0.15277  0.99597  0.41360  1.0000
  H   H394      1.0  0.27127  0.06612  0.46872  1.0000
  C   C516      1.0  0.30763  0.31146  0.30820  1.0000
  C   C517      1.0  0.30123  0.26176  0.38290  1.0000
  H   H395      1.0  0.99269  0.44640  0.33148  1.0000
  C   C518      1.0  0.30066  0.23909  0.40510  1.0000
  C   C519      1.0  0.29334  0.22072  0.40118  1.0000
  C   C520      1.0  0.29023  0.22265  0.38812  1.0000
  C   C521      1.0  0.29439  0.24294  0.37899  1.0000
  H   H396      1.0  0.27369  0.31878  0.32945  1.0000
  C   C522      1.0  0.12602  0.98236  0.25856  1.0000
  C   C523      1.0  0.28672  0.08612  0.34365  1.0000
  C   C524      1.0  0.28426  0.35187  0.38384  1.0000
  C   C525      1.0  0.28522  0.33247  0.37776  1.0000
  H   H397      1.0  0.25549  0.14014  0.34793  1.0000
  C   C526      1.0  0.10910  0.37236  0.30757  1.0000
  H   H398      1.0  0.30309  0.25379  0.34061  1.0000
  H   H399      1.0  0.11686  0.06884  0.31285  1.0000
  C   C527      1.0  0.26545  0.38766  0.24839  1.0000
  H   H400      1.0  0.14330  0.38067  0.30774  1.0000
  C   C528      1.0  0.27840  0.05301  0.38631  1.0000
  H   H401      1.0  0.25578  0.28365  0.37678  1.0000
  C   C529      1.0  0.27249  0.46787  0.29566  1.0000
  H   H402      1.0  0.15091  0.16251  0.29163  1.0000
  H   H403      1.0  0.10260  0.04851  0.27397  1.0000
  H   H404      1.0  0.29078  0.20471  0.40817  1.0000
  H   H405      1.0  0.28527  0.20815  0.38493  1.0000
  H   H406      1.0  0.25243  0.10621  0.22840  1.0000
  H   H407      1.0  0.98634  0.99413  0.37163  1.0000
  H   H408      1.0  0.21502  0.07937  0.24052  1.0000
  H   H409      1.0  0.99963  0.98887  0.41340  1.0000
  H   H410      1.0  0.27020  0.36679  0.38274  1.0000
  H   H411      1.0  0.27174  0.33285  0.37200  1.0000
  C   C530      1.0  0.17019  0.19099  0.28380  1.0000
  H   H412      1.0  0.20533  0.08628  0.26348  1.0000
  C   C531      1.0  0.22133  0.03484  0.26851  1.0000
  C   C532      1.0  0.26313  0.46443  0.24812  1.0000
  H   H413      1.0  0.24184  0.34065  0.24590  1.0000
  C   C533      1.0  0.17155  0.13524  0.24927  1.0000
  C   C534      1.0  0.27274  0.14429  0.40548  1.0000
  C   C535      1.0  0.27174  0.10755  0.34111  1.0000
  H   H414      1.0  0.29057  0.07405  0.33663  1.0000
  C   C536      1.0  0.28857  0.46701  0.35702  1.0000
  C   C537      1.0  0.14195  0.03803  0.31788  1.0000
  C   C538      1.0  0.14050  0.08422  0.24506  1.0000
  C   C539      1.0  0.00222  0.47044  0.31360  1.0000
  C   C540      1.0  0.11335  0.05873  0.26609  1.0000
  H   H415      1.0  0.31887  0.25110  0.26766  1.0000
  C   C541      1.0  0.15036  0.00099  0.40018  1.0000
  Fe  Fe36      1.0  0.11391  0.00740  0.37496  1.0000
  C   C542      1.0  0.18073  0.40239  0.45080  1.0000
  H   H416      1.0  0.11001  0.44235  0.41830  1.0000
  C   C543      1.0  0.20271  0.09490  0.24297  1.0000
  C   C544      1.0  0.29986  0.05976  0.38682  1.0000
  H   H417      1.0  0.27355  0.13079  0.36792  1.0000
  C   C545      1.0  0.19541  0.00310  0.26375  1.0000
  C   C546      1.0  0.29318  0.11004  0.38952  1.0000
  C   C547      1.0  0.23300  0.01547  0.26262  1.0000
  C   C548      1.0  0.09668  0.11550  0.29501  1.0000
  C   C549      1.0  0.14316  0.12163  0.28331  1.0000
  C   C550      1.0  0.10231  0.07727  0.25762  1.0000
  H   H418      1.0  0.11392  0.09501  0.43286  1.0000
  H   H419      1.0  0.07290  0.36898  0.30837  1.0000
  H   H420      1.0  0.13061  0.47678  0.46750  1.0000
  H   H421      1.0  0.30842  0.06374  0.35698  1.0000
  C   C551      1.0  0.31219  0.43628  0.43359  1.0000
  C   C552      1.0  0.98788  0.00560  0.36213  1.0000
  C   C553      1.0  0.18010  0.40412  0.46398  1.0000
  C   C554      1.0  0.25038  0.47474  0.23778  1.0000
  H   H422      1.0  0.30598  0.44924  0.28747  1.0000
  C   C555      1.0  0.28015  0.47357  0.34504  1.0000
  C   C556      1.0  0.14887  0.47486  0.39771  1.0000
  H   H423      1.0  0.31133  0.05462  0.45672  1.0000
  H   H424      1.0  0.31782  0.13244  0.42466  1.0000
  C   C557      1.0  0.31580  0.04413  0.39417  1.0000
  H   H425      1.0  0.31332  0.01160  0.44960  1.0000
  S   S71       1.0  0.26208  0.00411  0.22592  1.0000
  H   H426      1.0  0.31410  0.98780  0.43265  1.0000
  S   S72       1.0  0.31807  0.14573  0.31528  1.0000
  H   H427      1.0  0.98974  0.01165  0.39208  1.0000
  H   H428      1.0  0.22923  0.98457  0.25573  1.0000
  H   H429      1.0  0.06329  0.01239  0.47042  1.0000
  H   H430      1.0  0.18205  0.38831  0.47136  1.0000
  Fe  Fe37      1.0  0.28530  0.04139  0.70144  1.0000
  S   S73       1.0  0.25158  0.04649  0.71598  1.0000
  Fe  Fe38      1.0  0.26768  0.00595  0.68887  1.0000
  S   S74       1.0  0.23322  0.00803  0.70296  1.0000
  H   H431      1.0  0.01268  0.16892  0.58112  1.0000
  Fe  Fe39      1.0  0.23275  0.04727  0.69911  1.0000
  S   S75       1.0  0.19701  0.07000  0.69684  1.0000
  C   C558      1.0  0.24956  0.12008  0.71610  1.0000
  C   C559      1.0  0.27488  0.09471  0.64853  1.0000
  S   S76       1.0  0.26609  0.04542  0.68425  1.0000
  Fe  Fe40      1.0  0.13067  0.16478  0.64431  1.0000
  S   S77       1.0  0.13339  0.19028  0.62502  1.0000
  S   S78       1.0  0.16679  0.15254  0.65063  1.0000
  Fe  Fe41      1.0  0.07745  0.16855  0.64588  1.0000
  S   S79       1.0  0.07699  0.19429  0.62703  1.0000
  S   S80       1.0  0.04262  0.15773  0.65695  1.0000
  Fe  Fe42      1.0  0.10931  0.17012  0.61929  1.0000
  S   S81       1.0  0.11687  0.16134  0.59852  1.0000
  Fe  Fe43      1.0  0.10098  0.21226  0.63452  1.0000
  S   S82       1.0  0.09452  0.25275  0.63018  1.0000
  S   S83       1.0  0.10871  0.14308  0.63782  1.0000
  S   S84       1.0  0.09936  0.18795  0.65417  1.0000
  Fe  Fe44      1.0  0.12140  0.40428  0.63165  1.0000
  S   S85       1.0  0.10439  0.43421  0.64237  1.0000
  S   S86       1.0  0.14419  0.40666  0.61145  1.0000
  Fe  Fe45      1.0  0.10769  0.36667  0.65545  1.0000
  S   S87       1.0  0.08994  0.39401  0.66835  1.0000
  S   S88       1.0  0.11120  0.32703  0.66312  1.0000
  Fe  Fe46      1.0  0.07496  0.41268  0.65006  1.0000
  S   S89       1.0  0.03753  0.43039  0.64825  1.0000
  Fe  Fe47      1.0  0.12096  0.41345  0.65970  1.0000
  S   S90       1.0  0.14704  0.42898  0.66801  1.0000
  S   S91       1.0  0.09087  0.38440  0.63783  1.0000
  S   S92       1.0  0.13974  0.38433  0.64835  1.0000
  Fe  Fe48      1.0  0.11832  0.00836  0.55972  1.0000
  S   S93       1.0  0.12507  0.04569  0.55481  1.0000
  C   C560      1.0  0.09571  0.47675  0.47904  1.0000
  Fe  Fe49      1.0  0.06572  0.02273  0.55748  1.0000
  S   S94       1.0  0.06873  0.06121  0.55205  1.0000
  S   S95       1.0  0.03192  0.00669  0.56249  1.0000
  Fe  Fe50      1.0  0.10312  0.04895  0.53904  1.0000
  S   S96       1.0  0.11647  0.06732  0.51837  1.0000
  Fe  Fe51      1.0  0.09061  0.05448  0.56822  1.0000
  S   S97       1.0  0.08192  0.07350  0.58597  1.0000
  S   S98       1.0  0.09822  0.01097  0.54328  1.0000
  S   S99       1.0  0.08579  0.01645  0.57440  1.0000
  C   C561      1.0  0.14742  0.04180  0.61657  1.0000
  C   C562      1.0  0.13654  0.04991  0.50766  1.0000
  C   C563      1.0  0.14876  0.06071  0.49568  1.0000
  C   C564      1.0  0.16444  0.04695  0.48697  1.0000
  C   C565      1.0  0.16763  0.02233  0.49015  1.0000
  C   C566      1.0  0.15508  0.01165  0.50197  1.0000
  C   C567      1.0  0.13985  0.02533  0.51073  1.0000
  H   H432      1.0  0.14615  0.07974  0.49317  1.0000
  H   H433      1.0  0.05772  0.99422  0.61420  1.0000
  H   H434      1.0  0.01732  0.28522  0.59125  1.0000
  H   H435      1.0  0.13052  0.01678  0.51980  1.0000
  C   C568      1.0  0.20116  0.99964  0.57696  1.0000
  C   C569      1.0  0.00709  0.01571  0.55429  1.0000
  H   H436      1.0  0.02286  0.04032  0.53843  1.0000
  H   H437      1.0  0.04029  0.04339  0.62671  1.0000
  H   H438      1.0  0.04551  0.45750  0.60101  1.0000
  C   C570      1.0  0.01466  0.41325  0.65283  1.0000
  C   C571      1.0  0.01501  0.39430  0.66336  1.0000
  C   C572      1.0  0.27403  0.39846  0.69430  1.0000
  C   C573      1.0  0.20035  0.11676  0.61825  1.0000
  H   H439      1.0  0.03014  0.38912  0.66835  1.0000
  H   H440      1.0  0.00854  0.16840  0.61641  1.0000
  C   C574      1.0  0.09379  0.09681  0.58927  1.0000
  C   C575      1.0  0.08886  0.10166  0.60225  1.0000
  C   C576      1.0  0.09545  0.12157  0.60514  1.0000
  C   C577      1.0  0.10792  0.13636  0.59517  1.0000
  C   C578      1.0  0.11348  0.13117  0.58225  1.0000
  C   C579      1.0  0.10636  0.11152  0.57928  1.0000
  H   H441      1.0  0.07943  0.09021  0.61010  1.0000
  H   H442      1.0  0.09095  0.12540  0.61511  1.0000
  H   H443      1.0  0.12314  0.14254  0.57448  1.0000
  H   H444      1.0  0.11023  0.10802  0.56925  1.0000
  C   C580      1.0  0.09973  0.27289  0.63951  1.0000
  C   C581      1.0  0.09304  0.29721  0.63534  1.0000
  C   C582      1.0  0.09665  0.31392  0.64235  1.0000
  C   C583      1.0  0.10652  0.30652  0.65388  1.0000
  C   C584      1.0  0.11283  0.28218  0.65822  1.0000
  C   C585      1.0  0.10973  0.26545  0.65100  1.0000
  H   H445      1.0  0.08536  0.30325  0.62648  1.0000
  H   H446      1.0  0.09165  0.33252  0.63886  1.0000
  H   H447      1.0  0.12031  0.27623  0.66718  1.0000
  H   H448      1.0  0.11498  0.24683  0.65436  1.0000
  C   C586      1.0  0.01973  0.15910  0.64789  1.0000
  C   C587      1.0  0.18045  0.42225  0.71106  1.0000
  H   H449      1.0  0.04095  0.16655  0.62866  1.0000
  C   C588      1.0  0.14288  0.43137  0.59864  1.0000
  C   C589      1.0  0.16284  0.43291  0.58879  1.0000
  H   H450      1.0  0.00760  0.47755  0.64062  1.0000
  H   H451      1.0  0.17841  0.41957  0.58944  1.0000
  H   H452      1.0  0.04855  0.14014  0.58588  1.0000
  H   H453      1.0  0.27459  0.40641  0.68400  1.0000
  H   H454      1.0  0.26614  0.09890  0.68709  1.0000
  C   C590      1.0  0.29518  0.39226  0.69936  1.0000
  C   C591      1.0  0.22771  0.04022  0.61521  1.0000
  C   C592      1.0  0.98857  0.14727  0.59385  1.0000
  C   C593      1.0  0.14772  0.44861  0.67891  1.0000
  C   C594      1.0  0.16923  0.45611  0.67867  1.0000
  H   H455      1.0  0.10702  0.44726  0.60505  1.0000
  H   H456      1.0  0.01591  0.36581  0.62572  1.0000
  H   H457      1.0  0.18460  0.45037  0.67174  1.0000
  C   C595      1.0  0.18883  0.08382  0.64092  1.0000
  C   C596      1.0  0.18927  0.09183  0.68333  1.0000
  C   C597      1.0  0.20622  0.10232  0.67375  1.0000
  C   C598      1.0  0.19904  0.12068  0.66370  1.0000
  C   C599      1.0  0.17494  0.12850  0.66301  1.0000
  C   C600      1.0  0.15806  0.11752  0.67235  1.0000
  C   C601      1.0  0.16521  0.09943  0.68251  1.0000
  H   H458      1.0  0.22479  0.09667  0.67428  1.0000
  H   H459      1.0  0.21220  0.12906  0.65649  1.0000
  H   H460      1.0  0.13947  0.12340  0.67196  1.0000
  H   H461      1.0  0.15199  0.09146  0.68990  1.0000
  C   C602      1.0  0.02363  0.16396  0.63405  1.0000
  P   P20       1.0  0.23358  0.05552  0.63759  1.0000
  C   C603      1.0  0.00918  0.24933  0.67245  1.0000
  H   H462      1.0  0.99128  0.30016  0.68885  1.0000
  C   C604      1.0  0.01241  0.33524  0.64081  1.0000
  H   H463      1.0  0.18387  0.07155  0.64978  1.0000
  C   C605      1.0  0.21355  0.00833  0.50860  1.0000
  C   C606      1.0  0.20506  0.02443  0.67432  1.0000
  C   C607      1.0  0.18613  0.03230  0.52848  1.0000
  H   H464      1.0  0.23608  0.38227  0.72258  1.0000
  C   C608      1.0  0.14178  0.09037  0.61671  1.0000
  H   H465      1.0  0.19874  0.98872  0.68096  1.0000
  C   C609      1.0  0.12851  0.05276  0.62502  1.0000
  H   H466      1.0  0.25758  0.04375  0.49081  1.0000
  H   H467      1.0  0.99401  0.15128  0.66538  1.0000
  H   H468      1.0  0.10958  0.04000  0.60420  1.0000
  C   C610      1.0  0.28730  0.11685  0.69507  1.0000
  H   H469      1.0  0.28901  0.47275  0.47907  1.0000
  C   C611      1.0  0.20503  0.42140  0.70920  1.0000
  C   C612      1.0  0.99717  0.15515  0.65468  1.0000
  H   H470      1.0  0.29025  0.22439  0.71736  1.0000
  H   H471      1.0  0.02565  0.00244  0.59159  1.0000
  H   H472      1.0  0.99830  0.09907  0.57866  1.0000
  C   C613      1.0  0.28204  0.18907  0.72246  1.0000
  C   C614      1.0  0.17799  0.12001  0.62604  1.0000
  C   C615      1.0  0.00640  0.10984  0.60532  1.0000
  H   H473      1.0  0.07380  0.47691  0.63106  1.0000
  C   C616      1.0  0.17572  0.47227  0.64183  1.0000
  C   C617      1.0  0.16953  0.00488  0.60067  1.0000
  C   C618      1.0  0.00803  0.22564  0.63570  1.0000
  C   C619      1.0  0.23701  0.46652  0.67094  1.0000
  H   H474      1.0  0.18711  0.06363  0.51368  1.0000
  C   C620      1.0  0.02027  0.34677  0.62810  1.0000
  H   H475      1.0  0.30585  0.04018  0.65736  1.0000
  H   H476      1.0  0.21471  0.05812  0.66531  1.0000
  H   H477      1.0  0.04178  0.46857  0.51833  1.0000
  H   H478      1.0  0.00189  0.34557  0.64810  1.0000
  H   H479      1.0  0.01024  0.32856  0.58959  1.0000
  H   H480      1.0  0.24319  0.10194  0.64025  1.0000
  H   H481      1.0  0.98645  0.99237  0.56849  1.0000
  C   C621      1.0  0.10409  0.03869  0.47856  1.0000
  H   H482      1.0  0.08982  0.46082  0.56063  1.0000
  C   C622      1.0  0.20865  0.99074  0.58911  1.0000
  H   H483      1.0  0.09035  0.46635  0.47307  1.0000
  H   H484      1.0  0.12017  0.46044  0.54040  1.0000
  C   C623      1.0  0.31328  0.01311  0.48462  1.0000
  C   C624      1.0  0.10231  0.46939  0.53970  1.0000
  C   C625      1.0  0.07513  0.99736  0.61459  1.0000
  C   C626      1.0  0.12800  0.45636  0.68794  1.0000
  C   C627      1.0  0.13834  0.98318  0.47604  1.0000
  C   C628      1.0  0.02025  0.22616  0.67612  1.0000
  C   C629      1.0  0.02818  0.23662  0.60477  1.0000
  C   C630      1.0  0.04618  0.24798  0.60630  1.0000
  C   C631      1.0  0.06983  0.23966  0.60156  1.0000
  C   C632      1.0  0.07573  0.21964  0.59551  1.0000
  C   C633      1.0  0.05801  0.20775  0.59436  1.0000
  C   C634      1.0  0.03430  0.21618  0.59896  1.0000
  C   C635      1.0  0.02872  0.11515  0.59916  1.0000
  H   H485      1.0  0.17393  0.05534  0.47782  1.0000
  H   H486      1.0  0.00390  0.31979  0.70438  1.0000
  C   C636      1.0  0.29269  0.07744  0.65330  1.0000
  H   H487      1.0  0.23250  0.10198  0.70563  1.0000
  H   H488      1.0  0.17210  0.01795  0.56721  1.0000
  C   C637      1.0  0.15975  0.99224  0.63021  1.0000
  H   H489      1.0  0.06034  0.44714  0.62229  1.0000
  H   H490      1.0  0.02644  0.22624  0.63157  1.0000
  C   C638      1.0  0.99601  0.12272  0.54636  1.0000
  H   H491      1.0  0.11562  0.04270  0.63133  1.0000
  C   C639      1.0  0.20609  0.99558  0.52114  1.0000
  C   C640      1.0  0.19290  0.00784  0.53117  1.0000
  H   H492      1.0  0.04202  0.26287  0.61144  1.0000
  H   H493      1.0  0.08369  0.24814  0.60307  1.0000
  H   H494      1.0  0.09413  0.21269  0.59224  1.0000
  H   H495      1.0  0.06283  0.19163  0.59019  1.0000
  H   H496      1.0  0.02090  0.20643  0.59820  1.0000
  C   C641      1.0  0.17250  0.21636  0.64103  1.0000
  C   C642      1.0  0.16476  0.21440  0.65466  1.0000
  C   C643      1.0  0.16330  0.23362  0.66092  1.0000
  C   C644      1.0  0.16959  0.25485  0.65356  1.0000
  C   C645      1.0  0.17749  0.25697  0.63984  1.0000
  C   C646      1.0  0.17873  0.23756  0.63362  1.0000
  P   P21       1.0  0.18595  0.28420  0.63017  1.0000
  C   C647      1.0  0.19252  0.30192  0.64080  1.0000
  C   C648      1.0  0.21205  0.27710  0.61821  1.0000
  C   C649      1.0  0.21550  0.29116  0.60564  1.0000
  C   C650      1.0  0.23582  0.28563  0.59645  1.0000
  C   C651      1.0  0.25284  0.26612  0.59974  1.0000
  C   C652      1.0  0.24962  0.25216  0.61227  1.0000
  C   C653      1.0  0.22935  0.25765  0.62150  1.0000
  C   C654      1.0  0.21592  0.30368  0.64121  1.0000
  C   C655      1.0  0.22052  0.31801  0.64926  1.0000
  C   C656      1.0  0.20185  0.33055  0.65697  1.0000
  C   C657      1.0  0.17856  0.32861  0.65674  1.0000
  C   C658      1.0  0.17394  0.31448  0.64863  1.0000
  C   C659      1.0  0.16259  0.30078  0.62147  1.0000
  C   C660      1.0  0.15930  0.32558  0.61888  1.0000
  C   C661      1.0  0.14183  0.33839  0.61173  1.0000
  C   C662      1.0  0.12782  0.32660  0.60687  1.0000
  C   C663      1.0  0.13127  0.30196  0.60917  1.0000
  C   C664      1.0  0.14842  0.28909  0.61654  1.0000
  H   H497      1.0  0.17358  0.20138  0.63622  1.0000
  H   H498      1.0  0.15978  0.19796  0.66033  1.0000
  H   H499      1.0  0.15696  0.23217  0.67146  1.0000
  H   H500      1.0  0.16797  0.26950  0.65865  1.0000
  H   H501      1.0  0.18451  0.23874  0.62305  1.0000
  H   H502      1.0  0.20258  0.30641  0.60291  1.0000
  H   H503      1.0  0.23832  0.29650  0.58675  1.0000
  H   H504      1.0  0.26283  0.23705  0.61484  1.0000
  H   H505      1.0  0.22719  0.24675  0.63120  1.0000
  H   H506      1.0  0.23065  0.29425  0.63529  1.0000
  H   H507      1.0  0.23857  0.31953  0.64944  1.0000
  H   H508      1.0  0.20541  0.34188  0.66305  1.0000
  H   H509      1.0  0.16395  0.33820  0.66272  1.0000
  H   H510      1.0  0.15581  0.31342  0.64838  1.0000
  H   H511      1.0  0.17016  0.33519  0.62234  1.0000
  H   H512      1.0  0.13913  0.35753  0.61001  1.0000
  H   H513      1.0  0.11414  0.33658  0.60146  1.0000
  H   H514      1.0  0.12010  0.29273  0.60568  1.0000
  H   H515      1.0  0.15024  0.27007  0.61847  1.0000
  H   H516      1.0  0.04764  0.11390  0.64393  1.0000
  C   C665      1.0  0.03107  0.13631  0.59046  1.0000
  C   C666      1.0  0.98626  0.12610  0.60265  1.0000
  C   C667      1.0  0.17804  0.01134  0.57663  1.0000
  C   C668      1.0  0.19281  0.38785  0.68670  1.0000
  C   C669      1.0  0.00518  0.16501  0.62711  1.0000
  H   H517      1.0  0.31171  0.39543  0.69301  1.0000
  C   C670      1.0  0.98828  0.11233  0.55944  1.0000
  H   H518      1.0  0.05633  0.05030  0.50232  1.0000
  H   H519      1.0  0.23441  0.09492  0.61576  1.0000
  C   C671      1.0  0.29041  0.01959  0.49134  1.0000
  C   C672      1.0  0.22994  0.42717  0.68167  1.0000
  H   H520      1.0  0.28434  0.00959  0.50090  1.0000
  H   H521      1.0  0.17859  0.45514  0.64804  1.0000
  C   C673      1.0  0.23352  0.44973  0.68239  1.0000
  C   C674      1.0  0.25246  0.39510  0.70261  1.0000
  C   C675      1.0  0.99025  0.23435  0.62796  1.0000
  P   P22       1.0  0.99757  0.24751  0.61079  1.0000
  H   H522      1.0  0.27413  0.02860  0.64912  1.0000
  H   H523      1.0  0.00997  0.21293  0.68182  1.0000
  S   S100      1.0  0.18679  0.00371  0.47990  1.0000
  H   H524      1.0  0.30232  0.11466  0.68719  1.0000
  H   H525      1.0  0.99037  0.25385  0.67572  1.0000
  C   C676      1.0  0.18866  0.34668  0.69080  1.0000
  C   C677      1.0  0.25697  0.06444  0.64334  1.0000
  H   H526      1.0  0.11134  0.45072  0.68834  1.0000
  H   H527      1.0  0.17820  0.04761  0.60156  1.0000
  C   C678      1.0  0.99517  0.38287  0.66791  1.0000
  H   H528      1.0  0.03926  0.02786  0.48994  1.0000
  C   C679      1.0  0.07115  0.02203  0.47567  1.0000
  C   C680      1.0  0.19305  0.04478  0.51588  1.0000
  C   C681      1.0  0.00583  0.30996  0.68540  1.0000
  C   C682      1.0  0.21145  0.38257  0.69396  1.0000
  H   H529      1.0  0.26508  0.01313  0.59134  1.0000
  C   C683      1.0  0.00080  0.31784  0.59785  1.0000
  C   C684      1.0  0.26699  0.10777  0.69506  1.0000
  C   C685      1.0  0.02811  0.03909  0.58965  1.0000
  C   C686      1.0  0.09021  0.04760  0.48956  1.0000
  H   H530      1.0  0.23239  0.17009  0.71712  1.0000
  H   H531      1.0  0.11097  0.08551  0.63142  1.0000
  H   H532      1.0  0.22652  0.98144  0.58939  1.0000
  C   C687      1.0  0.16363  0.05542  0.60830  1.0000
  C   C688      1.0  0.00378  0.03619  0.61562  1.0000
  C   C689      1.0  0.00417  0.10630  0.56842  1.0000
  C   C690      1.0  0.23115  0.42119  0.66918  1.0000
  C   C691      1.0  0.16548  0.43415  0.72067  1.0000
  C   C692      1.0  0.23456  0.43804  0.65771  1.0000
  C   C693      1.0  0.25921  0.02115  0.60015  1.0000
  P   P23       1.0  0.00429  0.08294  0.61715  1.0000
  H   H533      1.0  0.19903  0.02949  0.68400  1.0000
  C   C694      1.0  0.02306  0.05886  0.59585  1.0000
  C   C695      1.0  0.17219  0.10345  0.63729  1.0000
  H   H534      1.0  0.03799  0.34139  0.69691  1.0000
  H   H535      1.0  0.18671  0.40587  0.68241  1.0000
  H   H536      1.0  0.16490  0.45873  0.62676  1.0000
  H   H537      1.0  0.26853  0.26183  0.59259  1.0000
  H   H538      1.0  0.23304  0.43307  0.71580  1.0000
  C   C696      1.0  0.04462  0.21994  0.67229  1.0000
  C   C697      1.0  0.05798  0.23707  0.66516  1.0000
  C   C698      1.0  0.04700  0.26024  0.66158  1.0000
  C   C699      1.0  0.02246  0.26638  0.66479  1.0000
  H   H539      1.0  0.20479  0.12971  0.60958  1.0000
  P   P24       1.0  0.00891  0.29671  0.66088  1.0000
  H   H540      1.0  0.02567  0.13338  0.53201  1.0000
  C   C700      1.0  0.01739  0.31167  0.67220  1.0000
  C   C701      1.0  0.21704  0.09711  0.62182  1.0000
  C   C702      1.0  0.03228  0.33301  0.69007  1.0000
  C   C703      1.0  0.04434  0.33413  0.67706  1.0000
  C   C704      1.0  0.03702  0.32344  0.66817  1.0000
  C   C705      1.0  0.21382  0.04070  0.66367  1.0000
  H   H541      1.0  0.13916  0.10926  0.61645  1.0000
  C   C706      1.0  0.01847  0.31066  0.64418  1.0000
  C   C707      1.0  0.03166  0.29764  0.63450  1.0000
  C   C708      1.0  0.03952  0.30927  0.62179  1.0000
  C   C709      1.0  0.03403  0.33382  0.61863  1.0000
  C   C710      1.0  0.01961  0.12585  0.54218  1.0000
  H   H542      1.0  0.03719  0.04036  0.57950  1.0000
  H   H543      1.0  0.27464  0.11307  0.64891  1.0000
  H   H544      1.0  0.05315  0.20189  0.67492  1.0000
  H   H545      1.0  0.07692  0.23250  0.66242  1.0000
  H   H546      1.0  0.05764  0.27347  0.65639  1.0000
  C   C711      1.0  0.21273  0.99511  0.66010  1.0000
  H   H547      1.0  0.05954  0.34313  0.67385  1.0000
  H   H548      1.0  0.04700  0.32414  0.65823  1.0000
  C   C712      1.0  0.24810  0.10942  0.70556  1.0000
  C   C713      1.0  0.01071  0.05765  0.60886  1.0000
  H   H549      1.0  0.03628  0.27865  0.63675  1.0000
  H   H550      1.0  0.05046  0.29929  0.61450  1.0000
  H   H551      1.0  0.04047  0.34281  0.60885  1.0000
  C   C714      1.0  0.23731  0.46077  0.65860  1.0000
  H   H552      1.0  0.06978  0.03280  0.60387  1.0000
  H   H553      1.0  0.15498  0.10630  0.64347  1.0000
  C   C715      1.0  0.02150  0.01774  0.59648  1.0000
  C   C716      1.0  0.27456  0.04718  0.64850  1.0000
  H   H554      1.0  0.22398  0.99954  0.50068  1.0000
  C   C717      1.0  0.28881  0.12761  0.70556  1.0000
  C   C718      1.0  0.01308  0.32086  0.69426  1.0000
  H   H555      1.0  0.30624  0.08234  0.65740  1.0000
  C   C719      1.0  0.23532  0.03006  0.60379  1.0000
  C   C720      1.0  0.16076  0.07962  0.60838  1.0000
  H   H556      1.0  0.22272  0.02918  0.59772  1.0000
  C   C721      1.0  0.22098  0.01149  0.64935  1.0000
  C   C722      1.0  0.16221  0.01376  0.58840  1.0000
  C   C723      1.0  0.20699  0.03283  0.50600  1.0000
  P   P25       1.0  0.22468  0.40615  0.69673  1.0000
  C   C724      1.0  0.27534  0.03881  0.48567  1.0000
  C   C725      1.0  0.04146  0.05890  0.63044  1.0000
  H   H557      1.0  0.07402  0.07604  0.64923  1.0000
  C   C726      1.0  0.22149  0.03449  0.65106  1.0000
  C   C727      1.0  0.27368  0.37870  0.72097  1.0000
  H   H558      1.0  0.17733  0.42764  0.47778  1.0000
  C   C728      1.0  0.29498  0.38260  0.71271  1.0000
  H   H559      1.0  0.15096  0.01952  0.64246  1.0000
  C   C729      1.0  0.12581  0.07694  0.62512  1.0000
  P   P26       1.0  0.14974  0.01091  0.61572  1.0000
  H   H560      1.0  0.12924  0.99412  0.48328  1.0000
  C   C730      1.0  0.99275  0.27926  0.60962  1.0000
  C   C731      1.0  0.29733  0.20574  0.71885  1.0000
  H   H561      1.0  0.14431  0.02271  0.58786  1.0000
  C   C732      1.0  0.08196  0.01909  0.60875  1.0000
  H   H562      1.0  0.21187  0.04243  0.49614  1.0000
  C   C733      1.0  0.16294  0.45153  0.57810  1.0000
  H   H563      1.0  0.29406  0.01573  0.60505  1.0000
  C   C734      1.0  0.16396  0.98619  0.65334  1.0000
  C   C735      1.0  0.26803  0.03312  0.61920  1.0000
  H   H564      1.0  0.23344  0.45441  0.69184  1.0000
  C   C736      1.0  0.24402  0.04198  0.62297  1.0000
  S   S101      1.0  0.28959  0.00165  0.70493  1.0000
  C   C737      1.0  0.10463  0.02307  0.60896  1.0000
  C   C738      1.0  0.12998  0.47102  0.69672  1.0000
  C   C739      1.0  0.25707  0.08829  0.64356  1.0000
  C   C740      1.0  0.00720  0.03248  0.54270  1.0000
  C   C741      1.0  0.12068  0.00533  0.61513  1.0000
  C   C742      1.0  0.12265  0.44862  0.59760  1.0000
  H   H565      1.0  0.28106  0.03421  0.62491  1.0000
  C   C743      1.0  0.21148  0.08058  0.63324  1.0000
  S   S102      1.0  0.31720  0.06018  0.69846  1.0000
  H   H566      1.0  0.16523  0.13558  0.62351  1.0000
  H   H567      1.0  0.02914  0.07484  0.59047  1.0000
  S   S103      1.0  0.14994  0.97997  0.56214  1.0000
  C   C744      1.0  0.99487  0.41990  0.64647  1.0000
  C   C745      1.0  0.06083  0.07717  0.64312  1.0000
  C   C746      1.0  0.15762  0.00114  0.64196  1.0000
  H   H568      1.0  0.09755  0.05750  0.49496  1.0000
  C   C747      1.0  0.05867  0.05739  0.63822  1.0000
  C   C748      1.0  0.02776  0.10942  0.56422  1.0000
  C   C749      1.0  0.03550  0.11907  0.55109  1.0000
  H   H569      1.0  0.99983  0.46438  0.52087  1.0000
  C   C750      1.0  0.00918  0.01631  0.60944  1.0000
  H   H570      1.0  0.01731  0.11675  0.63017  1.0000
  H   H571      1.0  0.23493  0.43352  0.64814  1.0000
  C   C751      1.0  0.05973  0.46498  0.61682  1.0000
  H   H572      1.0  0.29182  0.46456  0.71392  1.0000
  Fe  Fe52      1.0  0.25474  0.00706  0.71863  1.0000
  H   H573      1.0  0.04428  0.10275  0.60113  1.0000
  H   H574      1.0  0.22930  0.40365  0.66825  1.0000
  H   H575      1.0  0.17293  0.09022  0.60178  1.0000
  H   H576      1.0  0.15731  0.99265  0.50442  1.0000
  C   C752      1.0  0.27553  0.02265  0.60786  1.0000
  C   C753      1.0  0.17115  0.47091  0.68734  1.0000
  H   H577      1.0  0.99076  0.06301  0.56852  1.0000
  H   H578      1.0  0.20909  0.04679  0.61801  1.0000
  H   H579      1.0  0.12226  0.04166  0.47563  1.0000
  H   H580      1.0  0.99441  0.03478  0.62572  1.0000
  H   H581      1.0  0.16227  0.98202  0.52827  1.0000
  H   H582      1.0  0.04021  0.10417  0.57107  1.0000
  H   H583      1.0  0.05388  0.12116  0.54782  1.0000
  C   C754      1.0  0.01094  0.15240  0.58778  1.0000
  H   H584      1.0  0.17864  0.45246  0.57063  1.0000
  C   C755      1.0  0.98713  0.03867  0.53644  1.0000
  C   C756      1.0  0.02873  0.10008  0.63238  1.0000
  C   C757      1.0  0.16802  0.47428  0.62982  1.0000
  H   H585      1.0  0.99445  0.43457  0.63834  1.0000
  H   H586      1.0  0.22751  0.00582  0.63989  1.0000
  C   C758      1.0  0.29258  0.05370  0.65321  1.0000
  H   H587      1.0  0.00380  0.99981  0.61467  1.0000
  C   C759      1.0  0.04592  0.09851  0.64017  1.0000
  H   H588      1.0  0.07031  0.04085  0.64044  1.0000
  H   H589      1.0  0.12419  0.47486  0.65251  1.0000
  S   S104      1.0  0.27778  0.98680  0.67097  1.0000
  C   C760      1.0  0.02631  0.08031  0.62747  1.0000
  C   C761      1.0  0.06692  0.04359  0.49369  1.0000
  H   H590      1.0  0.18776  0.47655  0.68700  1.0000
  H   H591      1.0  0.17967  0.33291  0.68969  1.0000
  H   H592      1.0  0.17502  0.04154  0.53607  1.0000
  C   C762      1.0  0.18149  0.37002  0.68513  1.0000
  H   H593      1.0  0.18722  0.99839  0.54096  1.0000
  C   C763      1.0  0.00227  0.21535  0.64892  1.0000
  H   H594      1.0  0.16692  0.37449  0.67963  1.0000
  C   C764      1.0  0.25251  0.38479  0.71594  1.0000
  H   H595      1.0  0.17254  0.41437  0.70495  1.0000
  H   H596      1.0  0.19962  0.98758  0.61015  1.0000
  C   C765      1.0  0.21859  0.35905  0.69961  1.0000
  C   C766      1.0  0.14293  0.46876  0.57692  1.0000
  C   C767      1.0  0.11363  0.98349  0.62097  1.0000
  C   C768      1.0  0.28305  0.05142  0.47323  1.0000
  C   C769      1.0  0.00480  0.29327  0.59886  1.0000
  H   H597      1.0  0.21310  0.99714  0.56780  1.0000
  C   C770      1.0  0.05136  0.47080  0.60482  1.0000
  H   H598      1.0  0.99514  0.36886  0.67639  1.0000
  C   C771      1.0  0.20727  0.34118  0.69799  1.0000
  C   C772      1.0  0.26978  0.12966  0.71608  1.0000
  H   H599      1.0  0.23272  0.35443  0.70535  1.0000
  C   C773      1.0  0.20471  0.00156  0.67258  1.0000
  H   H600      1.0  0.01625  0.20766  0.65460  1.0000
  H   H601      1.0  0.14650  0.43548  0.72173  1.0000
  C   C774      1.0  0.05736  0.03089  0.48673  1.0000
  C   C775      1.0  0.29739  0.45310  0.72258  1.0000
  C   C776      1.0  0.15163  0.47823  0.69657  1.0000
  C   C777      1.0  0.98666  0.00554  0.55962  1.0000
  H   H602      1.0  0.23978  0.47389  0.64974  1.0000
  C   C778      1.0  0.12255  0.46715  0.58659  1.0000
  H   H603      1.0  0.98757  0.05116  0.52729  1.0000
  H   H604      1.0  0.16212  0.99317  0.66237  1.0000
  C   C779      1.0  0.19308  0.99379  0.60091  1.0000
  H   H605      1.0  0.21274  0.32309  0.70244  1.0000
  H   H606      1.0  0.30505  0.13376  0.70550  1.0000
  C   C780      1.0  0.08519  0.46959  0.55113  1.0000
  C   C781      1.0  0.31572  0.15768  0.72292  1.0000
  C   C782      1.0  0.09095  0.97960  0.62072  1.0000
  C   C783      1.0  0.21425  0.43284  0.71711  1.0000
  H   H607      1.0  0.11471  0.47661  0.70380  1.0000
  H   H608      1.0  0.31129  0.37846  0.71672  1.0000
  H   H609      1.0  0.04250  0.47709  0.65045  1.0000
  H   H610      1.0  0.31238  0.02222  0.72294  1.0000
  S   S105      1.0  0.21032  0.01511  0.94705  1.0000
  Fe  Fe53      1.0  0.24841  0.02037  0.94337  1.0000
  H   H611      1.0  0.23534  0.98867  0.80893  1.0000
  H   H612      1.0  0.00489  0.34224  0.97112  1.0000
  S   S106      1.0  0.26246  0.98283  0.95109  1.0000
  P   P27       1.0  0.27174  0.14296  0.72989  1.0000
  H   H613      1.0  0.28845  0.05307  0.89671  1.0000
  S   S107      1.0  0.26382  0.03900  0.92308  1.0000
  C   C784      1.0  0.28871  0.43516  0.74554  1.0000
  H   H614      1.0  0.28294  0.06227  0.75575  1.0000
  H   H615      1.0  0.20648  0.45329  0.73281  1.0000
  C   C785      1.0  0.30511  0.47306  0.76773  1.0000
  H   H616      1.0  0.11886  0.98634  0.97157  1.0000
  H   H617      1.0  0.23497  0.12058  0.72431  1.0000
  C   C786      1.0  0.27628  0.98575  0.87825  1.0000
  C   C787      1.0  0.30287  0.00022  0.85361  1.0000
  C   C788      1.0  0.30161  0.47328  0.83028  1.0000
  C   C789      1.0  0.29038  0.02590  0.91390  1.0000
  C   C790      1.0  0.09379  0.09356  0.96943  1.0000
  C   C791      1.0  0.31474  0.45884  0.78965  1.0000
  C   C792      1.0  0.28625  0.08013  0.75461  1.0000
  C   C793      1.0  0.27854  0.09724  0.74431  1.0000
  C   C794      1.0  0.26080  0.01201  0.80068  1.0000
  H   H618      1.0  0.17954  0.18737  0.75016  1.0000
  H   H619      1.0  0.26520  0.98048  0.88757  1.0000
  H   H620      1.0  0.10491  0.36211  0.92278  1.0000
  H   H621      1.0  0.14123  0.29789  0.97045  1.0000
  H   H622      1.0  0.31764  0.13610  0.83240  1.0000
  H   H623      1.0  0.26338  0.09550  0.94732  1.0000
  Fe  Fe54      1.0  0.25723  0.99493  0.97081  1.0000
  H   H624      1.0  0.28301  0.03487  0.85503  1.0000
  C   C795      1.0  0.17157  0.09006  0.97202  1.0000
  H   H625      1.0  0.19237  0.18900  0.72595  1.0000
  C   C796      1.0  0.20694  0.99948  0.88914  1.0000
  C   C797      1.0  0.21306  0.01554  0.89559  1.0000
  C   C798      1.0  0.21219  0.01065  0.90929  1.0000
  C   C799      1.0  0.20423  0.99020  0.91661  1.0000
  H   H626      1.0  0.31224  0.11360  0.76859  1.0000
  C   C800      1.0  0.30363  0.04810  0.94160  1.0000
  C   C801      1.0  0.09706  0.28162  0.97187  1.0000
  C   C802      1.0  0.28288  0.12044  0.74269  1.0000
  C   C803      1.0  0.09883  0.13437  0.96624  1.0000
  H   H627      1.0  0.20699  0.16663  0.76556  1.0000
  C   C804      1.0  0.20436  0.17997  0.73268  1.0000
  H   H628      1.0  0.27353  0.37150  0.73136  1.0000
  C   C805      1.0  0.31470  0.01722  0.73320  1.0000
  C   C806      1.0  0.12011  0.24378  0.96759  1.0000
  C   C807      1.0  0.11284  0.32776  0.97123  1.0000
  C   C808      1.0  0.23622  0.09378  0.96457  1.0000
  H   H629      1.0  0.28869  0.03140  0.79094  1.0000
  C   C809      1.0  0.31210  0.42307  0.74496  1.0000
  H   H630      1.0  0.27738  0.02135  0.74082  1.0000
  S   S108      1.0  0.22184  0.44845  0.96974  1.0000
  C   C810      1.0  0.21258  0.16733  0.75499  1.0000
  H   H631      1.0  0.20735  0.00374  0.87856  1.0000
  H   H632      1.0  0.21842  0.03183  0.89001  1.0000
  H   H633      1.0  0.21737  0.02285  0.91428  1.0000
  H   H634      1.0  0.20304  0.98655  0.92728  1.0000
  H   H635      1.0  0.30393  0.07293  0.77148  1.0000
  S   S109      1.0  0.24377  0.98827  0.73948  1.0000
  C   C811      1.0  0.27251  0.00934  0.87209  1.0000
  H   H636      1.0  0.12120  0.99354  0.86950  1.0000
  H   H637      1.0  0.31867  0.44430  0.79752  1.0000
  C   C812      1.0  0.11585  0.26841  0.96445  1.0000
  C   C813      1.0  0.23524  0.15642  0.75006  1.0000
  H   H638      1.0  0.05915  0.25076  0.96114  1.0000
  H   H639      1.0  0.18198  0.08635  0.96267  1.0000
  S   S110      1.0  0.24549  0.03296  0.96280  1.0000
  H   H640      1.0  0.16491  0.12782  0.96555  1.0000
  C   C814      1.0  0.25955  0.09324  0.95802  1.0000
  H   H641      1.0  0.19342  0.46999  0.94525  1.0000
  H   H642      1.0  0.09566  0.07774  0.96527  1.0000
  H   H643      1.0  0.25941  0.02207  0.87692  1.0000
  H   H644      1.0  0.10538  0.14966  0.96004  1.0000
  C   C815      1.0  0.29502  0.01705  0.74328  1.0000
  H   H645      1.0  0.26929  0.09224  0.73762  1.0000
  C   C816      1.0  0.04235  0.32930  0.96944  1.0000
  H   H646      1.0  0.16439  0.98476  0.86887  1.0000
  C   C817      1.0  0.29800  0.01109  0.75653  1.0000
  H   H647      1.0  0.29786  0.99646  0.92924  1.0000
  C   C818      1.0  0.31768  0.02667  0.94561  1.0000
  H   H648      1.0  0.24690  0.14747  0.75696  1.0000
  H   H649      1.0  0.30906  0.01197  0.95082  1.0000
  H   H650      1.0  0.31223  0.07017  0.72605  1.0000
  S   S111      1.0  0.25120  0.46397  0.73568  1.0000
  P   P28       1.0  0.09110  0.31340  0.96728  1.0000
  H   H651      1.0  0.16317  0.45521  0.73564  1.0000
  H   H652      1.0  0.30703  0.45541  0.82829  1.0000
  C   C819      1.0  0.19713  0.17904  0.74632  1.0000
  H   H653      1.0  0.29603  0.08825  0.96027  1.0000
  C   C820      1.0  0.27788  0.08919  0.96531  1.0000
  H   H654      1.0  0.30297  0.08365  0.93108  1.0000
  H   H655      1.0  0.31505  0.25288  0.78499  1.0000
  Fe  Fe55      1.0  0.20883  0.02391  0.96726  1.0000
  H   H656      1.0  0.31043  0.43637  0.77671  1.0000
  C   C821      1.0  0.25252  0.99053  0.80298  1.0000
  H   H657      1.0  0.27628  0.43271  0.75468  1.0000
  C   C822      1.0  0.17484  0.44532  0.72851  1.0000
  C   C823      1.0  0.09128  0.32029  0.94965  1.0000
  C   C824      1.0  0.09905  0.34088  0.94214  1.0000
  C   C825      1.0  0.09890  0.34619  0.92852  1.0000
  C   C826      1.0  0.09092  0.33105  0.92231  1.0000
  C   C827      1.0  0.08305  0.31060  0.92972  1.0000
  C   C828      1.0  0.08319  0.30522  0.94333  1.0000
  H   H658      1.0  0.13482  0.23368  0.96196  1.0000
  H   H659      1.0  0.07350  0.20796  0.96143  1.0000
  C   C829      1.0  0.31401  0.06737  0.93453  1.0000
  C   C830      1.0  0.30276  0.10905  0.76182  1.0000
  C   C831      1.0  0.07445  0.46584  0.96998  1.0000
  C   C832      1.0  0.29822  0.08607  0.76341  1.0000
  H   H660      1.0  0.29853  0.14398  0.75062  1.0000
  C   C833      1.0  0.28121  0.45023  0.73438  1.0000
  C   C834      1.0  0.24257  0.15711  0.73638  1.0000
  C   C835      1.0  0.29506  0.12621  0.75155  1.0000
  H   H661      1.0  0.04382  0.32613  0.95947  1.0000
  C   C836      1.0  0.28287  0.01445  0.79286  1.0000
  C   C837      1.0  0.12836  0.98287  0.87795  1.0000
  H   H662      1.0  0.12719  0.27717  0.95620  1.0000
  C   C838      1.0  0.29114  0.16484  0.72460  1.0000
  H   H663      1.0  0.10518  0.35294  0.94673  1.0000
  C   C839      1.0  0.13608  0.31610  0.97171  1.0000
  H   H664      1.0  0.09076  0.33524  0.91176  1.0000
  H   H665      1.0  0.07674  0.29894  0.92490  1.0000
  H   H666      1.0  0.07678  0.28944  0.94895  1.0000
  H   H667      1.0  0.28459  0.04957  0.94364  1.0000
  C   C840      1.0  0.22702  0.16913  0.72772  1.0000
  C   C841      1.0  0.29848  0.03678  0.90095  1.0000
  C   C842      1.0  0.31011  0.45438  0.77792  1.0000
  C   C843      1.0  0.30359  0.00491  0.91927  1.0000
  C   C844      1.0  0.05735  0.21387  0.96785  1.0000
  C   C845      1.0  0.19922  0.44450  0.72678  1.0000
  H   H668      1.0  0.10993  0.11264  0.95111  1.0000
  H   H669      1.0  0.31752  0.41150  0.75361  1.0000
  C   C846      1.0  0.28579  0.01657  0.85978  1.0000
  H   H670      1.0  0.30088  0.46932  0.75883  1.0000
  C   C847      1.0  0.29704  0.99524  0.78748  1.0000
  H   H671      1.0  0.31256  0.22458  0.77085  1.0000
  C   C848      1.0  0.04925  0.23798  0.96770  1.0000
  H   H672      1.0  0.22206  0.09640  0.95893  1.0000
  H   H673      1.0  0.25000  0.02685  0.80484  1.0000
  C   C849      1.0  0.10157  0.11348  0.96126  1.0000
  H   H674      1.0  0.31316  0.00578  0.84403  1.0000
  H   H675      1.0  0.28243  0.01104  0.76412  1.0000
  H   H676      1.0  0.08905  0.36085  0.97291  1.0000
  H   H677      1.0  0.26322  0.19525  0.72369  1.0000
  C   C850      1.0  0.09846  0.65208  0.19830  1.0000
  H   H678      1.0  0.20159  0.96112  0.11042  1.0000
  H   H679      1.0  0.99449  0.83706  0.99694  1.0000
  S   S112      1.0  0.26690  0.53183  0.98779  1.0000
  C   C851      1.0  0.30159  0.87598  0.17413  1.0000
  C   C852      1.0  0.08160  0.62502  0.21710  1.0000
  H   H680      1.0  0.01930  0.85031  0.97582  1.0000
  C   C853      1.0  0.31581  0.52356  0.98590  1.0000
  H   H681      1.0  0.29192  0.51570  0.16690  1.0000
  Fe  Fe56      1.0  0.25865  0.53555  0.18837  1.0000
  S   S113      1.0  0.23249  0.55290  0.17498  1.0000
  S   S114      1.0  0.29615  0.54297  0.18533  1.0000
  C   C854      1.0  0.31406  0.54001  0.00953  1.0000
  H   H682      1.0  0.14486  0.62759  0.20343  1.0000
  Fe  Fe57      1.0  0.22379  0.51649  0.17679  1.0000
  Fe  Fe58      1.0  0.20655  0.55562  0.19390  1.0000
  P   P29       1.0  0.25660  0.48015  0.03945  1.0000
  S   S115      1.0  0.25202  0.49868  0.18880  1.0000
  S   S116      1.0  0.23331  0.54068  0.20723  1.0000
  H   H683      1.0  0.29871  0.49542  0.02219  1.0000
  C   C855      1.0  0.26398  0.93959  0.21218  1.0000
  C   C856      1.0  0.15540  0.54660  0.98176  1.0000
  C   C857      1.0  0.21550  0.90010  0.20539  1.0000
  H   H684      1.0  0.28984  0.47869  0.20904  1.0000
  S   S117      1.0  0.21404  0.50507  0.15930  1.0000
  C   C858      1.0  0.26733  0.95858  0.12834  1.0000
  H   H685      1.0  0.09269  0.68850  0.20067  1.0000
  C   C859      1.0  0.03763  0.57379  0.22282  1.0000
  H   H686      1.0  0.20049  0.48545  0.13953  1.0000
  C   C860      1.0  0.29087  0.61223  0.16807  1.0000
  C   C861      1.0  0.28509  0.58980  0.17385  1.0000
  C   C862      1.0  0.16310  0.61510  0.98289  1.0000
  C   C863      1.0  0.27513  0.50349  0.10453  1.0000
  H   H687      1.0  0.25785  0.93740  0.17195  1.0000
  H   H688      1.0  0.27701  0.62659  0.16551  1.0000
  H   H689      1.0  0.26691  0.58709  0.17574  1.0000
  C   C864      1.0  0.20931  0.55683  0.99244  1.0000
  H   H690      1.0  0.28489  0.54106  0.11964  1.0000
  C   C865      1.0  0.17906  0.87347  0.21643  1.0000
  C   C866      1.0  0.30725  0.95577  0.16635  1.0000
  H   H691      1.0  0.20875  0.51957  0.99682  1.0000
  H   H692      1.0  0.18679  0.92989  0.20446  1.0000
  H   H693      1.0  0.18212  0.48168  0.98107  1.0000
  C   C867      1.0  0.21119  0.65906  0.21032  1.0000
  H   H694      1.0  0.15254  0.54790  0.21148  1.0000
  C   C868      1.0  0.30417  0.59495  0.12912  1.0000
  C   C869      1.0  0.25741  0.67058  0.19547  1.0000
  H   H695      1.0  0.14172  0.53798  0.19192  1.0000
  C   C870      1.0  0.21316  0.64295  0.16079  1.0000
  H   H696      1.0  0.29184  0.90904  0.19830  1.0000
  H   H697      1.0  0.27238  0.65517  0.13894  1.0000
  C   C871      1.0  0.23757  0.97183  0.16820  1.0000
  H   H698      1.0  0.18362  0.59545  0.01351  1.0000
  C   C872      1.0  0.08971  0.67081  0.20522  1.0000
  C   C873      1.0  0.29386  0.53152  0.99313  1.0000
  C   C874      1.0  0.29311  0.53976  0.00493  1.0000
  C   C875      1.0  0.09428  0.62933  0.20414  1.0000
  C   C876      1.0  0.17001  0.59865  0.21100  1.0000
  H   H699      1.0  0.15541  0.90660  0.21431  1.0000
  H   H700      1.0  0.27625  0.54599  0.01056  1.0000
  H   H701      1.0  0.23976  0.97606  0.10299  1.0000
  C   C877      1.0  0.29085  0.52096  0.15651  1.0000
  H   H702      1.0  0.16494  0.86333  0.22075  1.0000
  C   C878      1.0  0.23125  0.64922  0.01300  1.0000
  H   H703      1.0  0.21835  0.67904  0.15401  1.0000
  H   H704      1.0  0.20968  0.60726  0.17019  1.0000
  H   H705      1.0  0.27728  0.65809  0.17769  1.0000
  H   H706      1.0  0.20890  0.48710  0.08372  1.0000
  C   C879      1.0  0.24892  0.58255  0.21999  1.0000
  H   H707      1.0  0.24767  0.97601  0.15842  1.0000
  H   H708      1.0  0.30631  0.96906  0.00856  1.0000
  C   C880      1.0  0.26902  0.61925  0.13892  1.0000
  C   C881      1.0  0.19016  0.53669  0.01318  1.0000
  C   C882      1.0  0.10597  0.55651  0.19538  1.0000
  H   H709      1.0  0.31615  0.86723  0.16770  1.0000
  C   C883      1.0  0.99339  0.83068  0.98811  1.0000
  H   H710      1.0  0.29583  0.95889  0.15904  1.0000
  C   C884      1.0  0.27600  0.61343  0.20231  1.0000
  C   C885      1.0  0.28658  0.59069  0.20721  1.0000
  C   C886      1.0  0.21048  0.64710  0.99559  1.0000
  H   H711      1.0  0.23110  0.96263  0.13826  1.0000
  C   C887      1.0  0.27528  0.67065  0.18428  1.0000
  C   C888      1.0  0.29090  0.68688  0.18145  1.0000
  C   C889      1.0  0.21698  0.66030  0.00360  1.0000
  H   H712      1.0  0.26169  0.51162  0.13366  1.0000
  C   C890      1.0  0.27574  0.51154  0.15106  1.0000
  P   P30       1.0  0.31937  0.56677  0.12514  1.0000
  C   C891      1.0  0.28577  0.97012  0.12102  1.0000
  H   H713      1.0  0.26516  0.49900  0.15722  1.0000
  H   H714      1.0  0.22334  0.61026  0.19033  1.0000
  H   H715      1.0  0.10121  0.61528  0.19846  1.0000
  H   H716      1.0  0.23862  0.59277  0.00777  1.0000
  H   H717      1.0  0.25022  0.61634  0.02167  1.0000
  H   H718      1.0  0.23890  0.86664  0.20844  1.0000
  H   H719      1.0  0.28610  0.50457  0.04958  1.0000
  C   C892      1.0  0.30278  0.57115  0.17743  1.0000
  C   C893      1.0  0.08940  0.57040  0.20347  1.0000
  P   P31       1.0  0.21035  0.60515  0.98666  1.0000
  H   H720      1.0  0.21104  0.67919  0.00247  1.0000
  H   H721      1.0  0.30515  0.58476  0.20376  1.0000
  H   H722      1.0  0.18889  0.67219  0.19535  1.0000
  H   H723      1.0  0.28679  0.62472  0.19518  1.0000
  C   C894      1.0  0.18922  0.57894  0.00980  1.0000
  C   C895      1.0  0.27094  0.70352  0.20088  1.0000
  C   C896      1.0  0.20259  0.86230  0.21473  1.0000
  C   C897      1.0  0.12859  0.54808  0.19842  1.0000
  C   C898      1.0  0.30129  0.96867  0.17686  1.0000
  H   H724      1.0  0.30090  0.71589  0.18750  1.0000
  H   H725      1.0  0.12397  0.48024  0.97608  1.0000
  C   C899      1.0  0.28874  0.70333  0.18974  1.0000
  C   C900      1.0  0.22723  0.66593  0.17344  1.0000
  C   C901      1.0  0.30461  0.53714  0.14860  1.0000
  C   C902      1.0  0.11418  0.52754  0.98448  1.0000
  C   C903      1.0  0.19000  0.66962  0.20573  1.0000
  C   C904      1.0  0.21823  0.62263  0.99696  1.0000
  H   H726      1.0  0.14598  0.54697  0.00270  1.0000
  C   C905      1.0  0.21954  0.66405  0.16196  1.0000
  H   H727      1.0  0.31008  0.60145  0.07885  1.0000
  C   C906      1.0  0.21481  0.62361  0.17101  1.0000
  H   H728      1.0  0.23162  0.68258  0.17429  1.0000
  C   C907      1.0  0.16978  0.67673  0.21463  1.0000
  H   H729      1.0  0.25037  0.48400  0.99284  1.0000
  C   C908      1.0  0.30621  0.88787  0.18335  1.0000
  C   C909      1.0  0.23236  0.61162  0.00656  1.0000
  H   H730      1.0  0.27012  0.93948  0.13067  1.0000
  H   H731      1.0  0.17125  0.55417  0.98059  1.0000
  C   C910      1.0  0.27395  0.51860  0.13772  1.0000
  C   C911      1.0  0.25267  0.48251  0.01318  1.0000
  H   H732      1.0  0.14095  0.95839  0.21912  1.0000
  H   H733      1.0  0.26900  0.48964  0.01063  1.0000
  C   C912      1.0  0.29613  0.49099  0.10852  1.0000
  H   H734      1.0  0.10850  0.65515  0.18839  1.0000
  C   C913      1.0  0.27321  0.51775  0.04490  1.0000
  H   H735      1.0  0.20691  0.64154  0.15198  1.0000
  C   C914      1.0  0.22262  0.62538  0.18247  1.0000
  H   H736      1.0  0.28560  0.54641  0.04985  1.0000
  C   C915      1.0  0.19173  0.91112  0.20713  1.0000
  H   H737      1.0  0.27413  0.52189  0.09999  1.0000
  H   H738      1.0  0.31576  0.54446  0.15320  1.0000
  C   C916      1.0  0.14115  0.54259  0.99416  1.0000
  C   C917      1.0  0.27291  0.54152  0.04509  1.0000
  C   C918      1.0  0.18008  0.58730  0.22207  1.0000
  H   H739      1.0  0.26926  0.71634  0.20728  1.0000
  H   H740      1.0  0.21963  0.55590  0.98268  1.0000
  C   C919      1.0  0.18580  0.62120  0.97873  1.0000
  C   C920      1.0  0.30325  0.54416  0.13511  1.0000
  C   C921      1.0  0.23121  0.48351  0.06491  1.0000
  Fe  Fe59      1.0  0.22445  0.50550  0.20660  1.0000
  C   C922      1.0  0.23822  0.60516  0.21498  1.0000
  H   H741      1.0  0.09795  0.52054  0.98568  1.0000
  C   C923      1.0  0.07703  0.66672  0.21804  1.0000
  H   H742      1.0  0.19946  0.65612  0.98839  1.0000
  C   C924      1.0  0.28740  0.53508  0.12979  1.0000
  C   C925      1.0  0.28756  0.89969  0.19146  1.0000
  C   C926      1.0  0.26401  0.89963  0.19043  1.0000
  C   C927      1.0  0.25955  0.88764  0.18109  1.0000
  P   P32       1.0  0.23951  0.91705  0.19961  1.0000
  C   C928      1.0  0.23133  0.94478  0.18906  1.0000
  H   H743      1.0  0.05065  0.55803  0.22200  1.0000
  C   C929      1.0  0.22888  0.64656  0.18378  1.0000
  C   C930      1.0  0.11804  0.56713  0.21776  1.0000
  C   C931      1.0  0.15249  0.61862  0.21203  1.0000
  C   C932      1.0  0.30442  0.63612  0.12946  1.0000
  H   H744      1.0  0.00891  0.55640  0.22214  1.0000
  H   H745      1.0  0.24160  0.88782  0.17987  1.0000
  H   H746      1.0  0.27138  0.94771  0.20236  1.0000
  H   H747      1.0  0.30243  0.95962  0.11752  1.0000
  H   H748      1.0  0.20585  0.95954  0.20446  1.0000
  C   C933      1.0  0.24211  0.47936  0.00300  1.0000
  C   C934      1.0  0.27306  0.57521  0.21600  1.0000
  C   C935      1.0  0.24340  0.94989  0.17602  1.0000
  C   C936      1.0  0.23894  0.62489  0.01448  1.0000
  C   C937      1.0  0.25565  0.49213  0.10619  1.0000
  C   C938      1.0  0.22074  0.87554  0.20933  1.0000
  S   S118      1.0  0.17878  0.58826  0.19578  1.0000
  H   H749      1.0  0.25102  0.62092  0.14413  1.0000
  C   C939      1.0  0.31631  0.96509  0.18614  1.0000
  C   C940      1.0  0.24538  0.97162  0.13261  1.0000
  H   H750      1.0  0.27478  0.86668  0.16579  1.0000
  C   C941      1.0  0.25690  0.51103  0.03884  1.0000
  H   H751      1.0  0.31372  0.65099  0.12736  1.0000
  C   C942      1.0  0.25172  0.62093  0.20621  1.0000
  C   C943      1.0  0.25629  0.55880  0.03926  1.0000
  C   C944      1.0  0.23987  0.55225  0.03326  1.0000
  C   C945      1.0  0.24019  0.52843  0.03303  1.0000
  P   P33       1.0  0.23736  0.64940  0.19894  1.0000
  C   C946      1.0  0.21380  0.96220  0.19413  1.0000
  C   C947      1.0  0.18313  0.55814  0.01784  1.0000
  C   C948      1.0  0.12058  0.53302  0.99553  1.0000
  H   H752      1.0  0.23646  0.65951  0.01911  1.0000
  H   H753      1.0  0.30476  0.68657  0.17282  1.0000
  C   C949      1.0  0.28050  0.59755  0.13550  1.0000
  H   H754      1.0  0.28394  0.95618  0.22168  1.0000
  H   H755      1.0  0.18566  0.52049  0.01939  1.0000
  H   H756      1.0  0.21931  0.61010  0.21769  1.0000
  C   C950      1.0  0.09516  0.57552  0.21487  1.0000
  H   H757      1.0  0.28119  0.55733  0.21939  1.0000
  H   H758      1.0  0.12719  0.62187  0.97930  1.0000
  C   C951      1.0  0.25533  0.68722  0.20376  1.0000
  C   C952      1.0  0.23543  0.59819  0.97396  1.0000
  S   S119      1.0  0.19566  0.52087  0.19460  1.0000
  C   C953      1.0  0.20317  0.53610  0.00047  1.0000
  H   H759      1.0  0.25618  0.57720  0.03944  1.0000
  H   H760      1.0  0.22695  0.56559  0.02877  1.0000
  H   H761      1.0  0.22745  0.52363  0.02834  1.0000
  H   H762      1.0  0.31321  0.54645  0.01861  1.0000
  H   H763      1.0  0.23939  0.50174  0.10307  1.0000
  C   C954      1.0  0.24775  0.92408  0.21390  1.0000
  H   H764      1.0  0.10950  0.52988  0.00514  1.0000
  H   H765      1.0  0.10159  0.55286  0.18652  1.0000
  C   C955      1.0  0.13461  0.55346  0.20956  1.0000
  H   H766      1.0  0.20678  0.84338  0.21774  1.0000
  H   H767      1.0  0.23483  0.50131  0.06335  1.0000
  C   C956      1.0  0.28100  0.63851  0.13596  1.0000
  C   C957      1.0  0.27827  0.87577  0.17304  1.0000
  H   H768      1.0  0.27091  0.58283  0.13805  1.0000
  H   H769      1.0  0.17307  0.55861  0.02771  1.0000
  H   H770      1.0  0.15338  0.68456  0.21109  1.0000
  C   C958      1.0  0.31431  0.58550  0.08580  1.0000
  H   H771      1.0  0.15963  0.60107  0.99111  1.0000
  C   C959      1.0  0.20247  0.57836  0.99704  1.0000
  H   H772      1.0  0.26203  0.59458  0.98628  1.0000
  S   S120      1.0  0.31500  0.50506  0.06940  1.0000
  C   C960      1.0  0.14458  0.62689  0.97624  1.0000
  H   H773      1.0  0.24170  0.68780  0.21241  1.0000
  H   H774      1.0  0.27331  0.48492  0.07979  1.0000
  C   C961      1.0  0.31442  0.61615  0.16557  1.0000
  H   H775      1.0  0.31101  0.50000  0.10721  1.0000
  H   H776      1.0  0.19363  0.57199  0.22135  1.0000
  H   H777      1.0  0.07247  0.57786  0.20051  1.0000
  H   H778      1.0  0.31664  0.51707  0.97684  1.0000
  C   C962      1.0  0.25859  0.59397  0.97664  1.0000
  C   C963      1.0  0.00747  0.83816  0.97608  1.0000
  C   C964      1.0  0.31431  0.58671  0.09900  1.0000
  C   C965      1.0  0.17367  0.89786  0.21269  1.0000
  H   H779      1.0  0.30963  0.60375  0.10212  1.0000
  C   C966      1.0  0.31607  0.61443  0.12606  1.0000
  Fe  Fe60      1.0  0.06871  0.51986  0.36580  1.0000
  S   S121      1.0  0.08338  0.55361  0.36326  1.0000
  S   S122      1.0  0.02890  0.51932  0.37075  1.0000
  H   H780      1.0  0.19816  0.84064  0.31724  1.0000
  S   S123      1.0  0.13633  0.52153  0.36063  1.0000
  Fe  Fe61      1.0  0.10851  0.53344  0.37707  1.0000
  S   S124      1.0  0.11581  0.54324  0.39579  1.0000
  Fe  Fe62      1.0  0.11017  0.53848  0.34712  1.0000
  S   S125      1.0  0.12385  0.55441  0.32606  1.0000
  H   H781      1.0  0.17392  0.84500  0.24469  1.0000
  H   H782      1.0  0.02658  0.72416  0.25300  1.0000
  Fe  Fe63      1.0  0.24750  0.57460  0.45025  1.0000
  C   C967      1.0  0.11322  0.96982  0.26952  1.0000
  S   S126      1.0  0.25461  0.60595  0.45827  1.0000
  Fe  Fe64      1.0  0.22237  0.55744  0.43091  1.0000
  S   S127      1.0  0.23047  0.51970  0.44066  1.0000
  S   S128      1.0  0.20868  0.56531  0.41115  1.0000
  Fe  Fe65      1.0  0.21982  0.53390  0.45986  1.0000
  H   H783      1.0  0.22931  0.89154  0.29506  1.0000
  Fe  Fe66      1.0  0.26667  0.52710  0.44036  1.0000
  C   C968      1.0  0.12102  0.52308  0.44580  1.0000
  S   S129      1.0  0.20950  0.57131  0.45018  1.0000
  S   S130      1.0  0.25920  0.56462  0.42998  1.0000
  Fe  Fe67      1.0  0.05901  0.88476  0.27393  1.0000
  S   S131      1.0  0.07690  0.86739  0.29112  1.0000
  S   S132      1.0  0.02029  0.88174  0.28055  1.0000
  Fe  Fe68      1.0  0.10471  0.90229  0.25867  1.0000
  S   S133      1.0  0.12506  0.88621  0.27523  1.0000
  S   S134      1.0  0.12097  0.92317  0.23928  1.0000
  Fe  Fe69      1.0  0.10750  0.85464  0.27638  1.0000
  S   S135      1.0  0.12347  0.81615  0.28179  1.0000
  Fe  Fe70      1.0  0.09216  0.90040  0.28844  1.0000
  S   S136      1.0  0.08283  0.91759  0.30671  1.0000
  S   S137      1.0  0.08886  0.86981  0.25910  1.0000
  S   S138      1.0  0.07285  0.91861  0.27184  1.0000
  Fe  Fe71      1.0  0.06173  0.67455  0.25428  1.0000
  S   S139      1.0  0.06064  0.69705  0.26940  1.0000
  S   S140      1.0  0.02979  0.68082  0.24399  1.0000
  Fe  Fe72      1.0  0.11350  0.65233  0.25566  1.0000
  S   S141      1.0  0.11600  0.67350  0.27088  1.0000
  H   H784      1.0  0.17940  0.82685  0.28579  1.0000
  Fe  Fe73      1.0  0.08016  0.66442  0.28019  1.0000
  S   S142      1.0  0.06850  0.65255  0.30194  1.0000
  Fe  Fe74      1.0  0.09634  0.70422  0.25866  1.0000
  S   S143      1.0  0.10309  0.74166  0.25065  1.0000
  S   S144      1.0  0.07864  0.64132  0.26591  1.0000
  S   S145      1.0  0.09662  0.68365  0.24269  1.0000
  H   H785      1.0  0.08832  0.57036  0.27814  1.0000
  H   H786      1.0  0.19198  0.89522  0.26382  1.0000
  C   C969      1.0  0.24891  0.48697  0.41583  1.0000
  P   P34       1.0  0.18960  0.87013  0.29162  1.0000
  H   H787      1.0  0.18414  0.88443  0.24388  1.0000
  H   H788      1.0  0.11549  0.59327  0.26179  1.0000
  S   S146      1.0  0.14620  0.62547  0.25059  1.0000
  C   C970      1.0  0.18183  0.50930  0.29623  1.0000
  H   H789      1.0  0.06979  0.68139  0.22325  1.0000
  C   C971      1.0  0.17771  0.84962  0.25344  1.0000
  C   C972      1.0  0.18526  0.86223  0.27655  1.0000
  H   H790      1.0  0.00188  0.79036  0.26904  1.0000
  C   C973      1.0  0.21395  0.83801  0.30992  1.0000
  C   C974      1.0  0.21475  0.84986  0.29681  1.0000
  C   C975      1.0  0.01703  0.50911  0.34828  1.0000
  C   C976      1.0  0.15122  0.95453  0.22701  1.0000
  H   H791      1.0  0.17954  0.49075  0.35975  1.0000
  H   H792      1.0  0.15901  0.49845  0.33492  1.0000
  C   C977      1.0  0.07505  0.97338  0.44548  1.0000
  H   H793      1.0  0.19167  0.51061  0.41399  1.0000
  C   C978      1.0  0.00517  0.66587  0.24866  1.0000
  C   C979      1.0  0.00611  0.64367  0.25671  1.0000
  C   C980      1.0  0.18746  0.87800  0.26448  1.0000
  H   H794      1.0  0.02212  0.63539  0.26053  1.0000
  C   C981      1.0  0.14518  0.93775  0.23826  1.0000
  C   C982      1.0  0.15833  0.93318  0.24849  1.0000
  C   C983      1.0  0.17750  0.94498  0.24740  1.0000
  H   H795      1.0  0.15361  0.92065  0.25726  1.0000
  H   H796      1.0  0.18770  0.94118  0.25531  1.0000
  C   C984      1.0  0.09937  0.93269  0.31347  1.0000
  C   C985      1.0  0.12364  0.93211  0.30921  1.0000
  C   C986      1.0  0.13628  0.94362  0.31533  1.0000
  C   C987      1.0  0.12457  0.95599  0.32561  1.0000
  C   C988      1.0  0.10018  0.95712  0.32957  1.0000
  C   C989      1.0  0.08767  0.94539  0.32356  1.0000
  H   H797      1.0  0.13263  0.92233  0.30146  1.0000
  C   C990      1.0  0.01175  0.69001  0.29356  1.0000
  H   H798      1.0  0.05931  0.96721  0.28889  1.0000
  H   H799      1.0  0.06882  0.94608  0.32682  1.0000
  C   C991      1.0  0.11731  0.79547  0.27327  1.0000
  C   C992      1.0  0.11241  0.80226  0.26041  1.0000
  C   C993      1.0  0.10849  0.78544  0.25360  1.0000
  C   C994      1.0  0.10875  0.76179  0.25969  1.0000
  C   C995      1.0  0.11354  0.75493  0.27259  1.0000
  C   C996      1.0  0.11806  0.77169  0.27931  1.0000
  H   H800      1.0  0.11207  0.82041  0.25559  1.0000
  H   H801      1.0  0.10494  0.79087  0.24360  1.0000
  H   H802      1.0  0.11409  0.73669  0.27731  1.0000
  H   H803      1.0  0.12204  0.76624  0.28922  1.0000
  C   C997      1.0  0.17662  0.83343  0.26523  1.0000
  C   C998      1.0  0.15506  0.61575  0.23517  1.0000
  C   C999      1.0  0.16351  0.95469  0.45773  1.0000
  C   C1000     1.0  0.21465  0.49266  0.28088  1.0000
  C   C1001     1.0  0.00888  0.87627  0.25710  1.0000
  H   H804      1.0  0.17106  0.53729  0.33291  1.0000
  C   C1002     1.0  0.13316  0.50422  0.43951  1.0000
  S   S147      1.0  0.09423  0.50591  0.34896  1.0000
  H   H805      1.0  0.02735  0.87597  0.25285  1.0000
  S   S148      1.0  0.21315  0.47867  0.22444  1.0000
  C   C1003     1.0  0.15689  0.52639  0.45282  1.0000
  C   C1004     1.0  0.10087  0.58824  0.25874  1.0000
  C   C1005     1.0  0.13291  0.53423  0.45242  1.0000
  C   C1006     1.0  0.21579  0.90539  0.29151  1.0000
  C   C1007     1.0  0.17002  0.96686  0.22610  1.0000
  C   C1008     1.0  0.00962  0.51280  0.36138  1.0000
  C   C1009     1.0  0.08383  0.62518  0.30851  1.0000
  C   C1010     1.0  0.10201  0.61255  0.30053  1.0000
  C   C1011     1.0  0.11394  0.59068  0.30599  1.0000
  C   C1012     1.0  0.10797  0.58147  0.31945  1.0000
  C   C1013     1.0  0.08957  0.59393  0.32736  1.0000
  C   C1014     1.0  0.07753  0.61574  0.32190  1.0000
  H   H806      1.0  0.10690  0.61965  0.29018  1.0000
  H   H807      1.0  0.12785  0.58087  0.29978  1.0000
  H   H808      1.0  0.08474  0.58692  0.33772  1.0000
  H   H809      1.0  0.06339  0.62536  0.32809  1.0000
  C   C1015     1.0  0.14230  0.54835  0.39982  1.0000
  C   C1016     1.0  0.14259  0.55034  0.41293  1.0000
  C   C1017     1.0  0.16287  0.55494  0.41664  1.0000
  C   C1018     1.0  0.18305  0.55820  0.40716  1.0000
  C   C1019     1.0  0.18278  0.55629  0.39400  1.0000
  C   C1020     1.0  0.16262  0.55120  0.39036  1.0000
  H   H810      1.0  0.12678  0.54878  0.42022  1.0000
  H   H811      1.0  0.16264  0.55671  0.42674  1.0000
  H   H812      1.0  0.19816  0.55908  0.38654  1.0000
  H   H813      1.0  0.16244  0.55031  0.38018  1.0000
  H   H814      1.0  0.02371  0.79330  0.33069  1.0000
  H   H815      1.0  0.17783  0.58122  0.31438  1.0000
  H   H816      1.0  0.17199  0.81628  0.26560  1.0000
  H   H817      1.0  0.18082  0.58713  0.24255  1.0000
  H   H818      1.0  0.13126  0.64240  0.22481  1.0000
  H   H819      1.0  0.14467  0.85066  0.29563  1.0000
  H   H820      1.0  0.22459  0.90334  0.22858  1.0000
  H   H821      1.0  0.00432  0.57315  0.33417  1.0000
  C   C1021     1.0  0.28037  0.60992  0.46369  1.0000
  H   H822      1.0  0.10253  0.52947  0.44525  1.0000
  H   H823      1.0  0.15254  0.48325  0.38747  1.0000
  H   H824      1.0  0.01954  0.67542  0.30033  1.0000
  H   H825      1.0  0.01588  0.61047  0.29615  1.0000
  H   H826      1.0  0.15469  0.67826  0.23506  1.0000
  C   C1022     1.0  0.02455  0.59340  0.30038  1.0000
  C   C1023     1.0  0.31003  0.47881  0.42712  1.0000
  H   H827      1.0  0.21841  0.52742  0.24908  1.0000
  H   H828      1.0  0.99488  0.51775  0.22837  1.0000
  H   H829      1.0  0.25666  0.70716  0.46687  1.0000
  H   H830      1.0  0.03440  0.92031  0.32152  1.0000
  H   H831      1.0  0.16909  0.52406  0.29932  1.0000
  C   C1024     1.0  0.15729  0.49618  0.43994  1.0000
  H   H832      1.0  0.24501  0.57793  0.29351  1.0000
  C   C1025     1.0  0.98865  0.77309  0.31076  1.0000
  H   H833      1.0  0.26255  0.58267  0.24541  1.0000
  C   C1026     1.0  0.00739  0.96321  0.31021  1.0000
  C   C1027     1.0  0.00430  0.78943  0.30806  1.0000
  C   C1028     1.0  0.17051  0.67323  0.22814  1.0000
  C   C1029     1.0  0.19148  0.66270  0.23278  1.0000
  C   C1030     1.0  0.19938  0.53240  0.25036  1.0000
  C   C1031     1.0  0.10922  0.50468  0.30967  1.0000
  H   H834      1.0  0.01380  0.53985  0.31798  1.0000
  H   H835      1.0  0.99051  0.79568  0.24495  1.0000
  C   C1032     1.0  0.02704  0.95735  0.30059  1.0000
  C   C1033     1.0  0.18745  0.56545  0.28386  1.0000
  C   C1034     1.0  0.17718  0.58680  0.27692  1.0000
  C   C1035     1.0  0.16721  0.60591  0.28343  1.0000
  C   C1036     1.0  0.16760  0.60393  0.29691  1.0000
  H   H836      1.0  0.17682  0.58881  0.26645  1.0000
  H   H837      1.0  0.15889  0.62218  0.27804  1.0000
  H   H838      1.0  0.15928  0.61856  0.30202  1.0000
  C   C1037     1.0  0.04436  0.77043  0.23065  1.0000
  H   H839      1.0  0.05935  0.77477  0.22320  1.0000
  H   H840      1.0  0.16725  0.95623  0.27990  1.0000
  C   C1038     1.0  0.28109  0.56836  0.31641  1.0000
  C   C1039     1.0  0.23124  0.54615  0.26905  1.0000
  H   H841      1.0  0.26590  0.93990  0.24436  1.0000
  H   H842      1.0  0.99891  0.87133  0.23923  1.0000
  C   C1040     1.0  0.19185  0.48613  0.36659  1.0000
  C   C1041     1.0  0.99508  0.81354  0.30737  1.0000
  H   H843      1.0  0.17348  0.94390  0.45055  1.0000
  H   H844      1.0  0.18746  0.50141  0.44728  1.0000
  C   C1042     1.0  0.02463  0.78767  0.23324  1.0000
  C   C1043     1.0  0.26658  0.49587  0.34197  1.0000
  H   H845      1.0  0.10893  0.52017  0.31390  1.0000
  H   H846      1.0  0.28748  0.52650  0.27511  1.0000
  H   H847      1.0  0.30364  0.58071  0.45605  1.0000
  H   H848      1.0  0.00366  0.95357  0.33903  1.0000
  H   H849      1.0  0.05732  0.53272  0.31533  1.0000
  C   C1044     1.0  0.27724  0.54568  0.32270  1.0000
  C   C1045     1.0  0.15007  0.54282  0.25359  1.0000
  C   C1046     1.0  0.18824  0.56377  0.29733  1.0000
  C   C1047     1.0  0.25000  0.54637  0.30800  1.0000
  H   H850      1.0  0.05536  0.87969  0.32133  1.0000
  C   C1048     1.0  0.08549  0.57531  0.26799  1.0000
  C   C1049     1.0  0.18342  0.96190  0.23625  1.0000
  C   C1050     1.0  0.00141  0.73210  0.28629  1.0000
  H   H851      1.0  0.10912  0.60533  0.23864  1.0000
  C   C1051     1.0  0.00129  0.50293  0.34148  1.0000
  C   C1052     1.0  0.19816  0.50357  0.37182  1.0000
  H   H852      1.0  0.01671  0.49350  0.29646  1.0000
  H   H853      1.0  0.00124  0.74995  0.28757  1.0000
  C   C1053     1.0  0.98646  0.63185  0.25946  1.0000
  H   H854      1.0  0.08005  0.56442  0.30353  1.0000
  C   C1054     1.0  0.18059  0.83960  0.27671  1.0000
  C   C1055     1.0  0.14465  0.85921  0.30384  1.0000
  C   C1056     1.0  0.00120  0.87179  0.31771  1.0000
  C   C1057     1.0  0.00145  0.91284  0.31827  1.0000
  C   C1058     1.0  0.07849  0.58842  0.24156  1.0000
  C   C1059     1.0  0.22946  0.50268  0.41180  1.0000
  H   H855      1.0  0.14387  0.97792  0.44372  1.0000
  H   H856      1.0  0.30687  0.48535  0.31914  1.0000
  C   C1060     1.0  0.19516  0.90012  0.28870  1.0000
  C   C1061     1.0  0.16397  0.86942  0.30463  1.0000
  C   C1062     1.0  0.16286  0.88043  0.31553  1.0000
  C   C1063     1.0  0.14268  0.88157  0.32531  1.0000
  C   C1064     1.0  0.12330  0.87203  0.32420  1.0000
  C   C1065     1.0  0.12434  0.86076  0.31352  1.0000
  C   C1066     1.0  0.21889  0.92886  0.29008  1.0000
  S   S149      1.0  0.29174  0.95381  0.45525  1.0000
  C   C1067     1.0  0.18086  0.94209  0.28311  1.0000
  C   C1068     1.0  0.17771  0.91867  0.28451  1.0000
  C   C1069     1.0  0.27307  0.53711  0.27045  1.0000
  C   C1070     1.0  0.25902  0.56866  0.25368  1.0000
  H   H857      1.0  0.17732  0.88877  0.31632  1.0000
  H   H858      1.0  0.14159  0.89094  0.33339  1.0000
  H   H859      1.0  0.10719  0.87407  0.33140  1.0000
  H   H860      1.0  0.10906  0.85396  0.31250  1.0000
  H   H861      1.0  0.10367  0.95667  0.26817  1.0000
  H   H862      1.0  0.00734  0.49964  0.33147  1.0000
  H   H863      1.0  0.03491  0.51086  0.34347  1.0000
  H   H864      1.0  0.16154  0.91501  0.28241  1.0000
  C   C1071     1.0  0.24995  0.53281  0.27519  1.0000
  C   C1072     1.0  0.07271  0.71291  0.30663  1.0000
  C   C1073     1.0  0.06124  0.70132  0.31846  1.0000
  C   C1074     1.0  0.04247  0.71380  0.32613  1.0000
  C   C1075     1.0  0.03476  0.73774  0.32179  1.0000
  C   C1076     1.0  0.04537  0.74922  0.30955  1.0000
  C   C1077     1.0  0.06521  0.73689  0.30236  1.0000
  P   P35       1.0  0.03590  0.78035  0.30427  1.0000
  H   H865      1.0  0.12364  0.54908  0.45711  1.0000
  C   C1078     1.0  0.05065  0.79464  0.31313  1.0000
  C   C1079     1.0  0.04077  0.79814  0.32611  1.0000
  C   C1080     1.0  0.05307  0.80772  0.33332  1.0000
  C   C1081     1.0  0.07526  0.81382  0.32762  1.0000
  C   C1082     1.0  0.08526  0.81007  0.31476  1.0000
  C   C1083     1.0  0.07308  0.80040  0.30757  1.0000
  C   C1084     1.0  0.98935  0.89492  0.31751  1.0000
  S   S150      1.0  0.14082  0.96927  0.33362  1.0000
  H   H866      1.0  0.22791  0.64760  0.22768  1.0000
  C   C1085     1.0  0.04821  0.54952  0.31098  1.0000
  C   C1086     1.0  0.99293  0.72786  0.27555  1.0000
  C   C1087     1.0  0.04311  0.79009  0.28664  1.0000
  C   C1088     1.0  0.04567  0.77454  0.27768  1.0000
  C   C1089     1.0  0.05051  0.78260  0.26407  1.0000
  C   C1090     1.0  0.05185  0.80638  0.25927  1.0000
  C   C1091     1.0  0.04877  0.82205  0.26810  1.0000
  C   C1092     1.0  0.04452  0.81399  0.28172  1.0000
  H   H867      1.0  0.08753  0.70324  0.30081  1.0000
  H   H868      1.0  0.06713  0.68271  0.32174  1.0000
  H   H869      1.0  0.03403  0.70490  0.33548  1.0000
  H   H870      1.0  0.02059  0.74727  0.32802  1.0000
  H   H871      1.0  0.07506  0.74572  0.29349  1.0000
  C   C1093     1.0  0.03684  0.88382  0.32043  1.0000
  H   H872      1.0  0.04538  0.81050  0.34332  1.0000
  H   H873      1.0  0.08477  0.82133  0.33316  1.0000
  H   H874      1.0  0.10259  0.81444  0.31032  1.0000
  H   H875      1.0  0.08132  0.79724  0.29772  1.0000
  C   C1094     1.0  0.00630  0.75931  0.25062  1.0000
  H   H876      1.0  0.22164  0.57509  0.25362  1.0000
  C   C1095     1.0  0.26119  0.53478  0.31874  1.0000
  H   H877      1.0  0.02975  0.94091  0.29685  1.0000
  H   H878      1.0  0.01783  0.71639  0.30338  1.0000
  H   H879      1.0  0.04404  0.75619  0.28105  1.0000
  H   H880      1.0  0.05363  0.77030  0.25725  1.0000
  H   H881      1.0  0.05575  0.81256  0.24872  1.0000
  H   H882      1.0  0.04991  0.84048  0.26444  1.0000
  H   H883      1.0  0.04233  0.82656  0.28833  1.0000
  H   H884      1.0  0.24682  0.51908  0.28362  1.0000
  C   C1096     1.0  0.18340  0.87181  0.25302  1.0000
  C   C1097     1.0  0.02496  0.90696  0.32035  1.0000
  H   H885      1.0  0.23605  0.91366  0.24767  1.0000
  H   H886      1.0  0.12359  0.57190  0.22595  1.0000
  H   H887      1.0  0.25695  0.48823  0.23001  1.0000
  H   H888      1.0  0.03461  0.84879  0.31819  1.0000
  H   H889      1.0  0.26654  0.49142  0.41258  1.0000
  C   C1098     1.0  0.02510  0.86636  0.31881  1.0000
  H   H890      1.0  0.10217  0.96507  0.29060  1.0000
  C   C1099     1.0  0.06300  0.57543  0.25097  1.0000
  C   C1100     1.0  0.06643  0.56905  0.26415  1.0000
  C   C1101     1.0  0.09725  0.59502  0.24562  1.0000
  H   H891      1.0  0.21819  0.51087  0.38512  1.0000
  H   H892      1.0  0.08590  0.48948  0.32630  1.0000
  H   H893      1.0  0.13100  0.54648  0.25486  1.0000
  C   C1102     1.0  0.17959  0.48665  0.30317  1.0000
  C   C1103     1.0  0.30217  0.59525  0.46123  1.0000
  H   H894      1.0  0.19178  0.65961  0.24331  1.0000
  H   H895      1.0  0.19766  0.52327  0.23173  1.0000
  H   H896      1.0  0.19084  0.52192  0.36890  1.0000
  H   H897      1.0  0.00678  0.82654  0.30473  1.0000
  C   C1104     1.0  0.00558  0.78209  0.24309  1.0000
  C   C1105     1.0  0.01153  0.57583  0.30755  1.0000
  H   H898      1.0  0.04822  0.57022  0.24823  1.0000
  H   H899      1.0  0.05430  0.55931  0.27139  1.0000
  H   H900      1.0  0.23471  0.93290  0.29238  1.0000
  H   H901      1.0  0.16556  0.48417  0.31157  1.0000
  P   P36       1.0  0.20123  0.54125  0.27520  1.0000
  H   H902      1.0  0.08821  0.97380  0.46311  1.0000
  C   C1106     1.0  0.27528  0.70294  0.46744  1.0000
  C   C1107     1.0  0.17806  0.58285  0.30386  1.0000
  H   H903      1.0  0.23298  0.81328  0.32385  1.0000
  C   C1108     1.0  0.23369  0.82239  0.31372  1.0000
  H   H904      1.0  0.99514  0.75453  0.31086  1.0000
  C   C1109     1.0  0.23546  0.84573  0.28755  1.0000
  H   H905      1.0  0.23635  0.85463  0.27738  1.0000
  C   C1110     1.0  0.27762  0.55498  0.25967  1.0000
  H   H906      1.0  0.27110  0.82698  0.28419  1.0000
  C   C1111     1.0  0.16306  0.53474  0.24218  1.0000
  C   C1112     1.0  0.25429  0.81844  0.30446  1.0000
  C   C1113     1.0  0.25516  0.83010  0.29138  1.0000
  C   C1114     1.0  0.18647  0.54070  0.26181  1.0000
  H   H907      1.0  0.06018  0.73413  0.23585  1.0000
  P   P37       1.0  0.98668  0.94298  0.31681  1.0000
  C   C1115     1.0  0.16899  0.50743  0.44667  1.0000
  C   C1116     1.0  0.26933  0.58006  0.30598  1.0000
  C   C1117     1.0  0.25389  0.56900  0.30172  1.0000
  H   H908      1.0  0.24890  0.52769  0.34955  1.0000
  H   H909      1.0  0.26955  0.80630  0.30742  1.0000
  H   H910      1.0  0.19642  0.54770  0.30287  1.0000
  C   C1118     1.0  0.20140  0.94719  0.28593  1.0000
  H   H911      1.0  0.12365  0.49636  0.43418  1.0000
  H   H912      1.0  0.00490  0.66770  0.28123  1.0000
  C   C1119     1.0  0.01077  0.71320  0.29526  1.0000
  H   H913      1.0  0.20370  0.96534  0.28503  1.0000
  C   C1120     1.0  0.31480  0.68611  0.45800  1.0000
  H   H914      1.0  0.27235  0.59763  0.30112  1.0000
  C   C1121     1.0  0.00096  0.87925  0.27027  1.0000
  C   C1122     1.0  0.09634  0.48709  0.31676  1.0000
  H   H915      1.0  0.05914  0.60308  0.29369  1.0000
  S   S151      1.0  0.25718  0.53754  0.46061  1.0000
  H   H916      1.0  0.21324  0.54053  0.32977  1.0000
  C   C1123     1.0  0.18443  0.52167  0.33231  1.0000
  C   C1124     1.0  0.28258  0.48211  0.36634  1.0000
  C   C1125     1.0  0.27238  0.48720  0.31407  1.0000
  C   C1126     1.0  0.19986  0.51255  0.28524  1.0000
  H   H917      1.0  0.15412  0.53210  0.23466  1.0000
  H   H918      1.0  0.98860  0.70071  0.26537  1.0000
  C   C1127     1.0  0.20838  0.52341  0.33048  1.0000
  C   C1128     1.0  0.26817  0.50392  0.36363  1.0000
  C   C1129     1.0  0.14487  0.62708  0.22410  1.0000
  C   C1130     1.0  0.24434  0.92033  0.23776  1.0000
  H   H919      1.0  0.23202  0.51934  0.40544  1.0000
  H   H920      1.0  0.02420  0.80544  0.22771  1.0000
  C   C1131     1.0  0.20658  0.49770  0.41666  1.0000
  C   C1132     1.0  0.04485  0.74753  0.23779  1.0000
  S   S152      1.0  0.09165  0.50090  0.38082  1.0000
  C   C1133     1.0  0.22566  0.50319  0.32956  1.0000
  C   C1134     1.0  0.12245  0.50228  0.29718  1.0000
  C   C1135     1.0  0.29699  0.48027  0.31277  1.0000
  C   C1136     1.0  0.02584  0.74197  0.24765  1.0000
  C   C1137     1.0  0.12297  0.48220  0.29182  1.0000
  S   S153      1.0  0.30164  0.50796  0.43053  1.0000
  C   C1138     1.0  0.18766  0.52967  0.24055  1.0000
  H   H921      1.0  0.28696  0.53671  0.33053  1.0000
  P   P38       1.0  0.25668  0.50516  0.32620  1.0000
  H   H922      1.0  0.06515  0.97671  0.42635  1.0000
  S   S154      1.0  0.20744  0.97634  0.23582  1.0000
  H   H923      1.0  0.29555  0.55825  0.25597  1.0000
  H   H924      1.0  0.23831  0.53784  0.30447  1.0000
  C   C1139     1.0  0.02357  0.55364  0.31248  1.0000
  H   H925      1.0  0.22766  0.49445  0.27190  1.0000
  C   C1140     1.0  0.00350  0.68565  0.28282  1.0000
  H   H926      1.0  0.13238  0.51594  0.29169  1.0000
  C   C1141     1.0  0.27902  0.62889  0.47034  1.0000
  H   H927      1.0  0.16622  0.53510  0.45783  1.0000
  C   C1142     1.0  0.23589  0.56430  0.25835  1.0000
  C   C1143     1.0  0.17761  0.49974  0.33347  1.0000
  C   C1144     1.0  0.99419  0.70447  0.27385  1.0000
  H   H928      1.0  0.15516  0.94271  0.31223  1.0000
  C   C1145     1.0  0.06101  0.56739  0.30431  1.0000
  C   C1146     1.0  0.04922  0.58918  0.29885  1.0000
  C   C1147     1.0  0.16170  0.54580  0.26341  1.0000
  H   H929      1.0  0.15138  0.55170  0.27230  1.0000
  C   C1148     1.0  0.17279  0.59595  0.23407  1.0000
  C   C1149     1.0  0.26008  0.51075  0.35151  1.0000
  H   H930      1.0  0.06386  0.64106  0.23414  1.0000
  H   H931      1.0  0.26338  0.51559  0.37089  1.0000
  H   H932      1.0  0.99196  0.85831  0.31665  1.0000
  H   H933      1.0  0.06774  0.95734  0.44952  1.0000
  C   C1150     1.0  0.11258  0.97442  0.28216  1.0000
  H   H934      1.0  0.99011  0.56549  0.35803  1.0000
  C   C1151     1.0  0.99276  0.87372  0.24940  1.0000
  H   H935      1.0  0.98745  0.61449  0.26545  1.0000
  H   H936      1.0  0.98951  0.62851  0.22796  1.0000
  C   C1152     1.0  0.21359  0.49728  0.38096  1.0000
  C   C1153     1.0  0.26106  0.93519  0.23591  1.0000
  Fe  Fe75      1.0  0.11844  0.49004  0.36366  1.0000
  H   H937      1.0  0.28404  0.68910  0.44916  1.0000
  C   C1154     1.0  0.30610  0.94525  0.46926  1.0000
  C   C1155     1.0  0.21180  0.65576  0.22392  1.0000
  H   H938      1.0  0.24152  0.48724  0.30554  1.0000
  C   C1156     1.0  0.14689  0.97417  0.45384  1.0000
  C   C1157     1.0  0.29076  0.69267  0.45733  1.0000
  C   C1158     1.0  0.26031  0.48137  0.30521  1.0000
  C   C1159     1.0  0.04383  0.97234  0.29597  1.0000
  H   H939      1.0  0.29332  0.57683  0.31958  1.0000
  C   C1160     1.0  0.21863  0.48113  0.33127  1.0000
  H   H940      1.0  0.98829  0.92475  0.29244  1.0000
  H   H941      1.0  0.17605  0.48804  0.40334  1.0000
  C   C1161     1.0  0.23777  0.91466  0.22682  1.0000
  C   C1162     1.0  0.16750  0.94938  0.47078  1.0000
  H   H942      1.0  0.09101  0.96665  0.33745  1.0000
  H   H943      1.0  0.03101  0.63096  0.22718  1.0000
  H   H944      1.0  0.26256  0.64079  0.47201  1.0000
  H   H945      1.0  0.16762  0.56176  0.47252  1.0000
  H   H946      1.0  0.23829  0.57042  0.22660  1.0000
  H   H947      1.0  0.00633  0.48670  0.24688  1.0000
  H   H948      1.0  0.13346  0.48022  0.28219  1.0000
  C   C1163     1.0  0.02064  0.47981  0.30471  1.0000
  C   C1164     1.0  0.19473  0.47947  0.33307  1.0000
  C   C1165     1.0  0.27101  0.94462  0.22313  1.0000
  C   C1166     1.0  0.98895  0.49747  0.24795  1.0000
  C   C1167     1.0  0.98607  0.51127  0.36735  1.0000
  H   H949      1.0  0.05803  0.47939  0.29967  1.0000
  P   P39       1.0  0.07482  0.59589  0.22439  1.0000
  C   C1168     1.0  0.04436  0.59501  0.22377  1.0000
  C   C1169     1.0  0.99662  0.59241  0.22483  1.0000
  C   C1170     1.0  0.07346  0.64387  0.22410  1.0000
  C   C1171     1.0  0.02673  0.61465  0.22578  1.0000
  C   C1172     1.0  0.00299  0.61332  0.22628  1.0000
  C   C1173     1.0  0.01391  0.57265  0.22312  1.0000
  Fe  Fe76      1.0  0.22800  0.53458  0.69870  1.0000
  S   S155      1.0  0.19011  0.54809  0.70653  1.0000
  S   S156      1.0  0.24759  0.54873  0.67850  1.0000
  C   C1174     1.0  0.17367  0.95311  0.58120  1.0000
  Fe  Fe77      1.0  0.18606  0.50964  0.71108  1.0000
  S   S157      1.0  0.15333  0.49638  0.70804  1.0000
  S   S158      1.0  0.22344  0.49637  0.70240  1.0000
  C   C1175     1.0  0.21489  0.63804  0.48714  1.0000
  Fe  Fe78      1.0  0.19539  0.90024  0.61925  1.0000
  S   S159      1.0  0.20429  0.87480  0.63728  1.0000
  S   S160      1.0  0.15776  0.91700  0.61806  1.0000
  Fe  Fe79      1.0  0.24634  0.89819  0.60622  1.0000
  S   S161      1.0  0.25955  0.87343  0.62352  1.0000
  S   S162      1.0  0.26878  0.91242  0.58720  1.0000
  Fe  Fe80      1.0  0.23000  0.85417  0.62302  1.0000
  S   S163      1.0  0.23952  0.81426  0.62412  1.0000
  Fe  Fe81      1.0  0.23270  0.89643  0.63624  1.0000
  S   S164      1.0  0.23353  0.90613  0.65625  1.0000
  S   S165      1.0  0.21846  0.87786  0.60505  1.0000
  S   S166      1.0  0.22214  0.92290  0.61887  1.0000
  Fe  Fe82      1.0  0.21021  0.65855  0.62378  1.0000
  S   S167      1.0  0.17940  0.67697  0.61369  1.0000
  S   S168      1.0  0.19947  0.64271  0.64529  1.0000
  Fe  Fe83      1.0  0.24596  0.67175  0.59906  1.0000
  S   S169      1.0  0.21777  0.69065  0.58739  1.0000
  S   S170      1.0  0.28348  0.67340  0.58859  1.0000
  Fe  Fe84      1.0  0.20117  0.70623  0.60573  1.0000
  S   S171      1.0  0.18638  0.74560  0.60473  1.0000
  Fe  Fe85      1.0  0.19911  0.65957  0.59650  1.0000
  S   S172      1.0  0.18897  0.63743  0.58364  1.0000
  S   S173      1.0  0.23049  0.68891  0.61696  1.0000
  S   S174      1.0  0.22880  0.63960  0.60702  1.0000
  Fe  Fe86      1.0  0.09842  0.57413  0.56455  1.0000
  S   S175      1.0  0.13072  0.55845  0.55160  1.0000
  S   S176      1.0  0.09657  0.60101  0.57786  1.0000
  Fe  Fe87      1.0  0.06587  0.54514  0.55693  1.0000
  S   S177      1.0  0.09619  0.52736  0.54347  1.0000
  S   S178      1.0  0.02951  0.53305  0.56314  1.0000
  Fe  Fe88      1.0  0.11744  0.52398  0.55945  1.0000
  C   C1176     1.0  0.25095  0.93283  0.48733  1.0000
  Fe  Fe89      1.0  0.10713  0.56283  0.53660  1.0000
  S   S179      1.0  0.11931  0.57666  0.51491  1.0000
  S   S180      1.0  0.08691  0.53918  0.57349  1.0000
  S   S181      1.0  0.07528  0.58140  0.54894  1.0000
  P   P40       1.0  0.24611  0.54196  0.51145  1.0000
  H   H950      1.0  0.31235  0.58687  0.49458  1.0000
  H   H951      1.0  0.26366  0.52126  0.53649  1.0000
  H   H952      1.0  0.20176  0.52272  0.51976  1.0000
  C   C1177     1.0  0.98826  0.50115  0.51401  1.0000
  C   C1178     1.0  0.15471  0.96344  0.47996  1.0000
  H   H953      1.0  0.24966  0.77848  0.51999  1.0000
  C   C1179     1.0  0.26429  0.66866  0.50253  1.0000
  C   C1180     1.0  0.15097  0.52948  0.66673  1.0000
  H   H954      1.0  0.11259  0.95451  0.56234  1.0000
  H   H955      1.0  0.01754  0.56494  0.53905  1.0000
  C   C1181     1.0  0.07268  0.55397  0.49643  1.0000
  C   C1182     1.0  0.17461  0.53228  0.48795  1.0000
  C   C1183     1.0  0.16799  0.52293  0.50137  1.0000
  C   C1184     1.0  0.15066  0.53604  0.50973  1.0000
  C   C1185     1.0  0.13936  0.55838  0.50463  1.0000
  C   C1186     1.0  0.14510  0.56714  0.49108  1.0000
  C   C1187     1.0  0.16288  0.55436  0.48282  1.0000
  H   H956      1.0  0.17670  0.50572  0.50540  1.0000
  H   H957      1.0  0.14632  0.52903  0.52015  1.0000
  H   H958      1.0  0.13637  0.58433  0.48703  1.0000
  H   H959      1.0  0.27300  0.93491  0.69740  1.0000
  H   H960      1.0  0.17007  0.96081  0.62120  1.0000
  H   H961      1.0  0.98638  0.48965  0.59086  1.0000
  C   C1188     1.0  0.16285  0.62721  0.58283  1.0000
  C   C1189     1.0  0.14049  0.63613  0.58927  1.0000
  C   C1190     1.0  0.12031  0.62780  0.58779  1.0000
  C   C1191     1.0  0.12230  0.61075  0.57974  1.0000
  C   C1192     1.0  0.14466  0.60194  0.57331  1.0000
  C   C1193     1.0  0.16476  0.61004  0.57492  1.0000
  H   H962      1.0  0.13872  0.64966  0.59520  1.0000
  H   H963      1.0  0.10307  0.63482  0.59276  1.0000
  H   H964      1.0  0.14645  0.58889  0.56708  1.0000
  H   H965      1.0  0.18198  0.60302  0.56999  1.0000
  C   C1194     1.0  0.29163  0.66012  0.57434  1.0000
  C   C1195     1.0  0.21129  0.51831  0.52801  1.0000
  H   H966      1.0  0.17441  0.60402  0.48646  1.0000
  C   C1196     1.0  0.28820  0.63075  0.56181  1.0000
  C   C1197     1.0  0.28026  0.64226  0.57282  1.0000
  H   H967      1.0  0.12651  0.52258  0.68492  1.0000
  H   H968      1.0  0.27978  0.61649  0.56087  1.0000
  H   H969      1.0  0.26580  0.63684  0.58032  1.0000
  C   C1198     1.0  0.15538  0.93547  0.60282  1.0000
  H   H970      1.0  0.28380  0.56270  0.49239  1.0000
  H   H971      1.0  0.24391  0.56324  0.48383  1.0000
  C   C1199     1.0  0.25998  0.52001  0.50127  1.0000
  C   C1200     1.0  0.17569  0.93943  0.59364  1.0000
  H   H972      1.0  0.20468  0.88221  0.67957  1.0000
  C   C1201     1.0  0.29094  0.75163  0.49094  1.0000
  H   H973      1.0  0.19295  0.93151  0.59599  1.0000
  C   C1202     1.0  0.28773  0.89125  0.57850  1.0000
  C   C1203     1.0  0.28928  0.86716  0.58358  1.0000
  C   C1204     1.0  0.01873  0.52578  0.50776  1.0000
  H   H974      1.0  0.27791  0.86124  0.59267  1.0000
  H   H975      1.0  0.30392  0.73542  0.52883  1.0000
  C   C1205     1.0  0.22428  0.79561  0.61872  1.0000
  C   C1206     1.0  0.20100  0.80267  0.61645  1.0000
  C   C1207     1.0  0.18938  0.78698  0.61253  1.0000
  C   C1208     1.0  0.20107  0.76430  0.61052  1.0000
  C   C1209     1.0  0.22436  0.75730  0.61280  1.0000
  C   C1210     1.0  0.23576  0.77276  0.61701  1.0000
  H   H976      1.0  0.19190  0.82006  0.61788  1.0000
  H   H977      1.0  0.17128  0.79246  0.61098  1.0000
  H   H978      1.0  0.23363  0.73996  0.61130  1.0000
  H   H979      1.0  0.25361  0.76693  0.61893  1.0000
  C   C1211     1.0  0.23231  0.95843  0.53723  1.0000
  C   C1212     1.0  0.23441  0.57499  0.66926  1.0000
  C   C1213     1.0  0.24365  0.58156  0.65581  1.0000
  C   C1214     1.0  0.23316  0.60220  0.64824  1.0000
  C   C1215     1.0  0.21350  0.61656  0.65416  1.0000
  C   C1216     1.0  0.20445  0.61009  0.66761  1.0000
  C   C1217     1.0  0.21487  0.58946  0.67513  1.0000
  H   H980      1.0  0.25899  0.57068  0.65122  1.0000
  H   H981      1.0  0.24033  0.60709  0.63790  1.0000
  H   H982      1.0  0.18936  0.62119  0.67228  1.0000
  H   H983      1.0  0.20792  0.58495  0.68552  1.0000
  H   H984      1.0  0.22305  0.69122  0.49586  1.0000
  C   C1218     1.0  0.26084  0.94202  0.65050  1.0000
  C   C1219     1.0  0.24525  0.92939  0.65989  1.0000
  C   C1220     1.0  0.23908  0.93492  0.67274  1.0000
  C   C1221     1.0  0.24819  0.95296  0.67617  1.0000
  H   H985      1.0  0.26578  0.93799  0.64058  1.0000
  H   H986      1.0  0.22709  0.92530  0.68009  1.0000
  C   C1222     1.0  0.31785  0.65597  0.55340  1.0000
  H   H987      1.0  0.13755  0.55214  0.69530  1.0000
  H   H988      1.0  0.28522  0.86801  0.51854  1.0000
  C   C1223     1.0  0.02659  0.48957  0.65275  1.0000
  H   H989      1.0  0.26911  0.63471  0.53260  1.0000
  H   H990      1.0  0.30734  0.83218  0.58115  1.0000
  C   C1224     1.0  0.21823  0.70927  0.49125  1.0000
  C   C1225     1.0  0.21738  0.95557  0.49927  1.0000
  C   C1226     1.0  0.23803  0.94635  0.56010  1.0000
  C   C1227     1.0  0.22406  0.94883  0.55038  1.0000
  C   C1228     1.0  0.23339  0.52521  0.52684  1.0000
  C   C1229     1.0  0.02895  0.48388  0.51555  1.0000
  C   C1230     1.0  0.25647  0.49302  0.48725  1.0000
  C   C1231     1.0  0.18796  0.94988  0.53044  1.0000
  C   C1232     1.0  0.22859  0.94669  0.48777  1.0000
  C   C1233     1.0  0.25114  0.89107  0.72049  1.0000
  C   C1234     1.0  0.19572  0.71643  0.48782  1.0000
  C   C1235     1.0  0.28313  0.56775  0.50188  1.0000
  C   C1236     1.0  0.13116  0.96055  0.58743  1.0000
  C   C1237     1.0  0.28133  0.58246  0.52588  1.0000
  C   C1238     1.0  0.29621  0.77094  0.49505  1.0000
  H   H991      1.0  0.00238  0.51947  0.59861  1.0000
  C   C1239     1.0  0.14823  0.92708  0.53734  1.0000
  Fe  Fe90      1.0  0.23287  0.49500  0.72236  1.0000
  C   C1240     1.0  0.00585  0.53695  0.55409  1.0000
  C   C1241     1.0  0.22877  0.95143  0.51026  1.0000
  C   C1242     1.0  0.25097  0.93688  0.50991  1.0000
  C   C1243     1.0  0.28148  0.78051  0.50558  1.0000
  H   H992      1.0  0.18577  0.49038  0.65516  1.0000
  H   H993      1.0  0.18577  0.82447  0.71371  1.0000
  H   H994      1.0  0.30123  0.91722  0.56254  1.0000
  H   H995      1.0  0.23178  0.93900  0.57028  1.0000
  H   H996      1.0  0.20673  0.94368  0.55319  1.0000
  H   H997      1.0  0.17813  0.95078  0.66179  1.0000
  H   H998      1.0  0.08584  0.96258  0.62509  1.0000
  H   H999      1.0  0.12484  0.81723  0.55400  1.0000
  H   H1000     1.0  0.26959  0.67337  0.53815  1.0000
  H   H1001     1.0  0.99760  0.56782  0.63478  1.0000
  C   C1244     1.0  0.23921  0.77446  0.71822  1.0000
  H   H1002     1.0  0.18262  0.66158  0.48407  1.0000
  H   H1003     1.0  0.13285  0.91836  0.54002  1.0000
  C   C1245     1.0  0.18915  0.73945  0.48147  1.0000
  H   H1004     1.0  0.17309  0.89484  0.53932  1.0000
  C   C1246     1.0  0.08654  0.49829  0.49745  1.0000
  C   C1247     1.0  0.22726  0.56911  0.48985  1.0000
  C   C1248     1.0  0.05662  0.49385  0.53817  1.0000
  C   C1249     1.0  0.14581  0.54989  0.68529  1.0000
  H   H1005     1.0  0.26329  0.66678  0.49260  1.0000
  C   C1250     1.0  0.18626  0.90473  0.69344  1.0000
  H   H1006     1.0  0.18935  0.95576  0.57404  1.0000
  H   H1007     1.0  0.12780  0.96200  0.53459  1.0000
  C   C1251     1.0  0.26196  0.92762  0.49846  1.0000
  P   P41       1.0  0.27229  0.79065  0.56060  1.0000
  C   C1252     1.0  0.24293  0.79977  0.56905  1.0000
  C   C1253     1.0  0.27689  0.81484  0.54713  1.0000
  C   C1254     1.0  0.28852  0.83272  0.54840  1.0000
  C   C1255     1.0  0.29157  0.85176  0.53812  1.0000
  C   C1256     1.0  0.28256  0.85334  0.52656  1.0000
  C   C1257     1.0  0.27011  0.83605  0.52539  1.0000
  C   C1258     1.0  0.26710  0.81696  0.53570  1.0000
  C   C1259     1.0  0.22400  0.78860  0.56877  1.0000
  C   C1260     1.0  0.20164  0.79560  0.57588  1.0000
  C   C1261     1.0  0.19807  0.81397  0.58307  1.0000
  C   C1262     1.0  0.21672  0.82540  0.58321  1.0000
  C   C1263     1.0  0.23903  0.81852  0.57611  1.0000
  C   C1264     1.0  0.27630  0.76282  0.55498  1.0000
  C   C1265     1.0  0.11119  0.49064  0.65081  1.0000
  C   C1266     1.0  0.24604  0.51012  0.49515  1.0000
  H   H1008     1.0  0.27079  0.95168  0.56437  1.0000
  C   C1267     1.0  0.27209  0.72147  0.55947  1.0000
  C   C1268     1.0  0.26807  0.74336  0.56357  1.0000
  C   C1269     1.0  0.26736  0.65037  0.52511  1.0000
  H   H1009     1.0  0.20820  0.91474  0.53325  1.0000
  H   H1010     1.0  0.25942  0.79609  0.70282  1.0000
  P   P42       1.0  0.21388  0.96389  0.52476  1.0000
  H   H1011     1.0  0.30112  0.86521  0.53911  1.0000
  C   C1270     1.0  0.30805  0.70033  0.47880  1.0000
  H   H1012     1.0  0.04100  0.50377  0.66617  1.0000
  H   H1013     1.0  0.22642  0.77426  0.56332  1.0000
  H   H1014     1.0  0.18726  0.78624  0.57623  1.0000
  H   H1015     1.0  0.18103  0.81892  0.58887  1.0000
  H   H1016     1.0  0.21401  0.83935  0.58900  1.0000
  H   H1017     1.0  0.25339  0.82747  0.57641  1.0000
  C   C1271     1.0  0.28415  0.78121  0.58589  1.0000
  H   H1018     1.0  0.22132  0.63799  0.47667  1.0000
  C   C1272     1.0  0.16859  0.96821  0.63006  1.0000
  H   H1019     1.0  0.26575  0.70650  0.56618  1.0000
  H   H1020     1.0  0.25882  0.74494  0.57351  1.0000
  H   H1021     1.0  0.29770  0.64769  0.47961  1.0000
  C   C1273     1.0  0.15150  0.96384  0.57808  1.0000
  C   C1274     1.0  0.26837  0.96327  0.54374  1.0000
  C   C1275     1.0  0.29951  0.77867  0.59487  1.0000
  C   C1276     1.0  0.06763  0.48196  0.62172  1.0000
  C   C1277     1.0  0.02570  0.50457  0.66167  1.0000
  P   P43       1.0  0.22686  0.83931  0.69508  1.0000
  C   C1278     1.0  0.25588  0.84725  0.69245  1.0000
  C   C1279     1.0  0.22034  0.83224  0.68037  1.0000
  C   C1280     1.0  0.23849  0.82217  0.67117  1.0000
  C   C1281     1.0  0.23315  0.81578  0.66009  1.0000
  C   C1282     1.0  0.20972  0.81906  0.65821  1.0000
  C   C1283     1.0  0.19155  0.82877  0.66741  1.0000
  C   C1284     1.0  0.19680  0.83522  0.67850  1.0000
  C   C1285     1.0  0.26424  0.86106  0.68046  1.0000
  C   C1286     1.0  0.28566  0.86931  0.67870  1.0000
  C   C1287     1.0  0.29893  0.86381  0.68891  1.0000
  C   C1288     1.0  0.29066  0.85021  0.70094  1.0000
  C   C1289     1.0  0.26908  0.84216  0.70277  1.0000
  C   C1290     1.0  0.20751  0.86536  0.69974  1.0000
  C   C1291     1.0  0.20198  0.86845  0.71303  1.0000
  H   H1022     1.0  0.30272  0.74472  0.48275  1.0000
  H   H1023     1.0  0.22709  0.51582  0.49634  1.0000
  C   C1292     1.0  0.01383  0.56901  0.62774  1.0000
  C   C1293     1.0  0.27104  0.74144  0.49750  1.0000
  C   C1294     1.0  0.26713  0.92494  0.70701  1.0000
  H   H1024     1.0  0.11492  0.51505  0.49985  1.0000
  H   H1025     1.0  0.11205  0.48791  0.63059  1.0000
  H   H1026     1.0  0.14684  0.51492  0.58455  1.0000
  H   H1027     1.0  0.25711  0.80388  0.53479  1.0000
  H   H1028     1.0  0.25671  0.81911  0.67257  1.0000
  H   H1029     1.0  0.24710  0.80820  0.65291  1.0000
  H   H1030     1.0  0.20569  0.81406  0.64960  1.0000
  C   C1295     1.0  0.29918  0.58170  0.50301  1.0000
  C   C1296     1.0  0.20095  0.81089  0.71511  1.0000
  H   H1031     1.0  0.25393  0.86597  0.67256  1.0000
  H   H1032     1.0  0.29161  0.88044  0.66949  1.0000
  H   H1033     1.0  0.00086  0.60321  0.61725  1.0000
  H   H1034     1.0  0.29285  0.77537  0.60540  1.0000
  C   C1297     1.0  0.27052  0.95957  0.65406  1.0000
  C   C1298     1.0  0.22337  0.81366  0.70768  1.0000
  H   H1035     1.0  0.15818  0.95970  0.49001  1.0000
  H   H1036     1.0  0.25195  0.56394  0.53317  1.0000
  C   C1299     1.0  0.24596  0.51755  0.53742  1.0000
  H   H1037     1.0  0.22008  0.95099  0.47912  1.0000
  H   H1038     1.0  0.18385  0.50081  0.54079  1.0000
  H   H1039     1.0  0.25914  0.51897  0.65850  1.0000
  C   C1300     1.0  0.26119  0.77102  0.51188  1.0000
  H   H1040     1.0  0.26820  0.70894  0.52101  1.0000
  C   C1301     1.0  0.31639  0.78740  0.56765  1.0000
  H   H1041     1.0  0.18058  0.91891  0.68578  1.0000
  P   P44       1.0  0.18204  0.53990  0.64303  1.0000
  C   C1302     1.0  0.17098  0.56797  0.63384  1.0000
  C   C1303     1.0  0.17552  0.51458  0.63797  1.0000
  H   H1042     1.0  0.18182  0.93482  0.64120  1.0000
  C   C1304     1.0  0.30230  0.89867  0.56658  1.0000
  H   H1043     1.0  0.26588  0.77927  0.58971  1.0000
  C   C1305     1.0  0.00493  0.52010  0.66501  1.0000
  H   H1044     1.0  0.30919  0.96151  0.49822  1.0000
  C   C1306     1.0  0.14776  0.57258  0.63124  1.0000
  C   C1307     1.0  0.13832  0.59514  0.62532  1.0000
  C   C1308     1.0  0.15184  0.61326  0.62220  1.0000
  C   C1309     1.0  0.17468  0.60893  0.62507  1.0000
  C   C1310     1.0  0.18422  0.58645  0.63092  1.0000
  C   C1311     1.0  0.16858  0.54265  0.65983  1.0000
  C   C1312     1.0  0.17425  0.55986  0.66566  1.0000
  C   C1313     1.0  0.16290  0.56344  0.67834  1.0000
  C   C1314     1.0  0.30607  0.85075  0.57709  1.0000
  C   C1315     1.0  0.26530  0.56844  0.52479  1.0000
  C   C1316     1.0  0.29898  0.63300  0.47461  1.0000
  H   H1045     1.0  0.26285  0.83750  0.51649  1.0000
  S   S182      1.0  0.19688  0.51554  0.47777  1.0000
  H   H1046     1.0  0.28290  0.96894  0.64680  1.0000
  H   H1047     1.0  0.28594  0.79522  0.50883  1.0000
  C   C1317     1.0  0.25801  0.90423  0.70803  1.0000
  H   H1048     1.0  0.21051  0.71564  0.52285  1.0000
  H   H1049     1.0  0.13682  0.55890  0.63407  1.0000
  H   H1050     1.0  0.12043  0.59879  0.62332  1.0000
  H   H1051     1.0  0.14452  0.63084  0.61781  1.0000
  H   H1052     1.0  0.18482  0.62318  0.62312  1.0000
  H   H1053     1.0  0.20158  0.58393  0.63359  1.0000
  H   H1054     1.0  0.18739  0.57063  0.66037  1.0000
  H   H1055     1.0  0.16748  0.57664  0.68282  1.0000
  C   C1318     1.0  0.22710  0.53907  0.62819  1.0000
  H   H1056     1.0  0.27515  0.94929  0.71769  1.0000
  C   C1319     1.0  0.99015  0.50920  0.60543  1.0000
  C   C1320     1.0  0.12765  0.81904  0.56362  1.0000
  C   C1321     1.0  0.12850  0.79946  0.57376  1.0000
  C   C1322     1.0  0.13200  0.80178  0.58620  1.0000
  C   C1323     1.0  0.13459  0.82367  0.58854  1.0000
  C   C1324     1.0  0.13423  0.84338  0.57834  1.0000
  C   C1325     1.0  0.13059  0.84091  0.56588  1.0000
  P   P45       1.0  0.13976  0.87126  0.58089  1.0000
  C   C1326     1.0  0.13535  0.87143  0.59848  1.0000
  C   C1327     1.0  0.16977  0.87537  0.57353  1.0000
  C   C1328     1.0  0.18242  0.86384  0.56308  1.0000
  C   C1329     1.0  0.20566  0.86719  0.55760  1.0000
  C   C1330     1.0  0.21643  0.88205  0.56250  1.0000
  C   C1331     1.0  0.20396  0.89358  0.57285  1.0000
  C   C1332     1.0  0.18077  0.89027  0.57833  1.0000
  C   C1333     1.0  0.11355  0.88155  0.60513  1.0000
  C   C1334     1.0  0.11004  0.88107  0.61878  1.0000
  C   C1335     1.0  0.12819  0.87042  0.62591  1.0000
  C   C1336     1.0  0.14991  0.86030  0.61939  1.0000
  C   C1337     1.0  0.15352  0.86078  0.60573  1.0000
  C   C1338     1.0  0.11906  0.89526  0.57380  1.0000
  C   C1339     1.0  0.09643  0.89164  0.57295  1.0000
  C   C1340     1.0  0.07994  0.91051  0.56816  1.0000
  C   C1341     1.0  0.08578  0.93315  0.56432  1.0000
  C   C1342     1.0  0.10816  0.93690  0.56521  1.0000
  C   C1343     1.0  0.12475  0.91809  0.56993  1.0000
  H   H1057     1.0  0.12647  0.78244  0.57200  1.0000
  H   H1058     1.0  0.13291  0.78651  0.59403  1.0000
  H   H1059     1.0  0.13729  0.82488  0.59828  1.0000
  H   H1060     1.0  0.13019  0.85586  0.55789  1.0000
  H   H1061     1.0  0.17465  0.85201  0.55924  1.0000
  H   H1062     1.0  0.21550  0.85797  0.54970  1.0000
  H   H1063     1.0  0.23453  0.88446  0.55840  1.0000
  H   H1064     1.0  0.21234  0.90487  0.57679  1.0000
  H   H1065     1.0  0.17142  0.89919  0.58642  1.0000
  H   H1066     1.0  0.09924  0.88999  0.59984  1.0000
  H   H1067     1.0  0.09338  0.88930  0.62382  1.0000
  H   H1068     1.0  0.12570  0.87062  0.63642  1.0000
  H   H1069     1.0  0.16414  0.85271  0.62490  1.0000
  H   H1070     1.0  0.17054  0.85301  0.60087  1.0000
  H   H1071     1.0  0.09128  0.87439  0.57625  1.0000
  H   H1072     1.0  0.06245  0.90770  0.56761  1.0000
  C   C1344     1.0  0.25587  0.75172  0.50778  1.0000
  H   H1073     1.0  0.11737  0.94252  0.60671  1.0000
  H   H1074     1.0  0.14183  0.92162  0.57068  1.0000
  P   P46       1.0  0.06589  0.50962  0.51093  1.0000
  C   C1345     1.0  0.23422  0.72529  0.48854  1.0000
  C   C1346     1.0  0.30118  0.82363  0.61623  1.0000
  C   C1347     1.0  0.29850  0.81438  0.62972  1.0000
  C   C1348     1.0  0.20114  0.50564  0.53988  1.0000
  C   C1349     1.0  0.29230  0.78652  0.57220  1.0000
  H   H1075     1.0  0.00417  0.53151  0.67208  1.0000
  H   H1076     1.0  0.28794  0.82260  0.61057  1.0000
  H   H1077     1.0  0.28322  0.80615  0.63447  1.0000
  H   H1078     1.0  0.15909  0.49767  0.61231  1.0000
  C   C1350     1.0  0.06406  0.58983  0.50575  1.0000
  C   C1351     1.0  0.05755  0.57691  0.51827  1.0000
  C   C1352     1.0  0.05906  0.55243  0.51996  1.0000
  C   C1353     1.0  0.26583  0.64854  0.51226  1.0000
  H   H1079     1.0  0.19862  0.56548  0.52177  1.0000
  C   C1354     1.0  0.20193  0.57043  0.51115  1.0000
  H   H1080     1.0  0.19997  0.96615  0.49953  1.0000
  H   H1081     1.0  0.05145  0.58590  0.52669  1.0000
  H   H1082     1.0  0.05389  0.54275  0.52973  1.0000
  C   C1355     1.0  0.05055  0.49376  0.59777  1.0000
  C   C1356     1.0  0.22330  0.56159  0.50359  1.0000
  H   H1083     1.0  0.21835  0.54479  0.61965  1.0000
  H   H1084     1.0  0.25630  0.89847  0.69912  1.0000
  C   C1357     1.0  0.28951  0.75976  0.54247  1.0000
  C   C1358     1.0  0.26656  0.56033  0.51292  1.0000
  C   C1359     1.0  0.10407  0.49796  0.63845  1.0000
  S   S183      1.0  0.24093  0.53200  0.71794  1.0000
  H   H1085     1.0  0.04413  0.49837  0.58841  1.0000
  H   H1086     1.0  0.24438  0.87502  0.72107  1.0000
  C   C1360     1.0  0.23581  0.50473  0.54929  1.0000
  C   C1361     1.0  0.21379  0.53583  0.64099  1.0000
  C   C1362     1.0  0.13311  0.94592  0.59970  1.0000
  H   H1087     1.0  0.25996  0.93266  0.51834  1.0000
  H   H1088     1.0  0.18247  0.84243  0.68561  1.0000
  C   C1363     1.0  0.26672  0.69247  0.51843  1.0000
  H   H1089     1.0  0.28947  0.97532  0.47847  1.0000
  C   C1364     1.0  0.16510  0.96301  0.53074  1.0000
  C   C1365     1.0  0.29843  0.58888  0.51502  1.0000
  C   C1366     1.0  0.19982  0.88378  0.68995  1.0000
  C   C1367     1.0  0.18063  0.90761  0.70669  1.0000
  C   C1368     1.0  0.30174  0.95891  0.47926  1.0000
  C   C1369     1.0  0.10162  0.50361  0.66098  1.0000
  H   H1090     1.0  0.27937  0.91693  0.49806  1.0000
  C   C1370     1.0  0.17515  0.95337  0.64141  1.0000
  H   H1091     1.0  0.29721  0.77408  0.53593  1.0000
  H   H1092     1.0  0.28070  0.58833  0.53514  1.0000
  H   H1093     1.0  0.31342  0.80841  0.64749  1.0000
  C   C1371     1.0  0.19070  0.92519  0.53361  1.0000
  C   C1372     1.0  0.25019  0.52422  0.65002  1.0000
  H   H1094     1.0  0.18341  0.70406  0.48997  1.0000
  C   C1373     1.0  0.99506  0.52324  0.50927  1.0000
  H   H1095     1.0  0.24487  0.61357  0.49316  1.0000
  C   C1374     1.0  0.16843  0.51640  0.62573  1.0000
  H   H1096     1.0  0.99252  0.57843  0.59440  1.0000
  H   H1097     1.0  0.06346  0.60869  0.50456  1.0000
  H   H1098     1.0  0.28870  0.70152  0.54394  1.0000
  H   H1099     1.0  0.10675  0.47998  0.58551  1.0000
  H   H1100     1.0  0.23992  0.76073  0.47935  1.0000
  C   C1375     1.0  0.22549  0.52808  0.65191  1.0000
  H   H1101     1.0  0.29430  0.53092  0.70878  1.0000
  C   C1376     1.0  0.13968  0.53312  0.67943  1.0000
  C   C1377     1.0  0.22875  0.58565  0.55381  1.0000
  C   C1378     1.0  0.21672  0.56643  0.55642  1.0000
  C   C1379     1.0  0.19629  0.56816  0.55112  1.0000
  C   C1380     1.0  0.18747  0.58934  0.54353  1.0000
  C   C1381     1.0  0.19913  0.60893  0.54110  1.0000
  C   C1382     1.0  0.22035  0.60661  0.54589  1.0000
  P   P47       1.0  0.18701  0.63655  0.53172  1.0000
  C   C1383     1.0  0.19746  0.63649  0.51427  1.0000
  C   C1384     1.0  0.15517  0.63927  0.53595  1.0000
  C   C1385     1.0  0.14248  0.63012  0.52869  1.0000
  C   C1386     1.0  0.11830  0.62971  0.53284  1.0000
  C   C1387     1.0  0.10651  0.63865  0.54422  1.0000
  C   C1388     1.0  0.11886  0.64821  0.55137  1.0000
  C   C1389     1.0  0.14311  0.64836  0.54734  1.0000
  C   C1390     1.0  0.18435  0.65058  0.50485  1.0000
  C   C1391     1.0  0.19299  0.65119  0.49134  1.0000
  C   C1392     1.0  0.30718  0.63741  0.55216  1.0000
  C   C1393     1.0  0.22813  0.62418  0.49646  1.0000
  C   C1394     1.0  0.21943  0.62332  0.50997  1.0000
  C   C1395     1.0  0.19603  0.66126  0.53617  1.0000
  C   C1396     1.0  0.19895  0.66060  0.54918  1.0000
  C   C1397     1.0  0.20646  0.67931  0.55265  1.0000
  C   C1398     1.0  0.21077  0.69912  0.54317  1.0000
  C   C1399     1.0  0.20738  0.70024  0.53021  1.0000
  C   C1400     1.0  0.20002  0.68139  0.52672  1.0000
  H   H1102     1.0  0.24456  0.58437  0.55795  1.0000
  H   H1103     1.0  0.22320  0.55021  0.56257  1.0000
  H   H1104     1.0  0.18698  0.55324  0.55309  1.0000
  H   H1105     1.0  0.17132  0.59041  0.53978  1.0000
  H   H1106     1.0  0.23014  0.62113  0.54384  1.0000
  H   H1107     1.0  0.15128  0.62260  0.52005  1.0000
  H   H1108     1.0  0.10885  0.62185  0.52742  1.0000
  H   H1109     1.0  0.08795  0.63765  0.54771  1.0000
  H   H1110     1.0  0.10981  0.65455  0.56040  1.0000
  H   H1111     1.0  0.15240  0.65475  0.55347  1.0000
  H   H1112     1.0  0.16747  0.66108  0.50795  1.0000
  H   H1113     1.0  0.07291  0.94789  0.56079  1.0000
  H   H1114     1.0  0.24006  0.74459  0.51273  1.0000
  C   C1401     1.0  0.29359  0.73780  0.53844  1.0000
  H   H1115     1.0  0.22987  0.61229  0.51700  1.0000
  H   H1116     1.0  0.19545  0.64552  0.55667  1.0000
  H   H1117     1.0  0.20879  0.67832  0.56277  1.0000
  H   H1118     1.0  0.21662  0.71357  0.54592  1.0000
  H   H1119     1.0  0.23930  0.48403  0.67174  1.0000
  H   H1120     1.0  0.19738  0.68266  0.51670  1.0000
  C   C1402     1.0  0.13406  0.56075  0.60151  1.0000
  C   C1403     1.0  0.14597  0.54644  0.59228  1.0000
  C   C1404     1.0  0.13757  0.52610  0.59167  1.0000
  C   C1405     1.0  0.11712  0.52018  0.60019  1.0000
  C   C1406     1.0  0.10460  0.53487  0.60916  1.0000
  C   C1407     1.0  0.11353  0.55492  0.60999  1.0000
  P   P48       1.0  0.07816  0.52739  0.62018  1.0000
  C   C1408     1.0  0.06732  0.50496  0.61458  1.0000
  C   C1409     1.0  0.08672  0.51794  0.63631  1.0000
  H   H1121     1.0  0.21268  0.59011  0.47314  1.0000
  C   C1410     1.0  0.07778  0.53135  0.64646  1.0000
  S   S184      1.0  0.14491  0.49167  0.56312  1.0000
  H   H1122     1.0  0.24547  0.49900  0.55747  1.0000
  H   H1123     1.0  0.28243  0.52553  0.63593  1.0000
  C   C1411     1.0  0.01563  0.58887  0.61786  1.0000
  C   C1412     1.0  0.05810  0.51083  0.60275  1.0000
  C   C1413     1.0  0.05426  0.55210  0.61958  1.0000
  C   C1414     1.0  0.05565  0.57178  0.60943  1.0000
  C   C1415     1.0  0.03648  0.59016  0.60867  1.0000
  H   H1124     1.0  0.07789  0.54561  0.48775  1.0000
  H   H1125     1.0  0.07674  0.58838  0.48512  1.0000
  C   C1416     1.0  0.03302  0.55062  0.62853  1.0000
  H   H1126     1.0  0.14052  0.57665  0.60184  1.0000
  H   H1127     1.0  0.16159  0.55125  0.58554  1.0000
  H   H1128     1.0  0.26251  0.83250  0.71233  1.0000
  H   H1129     1.0  0.11105  0.50425  0.59970  1.0000
  H   H1130     1.0  0.10431  0.56632  0.61699  1.0000
  H   H1131     1.0  0.26195  0.53849  0.61649  1.0000
  H   H1132     1.0  0.06538  0.54753  0.64490  1.0000
  C   C1417     1.0  0.26332  0.52801  0.63729  1.0000
  H   H1133     1.0  0.16724  0.59076  0.51071  1.0000
  H   H1134     1.0  0.17340  0.83126  0.66592  1.0000
  H   H1135     1.0  0.24279  0.95743  0.68598  1.0000
  H   H1136     1.0  0.05682  0.52866  0.59734  1.0000
  H   H1137     1.0  0.07127  0.57293  0.60190  1.0000
  C   C1418     1.0  0.16456  0.49631  0.62174  1.0000
  H   H1138     1.0  0.24554  0.48596  0.48231  1.0000
  C   C1419     1.0  0.14535  0.95164  0.53425  1.0000
  H   H1139     1.0  0.03128  0.53512  0.63604  1.0000
  H   H1140     1.0  0.03790  0.60531  0.60082  1.0000
  H   H1141     1.0  0.20526  0.48916  0.55974  1.0000
  C   C1420     1.0  0.20965  0.58440  0.48374  1.0000
  C   C1421     1.0  0.18815  0.59248  0.49127  1.0000
  H   H1142     1.0  0.03890  0.50354  0.53787  1.0000
  C   C1422     1.0  0.31296  0.95106  0.49043  1.0000
  H   H1143     1.0  0.98851  0.51039  0.56779  1.0000
  C   C1423     1.0  0.24232  0.79499  0.70901  1.0000
  C   C1424     1.0  0.26776  0.67229  0.52821  1.0000
  H   H1144     1.0  0.26654  0.63144  0.50969  1.0000
  C   C1425     1.0  0.28383  0.70680  0.47830  1.0000
  H   H1145     1.0  0.14584  0.51649  0.66240  1.0000
  H   H1146     1.0  0.02331  0.54325  0.50445  1.0000
  C   C1426     1.0  0.08519  0.52415  0.65876  1.0000
  H   H1147     1.0  0.21570  0.52535  0.66190  1.0000
  C   C1427     1.0  0.26459  0.69088  0.50552  1.0000
  H   H1148     1.0  0.29515  0.83203  0.55736  1.0000
  C   C1428     1.0  0.07165  0.57836  0.49483  1.0000
  H   H1149     1.0  0.10724  0.49786  0.67054  1.0000
  C   C1429     1.0  0.00433  0.55365  0.54258  1.0000
  C   C1430     1.0  0.06687  0.54071  0.50908  1.0000
  C   C1431     1.0  0.26433  0.96513  0.66692  1.0000
  H   H1150     1.0  0.07830  0.53452  0.66657  1.0000
  H   H1151     1.0  0.16630  0.53315  0.61915  1.0000
  C   C1432     1.0  0.28492  0.71866  0.54694  1.0000
  C   C1433     1.0  0.18851  0.88949  0.71648  1.0000
  C   C1434     1.0  0.17089  0.91385  0.53703  1.0000
  C   C1435     1.0  0.26864  0.93293  0.71844  1.0000
  C   C1436     1.0  0.28443  0.51190  0.49979  1.0000
  C   C1437     1.0  0.26011  0.95358  0.55678  1.0000
  C   C1438     1.0  0.00671  0.48991  0.64720  1.0000
  C   C1439     1.0  0.18425  0.58533  0.50495  1.0000
  C   C1440     1.0  0.25178  0.53538  0.62637  1.0000
  H   H1152     1.0  0.25389  0.76011  0.71926  1.0000
  C   C1441     1.0  0.21327  0.49903  0.55057  1.0000
  H   H1153     1.0  0.12558  0.96917  0.62554  1.0000
  H   H1154     1.0  0.11394  0.96860  0.58507  1.0000
  H   H1155     1.0  0.29548  0.51868  0.50476  1.0000
  H   H1156     1.0  0.20843  0.85484  0.72068  1.0000
  H   H1157     1.0  0.31500  0.70283  0.48715  1.0000
  C   C1442     1.0  0.17286  0.96234  0.65304  1.0000
  H   H1158     1.0  0.30072  0.84640  0.70895  1.0000
  H   H1159     1.0  0.04914  0.48236  0.55923  1.0000
  H   H1160     1.0  0.17040  0.92402  0.70935  1.0000
  H   H1161     1.0  0.31211  0.77810  0.49023  1.0000
  H   H1162     1.0  0.31097  0.59966  0.51588  1.0000
  C   C1443     1.0  0.07376  0.49392  0.52661  1.0000
  C   C1444     1.0  0.25440  0.96596  0.53402  1.0000
  P   P49       1.0  0.26369  0.71639  0.49245  1.0000
  H   H1163     1.0  0.31874  0.68131  0.56548  1.0000
  H   H1164     1.0  0.26080  0.97395  0.52398  1.0000
  C   C1445     1.0  0.03586  0.50613  0.51102  1.0000
  C   C1446     1.0  0.17960  0.49228  0.64587  1.0000
  H   H1165     1.0  0.99131  0.52517  0.62193  1.0000
  H   H1166     1.0  0.25990  0.92642  0.47829  1.0000
  C   C1447     1.0  0.31550  0.81574  0.63704  1.0000
  C   C1448     1.0  0.31022  0.66715  0.56451  1.0000
  H   H1167     1.0  0.31537  0.87050  0.68760  1.0000
  C   C1449     1.0  0.06233  0.48173  0.55034  1.0000
  H   H1168     1.0  0.28556  0.96878  0.54116  1.0000
  H   H1169     1.0  0.14291  0.50093  0.48103  1.0000
  S   S185      1.0  0.31777  0.62179  0.53890  1.0000
  C   C1450     1.0  0.30357  0.52162  0.71677  1.0000
  C   C1451     1.0  0.10942  0.50414  0.49418  1.0000
  C   C1452     1.0  0.29486  0.49494  0.49178  1.0000
  C   C1453     1.0  0.98767  0.52329  0.55888  1.0000
  C   C1454     1.0  0.28091  0.48561  0.48544  1.0000
  H   H1170     1.0  0.31380  0.48912  0.49042  1.0000
  H   H1171     1.0  0.31718  0.91995  0.58806  1.0000
  C   C1455     1.0  0.20513  0.75534  0.47848  1.0000
  C   C1456     1.0  0.12532  0.49622  0.48349  1.0000
  H   H1172     1.0  0.17177  0.74492  0.47873  1.0000
  H   H1173     1.0  0.18071  0.93458  0.47374  1.0000
  C   C1457     1.0  0.22762  0.74828  0.48193  1.0000
  H   H1174     1.0  0.21317  0.97720  0.65880  1.0000
  H   H1175     1.0  0.11037  0.48117  0.51888  1.0000
  C   C1458     1.0  0.09665  0.48142  0.52748  1.0000
  C   C1459     1.0  0.11844  0.48258  0.47591  1.0000
  C   C1460     1.0  0.07978  0.48455  0.48978  1.0000
  H   H1176     1.0  0.31837  0.64811  0.60713  1.0000
  H   H1177     1.0  0.06219  0.48010  0.49194  1.0000
  C   C1461     1.0  0.00522  0.48143  0.51704  1.0000
  C   C1462     1.0  0.31910  0.88225  0.56012  1.0000
  H   H1178     1.0  0.98660  0.55324  0.57946  1.0000
  H   H1179     1.0  0.20017  0.77311  0.47338  1.0000
  H   H1180     1.0  0.07021  0.62701  0.84090  1.0000
  S   S186      1.0  0.21646  0.94498  0.94902  1.0000
  C   C1463     1.0  0.29075  0.95238  0.90499  1.0000
  C   C1464     1.0  0.10376  0.55180  0.94963  1.0000
  H   H1181     1.0  0.27985  0.53970  0.73140  1.0000
  Fe  Fe91      1.0  0.23948  0.53009  0.94510  1.0000
  S   S187      1.0  0.25010  0.49320  0.94060  1.0000
  S   S188      1.0  0.22353  0.55740  0.92927  1.0000
  P   P50       1.0  0.29943  0.93874  0.88004  1.0000
  Fe  Fe92      1.0  0.28512  0.49491  0.94545  1.0000
  P   P51       1.0  0.24452  0.88228  0.74827  1.0000
  H   H1182     1.0  0.03964  0.80259  0.90890  1.0000
  S   S189      1.0  0.27553  0.53246  0.94856  1.0000
  Fe  Fe93      1.0  0.12380  0.89107  0.91780  1.0000
  S   S190      1.0  0.12310  0.90339  0.89597  1.0000
  S   S191      1.0  0.12843  0.91686  0.93078  1.0000
  Fe  Fe94      1.0  0.11174  0.84234  0.91632  1.0000
  S   S192      1.0  0.11025  0.85195  0.89468  1.0000
  S   S193      1.0  0.10905  0.80486  0.92703  1.0000
  Fe  Fe95      1.0  0.14288  0.86722  0.89336  1.0000
  S   S194      1.0  0.17571  0.85295  0.88006  1.0000
  Fe  Fe96      1.0  0.09012  0.88673  0.89943  1.0000
  S   S195      1.0  0.05711  0.90577  0.89094  1.0000
  S   S196      1.0  0.14560  0.85587  0.91491  1.0000
  S   S197      1.0  0.08955  0.87646  0.92134  1.0000
  Fe  Fe97      1.0  0.06604  0.65169  0.90845  1.0000
  S   S198      1.0  0.07756  0.67301  0.92085  1.0000
  S   S199      1.0  0.03067  0.63873  0.91472  1.0000
  Fe  Fe98      1.0  0.11428  0.64711  0.89023  1.0000
  S   S200      1.0  0.12942  0.66832  0.90103  1.0000
  S   S201      1.0  0.13787  0.62675  0.87505  1.0000
  Fe  Fe99      1.0  0.11173  0.64726  0.91947  1.0000
  S   S202      1.0  0.12859  0.63071  0.93758  1.0000
  Fe  Fe100     1.0  0.09420  0.69217  0.90145  1.0000
  S   S203      1.0  0.08886  0.73183  0.89504  1.0000
  S   S204      1.0  0.09894  0.62451  0.90864  1.0000
  S   S205      1.0  0.08038  0.67248  0.88905  1.0000
  C   C1465     1.0  0.20405  0.84032  0.81782  1.0000
  S   S206      1.0  0.28533  0.90747  0.80818  1.0000
  H   H1183     1.0  0.01077  0.84059  0.90172  1.0000
  Fe  Fe101     1.0  0.29129  0.83972  0.80827  1.0000
  S   S207      1.0  0.26631  0.86683  0.79720  1.0000
  H   H1184     1.0  0.15740  0.77480  0.85401  1.0000
  Fe  Fe102     1.0  0.29597  0.88813  0.79099  1.0000
  C   C1466     1.0  0.14857  0.64468  0.96535  1.0000
  Fe  Fe103     1.0  0.25791  0.88384  0.81542  1.0000
  S   S208      1.0  0.22050  0.90040  0.82306  1.0000
  H   H1185     1.0  0.05414  0.68667  0.86824  1.0000
  S   S209      1.0  0.28135  0.85561  0.82693  1.0000
  Fe  Fe104     1.0  0.23702  0.64841  0.78180  1.0000
  S   S210      1.0  0.22284  0.62917  0.80184  1.0000
  S   S211      1.0  0.24459  0.63346  0.76236  1.0000
  Fe  Fe105     1.0  0.24370  0.69099  0.79381  1.0000
  S   S212      1.0  0.23089  0.67355  0.81448  1.0000
  S   S213      1.0  0.24556  0.73066  0.78895  1.0000
  Fe  Fe106     1.0  0.25264  0.63998  0.80862  1.0000
  C   C1467     1.0  0.25427  0.58292  0.78801  1.0000
  Fe  Fe107     1.0  0.20255  0.66441  0.80590  1.0000
  S   S214      1.0  0.16449  0.67446  0.81539  1.0000
  S   S215      1.0  0.26801  0.65782  0.78843  1.0000
  S   S216      1.0  0.21427  0.68297  0.78538  1.0000
  C   C1468     1.0  0.01454  0.71401  0.92535  1.0000
  C   C1469     1.0  0.24545  0.55139  0.89306  1.0000
  S   S217      1.0  0.18979  0.56665  0.74209  1.0000
  C   C1470     1.0  0.22893  0.61495  0.75692  1.0000
  C   C1471     1.0  0.20740  0.60886  0.76402  1.0000
  C   C1472     1.0  0.19569  0.59420  0.75930  1.0000
  C   C1473     1.0  0.20553  0.58494  0.74760  1.0000
  C   C1474     1.0  0.27033  0.86639  0.75510  1.0000
  C   C1475     1.0  0.23860  0.60595  0.74514  1.0000
  H   H1186     1.0  0.19957  0.61574  0.77303  1.0000
  H   H1187     1.0  0.17887  0.58997  0.76475  1.0000
  C   C1476     1.0  0.20925  0.95629  0.87142  1.0000
  C   C1477     1.0  0.21633  0.91465  0.78051  1.0000
  C   C1478     1.0  0.28037  0.78076  0.80489  1.0000
  H   H1188     1.0  0.18885  0.81277  0.74861  1.0000
  C   C1479     1.0  0.27644  0.74051  0.80340  1.0000
  C   C1480     1.0  0.25818  0.74928  0.79607  1.0000
  C   C1481     1.0  0.25046  0.77384  0.79365  1.0000
  C   C1482     1.0  0.26124  0.78948  0.79818  1.0000
  H   H1189     1.0  0.15426  0.73822  0.82433  1.0000
  P   P52       1.0  0.03496  0.66506  0.85089  1.0000
  H   H1190     1.0  0.23622  0.78080  0.78809  1.0000
  H   H1191     1.0  0.25508  0.80827  0.79623  1.0000
  C   C1483     1.0  0.00788  0.66840  0.89531  1.0000
  H   H1192     1.0  0.02367  0.67638  0.89222  1.0000
  C   C1484     1.0  0.26926  0.93911  0.76843  1.0000
  C   C1485     1.0  0.29214  0.93086  0.76247  1.0000
  C   C1486     1.0  0.30105  0.94173  0.74969  1.0000
  C   C1487     1.0  0.17062  0.74272  0.82563  1.0000
  H   H1193     1.0  0.26242  0.93104  0.77834  1.0000
  C   C1488     1.0  0.19172  0.72725  0.82306  1.0000
  C   C1489     1.0  0.14431  0.64012  0.85842  1.0000
  C   C1490     1.0  0.16375  0.62945  0.85023  1.0000
  C   C1491     1.0  0.17027  0.64008  0.83707  1.0000
  C   C1492     1.0  0.15676  0.66099  0.83189  1.0000
  C   C1493     1.0  0.13678  0.67127  0.83993  1.0000
  C   C1494     1.0  0.13077  0.66109  0.85327  1.0000
  H   H1194     1.0  0.17403  0.61312  0.85418  1.0000
  H   H1195     1.0  0.18551  0.63194  0.83085  1.0000
  H   H1196     1.0  0.12616  0.68732  0.83588  1.0000
  H   H1197     1.0  0.11567  0.66934  0.85952  1.0000
  H   H1198     1.0  0.22996  0.51345  0.84728  1.0000
  C   C1495     1.0  0.00669  0.64987  0.90604  1.0000
  C   C1496     1.0  0.18288  0.48703  0.94243  1.0000
  C   C1497     1.0  0.03315  0.81867  0.92634  1.0000
  H   H1199     1.0  0.10553  0.87200  0.95614  1.0000
  H   H1200     1.0  0.16945  0.85103  0.75544  1.0000
  C   C1498     1.0  0.26847  0.84642  0.76505  1.0000
  C   C1499     1.0  0.18740  0.86745  0.86445  1.0000
  C   C1500     1.0  0.17480  0.88729  0.85756  1.0000
  C   C1501     1.0  0.18492  0.89732  0.84477  1.0000
  C   C1502     1.0  0.20764  0.88762  0.83896  1.0000
  C   C1503     1.0  0.21998  0.86785  0.84593  1.0000
  C   C1504     1.0  0.21001  0.85800  0.85863  1.0000
  H   H1201     1.0  0.15725  0.89465  0.86200  1.0000
  H   H1202     1.0  0.17516  0.91256  0.83939  1.0000
  H   H1203     1.0  0.23720  0.85999  0.84158  1.0000
  H   H1204     1.0  0.21995  0.84298  0.86402  1.0000
  C   C1505     1.0  0.03180  0.89265  0.89182  1.0000
  C   C1506     1.0  0.03162  0.86865  0.89663  1.0000
  C   C1507     1.0  0.01111  0.90681  0.88800  1.0000
  H   H1205     1.0  0.04745  0.85752  0.89947  1.0000
  H   H1206     1.0  0.01110  0.92538  0.88419  1.0000
  C   C1508     1.0  0.10458  0.78429  0.91788  1.0000
  C   C1509     1.0  0.09707  0.79180  0.90566  1.0000
  C   C1510     1.0  0.09296  0.77542  0.89868  1.0000
  C   C1511     1.0  0.09609  0.75128  0.90387  1.0000
  C   C1512     1.0  0.10389  0.74352  0.91603  1.0000
  C   C1513     1.0  0.10806  0.76003  0.92303  1.0000
  H   H1207     1.0  0.09347  0.81031  0.90179  1.0000
  H   H1208     1.0  0.08680  0.78164  0.88934  1.0000
  H   H1209     1.0  0.10627  0.72492  0.92014  1.0000
  H   H1210     1.0  0.11379  0.75404  0.93251  1.0000
  C   C1514     1.0  0.19623  0.57634  0.93201  1.0000
  C   C1515     1.0  0.18611  0.58874  0.92103  1.0000
  C   C1516     1.0  0.16495  0.60483  0.92269  1.0000
  C   C1517     1.0  0.15385  0.60885  0.93536  1.0000
  C   C1518     1.0  0.16368  0.59603  0.94637  1.0000
  C   C1519     1.0  0.18479  0.57977  0.94471  1.0000
  H   H1211     1.0  0.19460  0.58582  0.91120  1.0000
  H   H1212     1.0  0.15744  0.61446  0.91414  1.0000
  H   H1213     1.0  0.15500  0.59874  0.95620  1.0000
  H   H1214     1.0  0.19237  0.57011  0.95321  1.0000
  C   C1520     1.0  0.01297  0.64746  0.83440  1.0000
  H   H1215     1.0  0.27104  0.92545  0.93616  1.0000
  H   H1216     1.0  0.07513  0.60639  0.95523  1.0000
  H   H1217     1.0  0.21638  0.60080  0.84151  1.0000
  C   C1521     1.0  0.15335  0.92465  0.93545  1.0000
  C   C1522     1.0  0.15075  0.94611  0.94012  1.0000
  C   C1523     1.0  0.16972  0.95276  0.94423  1.0000
  C   C1524     1.0  0.19163  0.93785  0.94393  1.0000
  C   C1525     1.0  0.19414  0.91634  0.93936  1.0000
  C   C1526     1.0  0.17529  0.90988  0.93504  1.0000
  H   H1218     1.0  0.29082  0.60693  0.74989  1.0000
  H   H1219     1.0  0.21457  0.75606  0.73286  1.0000
  H   H1220     1.0  0.21080  0.90449  0.93924  1.0000
  H   H1221     1.0  0.17758  0.89321  0.93167  1.0000
  H   H1222     1.0  0.31888  0.93557  0.74510  1.0000
  H   H1223     1.0  0.28869  0.90762  0.84154  1.0000
  C   C1527     1.0  0.31225  0.86128  0.75591  1.0000
  C   C1528     1.0  0.14740  0.51585  0.94678  1.0000
  H   H1224     1.0  0.25498  0.61082  0.73941  1.0000
  H   H1225     1.0  0.13433  0.65330  0.95998  1.0000
  P   P53       1.0  0.02415  0.83956  0.94897  1.0000
  C   C1529     1.0  0.07174  0.83449  0.95130  1.0000
  H   H1226     1.0  0.18051  0.78811  0.72988  1.0000
  H   H1227     1.0  0.02572  0.74905  0.89340  1.0000
  H   H1228     1.0  0.26304  0.63262  0.89041  1.0000
  S   S218      1.0  0.30985  0.90667  0.77055  1.0000
  H   H1229     1.0  0.29556  0.60451  0.92472  1.0000
  H   H1230     1.0  0.28936  0.51051  0.91596  1.0000
  Fe  Fe108     1.0  0.20272  0.54315  0.72610  1.0000
  C   C1530     1.0  0.18838  0.84786  0.75205  1.0000
  H   H1231     1.0  0.03128  0.88420  0.95491  1.0000
  H   H1232     1.0  0.19315  0.88151  0.75511  1.0000
  C   C1531     1.0  0.22399  0.89774  0.91124  1.0000
  C   C1532     1.0  0.20708  0.85554  0.80570  1.0000
  H   H1233     1.0  0.00815  0.83413  0.87478  1.0000
  C   C1533     1.0  0.28186  0.90939  0.85177  1.0000
  C   C1534     1.0  0.27699  0.58826  0.78616  1.0000
  C   C1535     1.0  0.30669  0.54718  0.75678  1.0000
  C   C1536     1.0  0.03493  0.80308  0.87641  1.0000
  C   C1537     1.0  0.03967  0.77911  0.88167  1.0000
  C   C1538     1.0  0.02160  0.76766  0.88957  1.0000
  H   H1234     1.0  0.11776  0.66478  0.81134  1.0000
  H   H1235     1.0  0.27662  0.57028  0.74961  1.0000
  H   H1236     1.0  0.09228  0.70259  0.81516  1.0000
  H   H1237     1.0  0.05198  0.48721  0.95670  1.0000
  C   C1539     1.0  0.21336  0.87997  0.90901  1.0000
  C   C1540     1.0  0.31931  0.93555  0.95088  1.0000
  C   C1541     1.0  0.03975  0.79215  0.94666  1.0000
  C   C1542     1.0  0.28838  0.83407  0.77034  1.0000
  C   C1543     1.0  0.00478  0.89859  0.92251  1.0000
  H   H1238     1.0  0.06677  0.89827  0.95768  1.0000
  C   C1544     1.0  0.26161  0.91993  0.73086  1.0000
  H   H1239     1.0  0.30898  0.55998  0.87064  1.0000
  C   C1545     1.0  0.07198  0.62145  0.87825  1.0000
  C   C1546     1.0  0.29332  0.92095  0.85841  1.0000
  C   C1547     1.0  0.27863  0.62100  0.90797  1.0000
  H   H1240     1.0  0.22686  0.93431  0.90680  1.0000
  H   H1241     1.0  0.07589  0.51883  0.94997  1.0000
  H   H1242     1.0  0.04900  0.81207  0.87048  1.0000
  H   H1243     1.0  0.05739  0.76934  0.87971  1.0000
  C   C1548     1.0  0.04803  0.87235  0.95441  1.0000
  C   C1549     1.0  0.00691  0.86326  0.93927  1.0000
  H   H1244     1.0  0.30222  0.74921  0.81293  1.0000
  H   H1245     1.0  0.18573  0.53751  0.91999  1.0000
  C   C1550     1.0  0.15668  0.53176  0.93593  1.0000
  C   C1551     1.0  0.00617  0.82996  0.96459  1.0000
  C   C1552     1.0  0.28680  0.96021  0.74270  1.0000
  C   C1553     1.0  0.00556  0.73587  0.91846  1.0000
  C   C1554     1.0  0.01196  0.81549  0.87879  1.0000
  C   C1555     1.0  0.28630  0.91229  0.90497  1.0000
  H   H1246     1.0  0.01447  0.75076  0.91751  1.0000
  C   C1556     1.0  0.20192  0.86512  0.75184  1.0000
  H   H1247     1.0  0.18447  0.93884  0.86568  1.0000
  C   C1557     1.0  0.09890  0.55310  0.93688  1.0000
  C   C1558     1.0  0.08496  0.57312  0.93103  1.0000
  C   C1559     1.0  0.07609  0.59214  0.93775  1.0000
  H   H1248     1.0  0.15350  0.94483  0.90834  1.0000
  C   C1560     1.0  0.28334  0.94920  0.91870  1.0000
  H   H1249     1.0  0.14756  0.54963  0.93360  1.0000
  C   C1561     1.0  0.08146  0.59131  0.95024  1.0000
  C   C1562     1.0  0.26350  0.96771  0.74845  1.0000
  C   C1563     1.0  0.01796  0.88063  0.93025  1.0000
  C   C1564     1.0  0.20086  0.92679  0.89677  1.0000
  C   C1565     1.0  0.29337  0.56917  0.75274  1.0000
  H   H1250     1.0  0.10661  0.62710  0.82414  1.0000
  H   H1251     1.0  0.18921  0.95473  0.75769  1.0000
  H   H1252     1.0  0.10562  0.53849  0.93155  1.0000
  H   H1253     1.0  0.08107  0.57405  0.92124  1.0000
  H   H1254     1.0  0.06528  0.60768  0.93321  1.0000
  H   H1255     1.0  0.13388  0.95771  0.94056  1.0000
  C   C1566     1.0  0.99863  0.78021  0.89234  1.0000
  C   C1567     1.0  0.13490  0.72750  0.86756  1.0000
  C   C1568     1.0  0.14475  0.71406  0.85763  1.0000
  C   C1569     1.0  0.16804  0.70229  0.85694  1.0000
  C   C1570     1.0  0.18165  0.70437  0.86605  1.0000
  C   C1571     1.0  0.17216  0.71873  0.87571  1.0000
  C   C1572     1.0  0.14843  0.72963  0.87668  1.0000
  P   P54       1.0  0.18998  0.72204  0.88719  1.0000
  C   C1573     1.0  0.17832  0.74892  0.89382  1.0000
  C   C1574     1.0  0.18975  0.69623  0.89996  1.0000
  C   C1575     1.0  0.16979  0.69423  0.90988  1.0000
  C   C1576     1.0  0.16943  0.67435  0.91983  1.0000
  C   C1577     1.0  0.18882  0.65616  0.91983  1.0000
  C   C1578     1.0  0.20847  0.65767  0.90978  1.0000
  C   C1579     1.0  0.20887  0.67752  0.89978  1.0000
  C   C1580     1.0  0.17203  0.76977  0.88517  1.0000
  C   C1581     1.0  0.16353  0.79101  0.88990  1.0000
  C   C1582     1.0  0.16130  0.79156  0.90335  1.0000
  C   C1583     1.0  0.16778  0.77095  0.91205  1.0000
  C   C1584     1.0  0.17658  0.74972  0.90731  1.0000
  C   C1585     1.0  0.21941  0.72609  0.87876  1.0000
  C   C1586     1.0  0.22389  0.73429  0.86506  1.0000
  C   C1587     1.0  0.24665  0.73781  0.85871  1.0000
  C   C1588     1.0  0.26493  0.73388  0.86601  1.0000
  C   C1589     1.0  0.26045  0.72651  0.87970  1.0000
  C   C1590     1.0  0.23774  0.72276  0.88608  1.0000
  H   H1256     1.0  0.11658  0.73596  0.86837  1.0000
  H   H1257     1.0  0.13418  0.71244  0.85061  1.0000
  H   H1258     1.0  0.17542  0.69140  0.84939  1.0000
  H   H1259     1.0  0.19959  0.69494  0.86548  1.0000
  H   H1260     1.0  0.14021  0.73968  0.88450  1.0000
  H   H1261     1.0  0.15433  0.70792  0.90984  1.0000
  H   H1262     1.0  0.15384  0.67274  0.92737  1.0000
  H   H1263     1.0  0.18835  0.64066  0.92748  1.0000
  H   H1264     1.0  0.22317  0.64322  0.90965  1.0000
  H   H1265     1.0  0.22393  0.67804  0.89185  1.0000
  H   H1266     1.0  0.17371  0.76950  0.87476  1.0000
  H   H1267     1.0  0.15865  0.80713  0.88320  1.0000
  H   H1268     1.0  0.15436  0.80796  0.90704  1.0000
  H   H1269     1.0  0.16568  0.77154  0.92251  1.0000
  H   H1270     1.0  0.18196  0.73413  0.91419  1.0000
  H   H1271     1.0  0.20987  0.73833  0.85923  1.0000
  H   H1272     1.0  0.25009  0.74405  0.84813  1.0000
  H   H1273     1.0  0.28247  0.73694  0.86106  1.0000
  H   H1274     1.0  0.27454  0.72393  0.88539  1.0000
  H   H1275     1.0  0.23441  0.71751  0.89673  1.0000
  C   C1591     1.0  0.24100  0.52831  0.89497  1.0000
  C   C1592     1.0  0.24875  0.51507  0.88476  1.0000
  C   C1593     1.0  0.26052  0.52512  0.87255  1.0000
  C   C1594     1.0  0.29537  0.52647  0.72961  1.0000
  Fe  Fe109     1.0  0.23890  0.48146  0.96245  1.0000
  H   H1276     1.0  0.23198  0.52061  0.90448  1.0000
  C   C1595     1.0  0.28939  0.60177  0.91617  1.0000
  H   H1277     1.0  0.26661  0.51483  0.86466  1.0000
  P   P55       1.0  0.12027  0.52511  0.95757  1.0000
  C   C1596     1.0  0.04575  0.77687  0.92620  1.0000
  S   S219      1.0  0.19496  0.50597  0.73142  1.0000
  H   H1278     1.0  0.19791  0.48307  0.79826  1.0000
  C   C1597     1.0  0.00992  0.65846  0.84548  1.0000
  C   C1598     1.0  0.02767  0.69387  0.85571  1.0000
  C   C1599     1.0  0.04024  0.69950  0.86437  1.0000
  C   C1600     1.0  0.03498  0.72177  0.86809  1.0000
  C   C1601     1.0  0.01717  0.73872  0.86309  1.0000
  C   C1602     1.0  0.00477  0.73341  0.85430  1.0000
  C   C1603     1.0  0.01012  0.71117  0.85051  1.0000
  H   H1279     1.0  0.20592  0.86076  0.78488  1.0000
  H   H1280     1.0  0.27764  0.63286  0.86043  1.0000
  H   H1281     1.0  0.23665  0.89350  0.91790  1.0000
  H   H1282     1.0  0.04478  0.72579  0.87487  1.0000
  H   H1283     1.0  0.01299  0.75598  0.86597  1.0000
  C   C1604     1.0  0.19785  0.79026  0.72422  1.0000
  C   C1605     1.0  0.19165  0.50275  0.93148  1.0000
  C   C1606     1.0  0.26157  0.90014  0.85829  1.0000
  C   C1607     1.0  0.25255  0.90269  0.87142  1.0000
  H   H1284     1.0  0.25267  0.89131  0.85309  1.0000
  H   H1285     1.0  0.23655  0.89587  0.87637  1.0000
  C   C1608     1.0  0.26435  0.52383  0.75998  1.0000
  C   C1609     1.0  0.25276  0.50977  0.75495  1.0000
  C   C1610     1.0  0.22820  0.51159  0.75800  1.0000
  C   C1611     1.0  0.21505  0.52746  0.76610  1.0000
  C   C1612     1.0  0.22654  0.54112  0.77141  1.0000
  C   C1613     1.0  0.25115  0.53911  0.76848  1.0000
  C   C1614     1.0  0.20349  0.84899  0.79426  1.0000
  C   C1615     1.0  0.08989  0.86550  0.95530  1.0000
  H   H1286     1.0  0.19592  0.52961  0.76796  1.0000
  H   H1287     1.0  0.21629  0.55364  0.77754  1.0000
  C   C1616     1.0  0.27090  0.61753  0.89683  1.0000
  C   C1617     1.0  0.21459  0.54386  0.85642  1.0000
  C   C1618     1.0  0.21085  0.56846  0.85488  1.0000
  H   H1288     1.0  0.20846  0.53360  0.86588  1.0000
  H   H1289     1.0  0.20181  0.57724  0.86312  1.0000
  H   H1290     1.0  0.26005  0.97015  0.85134  1.0000
  C   C1619     1.0  0.21303  0.73323  0.82424  1.0000
  C   C1620     1.0  0.28553  0.55787  0.80477  1.0000
  C   C1621     1.0  0.17079  0.76420  0.82940  1.0000
  C   C1622     1.0  0.19204  0.77006  0.83106  1.0000
  C   C1623     1.0  0.21325  0.75459  0.82815  1.0000
  P   P56       1.0  0.19256  0.79901  0.83440  1.0000
  C   C1624     1.0  0.21687  0.79806  0.84284  1.0000
  C   C1625     1.0  0.19673  0.81860  0.81867  1.0000
  C   C1626     1.0  0.19334  0.81207  0.80707  1.0000
  C   C1627     1.0  0.19681  0.82718  0.79493  1.0000
  C   C1628     1.0  0.21298  0.79726  0.85660  1.0000
  C   C1629     1.0  0.23182  0.79619  0.86313  1.0000
  C   C1630     1.0  0.25463  0.79658  0.85595  1.0000
  C   C1631     1.0  0.25863  0.79773  0.84225  1.0000
  C   C1632     1.0  0.23987  0.79846  0.83570  1.0000
  C   C1633     1.0  0.16562  0.80961  0.84501  1.0000
  C   C1634     1.0  0.15913  0.83377  0.84566  1.0000
  C   C1635     1.0  0.13933  0.84177  0.85456  1.0000
  C   C1636     1.0  0.12582  0.82579  0.86290  1.0000
  C   C1637     1.0  0.15220  0.79361  0.85370  1.0000
  H   H1291     1.0  0.22953  0.72173  0.82161  1.0000
  C   C1638     1.0  0.24705  0.56523  0.79822  1.0000
  H   H1292     1.0  0.23010  0.75929  0.82835  1.0000
  H   H1293     1.0  0.18828  0.79526  0.80724  1.0000
  H   H1294     1.0  0.19439  0.82188  0.78603  1.0000
  H   H1295     1.0  0.19540  0.79810  0.86232  1.0000
  H   H1296     1.0  0.22852  0.79587  0.87373  1.0000
  H   H1297     1.0  0.26917  0.79634  0.86094  1.0000
  H   H1298     1.0  0.27630  0.79831  0.83666  1.0000
  H   H1299     1.0  0.24334  0.79955  0.82506  1.0000
  H   H1300     1.0  0.16960  0.84651  0.83961  1.0000
  H   H1301     1.0  0.13476  0.86039  0.85520  1.0000
  H   H1302     1.0  0.11062  0.83205  0.86987  1.0000
  C   C1639     1.0  0.20005  0.93885  0.76184  1.0000
  C   C1640     1.0  0.20156  0.93458  0.77528  1.0000
  H   H1303     1.0  0.20348  0.51949  0.82881  1.0000
  H   H1304     1.0  0.19174  0.94701  0.78159  1.0000
  H   H1305     1.0  0.21182  0.92681  0.74323  1.0000
  H   H1306     1.0  0.29485  0.52031  0.89146  1.0000
  S   S220      1.0  0.27040  0.61314  0.82401  1.0000
  C   C1641     1.0  0.22665  0.53254  0.84585  1.0000
  H   H1307     1.0  0.15440  0.77648  0.83064  1.0000
  H   H1308     1.0  0.21236  0.87240  0.80522  1.0000
  C   C1642     1.0  0.01081  0.85912  0.89793  1.0000
  C   C1643     1.0  0.21895  0.58174  0.84273  1.0000
  H   H1309     1.0  0.09884  0.57100  0.96593  1.0000
  H   H1310     1.0  0.26209  0.50867  0.79697  1.0000
  H   H1311     1.0  0.30790  0.51863  0.78275  1.0000
  C   C1644     1.0  0.98864  0.67648  0.88850  1.0000
  H   H1312     1.0  0.03033  0.64315  0.82867  1.0000
  C   C1645     1.0  0.13228  0.80170  0.86249  1.0000
  C   C1646     1.0  0.26479  0.54831  0.87058  1.0000
  H   H1313     1.0  0.21797  0.91168  0.79088  1.0000
  H   H1314     1.0  0.19153  0.71096  0.81975  1.0000
  H   H1315     1.0  0.23953  0.56131  0.90112  1.0000
  C   C1647     1.0  0.25119  0.58979  0.95174  1.0000
  H   H1316     1.0  0.21785  0.86194  0.91386  1.0000
  C   C1648     1.0  0.27724  0.92767  0.92555  1.0000
  H   H1317     1.0  0.05175  0.75557  0.94486  1.0000
  H   H1318     1.0  0.23217  0.80538  0.74096  1.0000
  H   H1319     1.0  0.28765  0.55788  0.89989  1.0000
  C   C1649     1.0  0.22798  0.90293  0.75883  1.0000
  C   C1650     1.0  0.28473  0.57555  0.90211  1.0000
  H   H1320     1.0  0.26266  0.49743  0.74862  1.0000
  C   C1651     1.0  0.30154  0.59000  0.75270  1.0000
  C   C1652     1.0  0.03929  0.79963  0.91948  1.0000
  H   H1321     1.0  0.23493  0.58403  0.73154  1.0000
  H   H1322     1.0  0.31131  0.62482  0.80410  1.0000
  H   H1323     1.0  0.18045  0.49887  0.81900  1.0000
  C   C1653     1.0  0.20065  0.94628  0.86261  1.0000
  C   C1654     1.0  0.25799  0.56131  0.88100  1.0000
  H   H1324     1.0  0.27368  0.55588  0.86101  1.0000
  C   C1655     1.0  0.30693  0.51409  0.74005  1.0000
  C   C1656     1.0  0.22952  0.89893  0.77230  1.0000
  C   C1657     1.0  0.23466  0.54581  0.83357  1.0000
  C   C1658     1.0  0.23073  0.57053  0.83211  1.0000
  H   H1325     1.0  0.12216  0.78926  0.86925  1.0000
  C   C1659     1.0  0.21165  0.51233  0.81993  1.0000
  H   H1326     1.0  0.20887  0.49785  0.92573  1.0000
  Fe  Fe110     1.0  0.22417  0.97774  0.95548  1.0000
  C   C1660     1.0  0.25503  0.95754  0.76144  1.0000
  C   C1661     1.0  0.30568  0.50358  0.91005  1.0000
  C   C1662     1.0  0.23726  0.83944  0.74355  1.0000
  H   H1327     1.0  0.00730  0.63478  0.87210  1.0000
  P   P57       1.0  0.19356  0.95657  0.88819  1.0000
  C   C1663     1.0  0.29242  0.87374  0.75061  1.0000
  P   P58       1.0  0.29610  0.52043  0.75655  1.0000
  C   C1664     1.0  0.31407  0.48202  0.79128  1.0000
  H   H1328     1.0  0.25642  0.91679  0.88799  1.0000
  H   H1329     1.0  0.29639  0.96891  0.90003  1.0000
  C   C1665     1.0  0.27940  0.90900  0.91874  1.0000
  C   C1666     1.0  0.29243  0.57905  0.91324  1.0000
  H   H1330     1.0  0.23719  0.96365  0.76601  1.0000
  C   C1667     1.0  0.07466  0.64364  0.83526  1.0000
  C   C1668     1.0  0.04269  0.64311  0.86486  1.0000
  C   C1669     1.0  0.02552  0.63108  0.87347  1.0000
  C   C1670     1.0  0.22651  0.86091  0.74775  1.0000
  C   C1671     1.0  0.26395  0.91439  0.87803  1.0000
  C   C1672     1.0  0.23430  0.95437  0.84564  1.0000
  C   C1673     1.0  0.23488  0.51499  0.81386  1.0000
  H   H1331     1.0  0.27467  0.48148  0.81825  1.0000
  C   C1674     1.0  0.06599  0.63817  0.86739  1.0000
  H   H1332     1.0  0.07959  0.64739  0.86112  1.0000
  H   H1333     1.0  0.24104  0.88381  0.77646  1.0000
  H   H1334     1.0  0.29865  0.95880  0.78547  1.0000
  H   H1335     1.0  0.05117  0.76223  0.92081  1.0000
  H   H1336     1.0  0.23714  0.58137  0.82293  1.0000
  C   C1675     1.0  0.26630  0.97150  0.79746  1.0000
  C   C1676     1.0  0.06036  0.66505  0.83775  1.0000
  H   H1337     1.0  0.28264  0.72172  0.80531  1.0000
  H   H1338     1.0  0.20653  0.93757  0.84302  1.0000
  H   H1339     1.0  0.25163  0.84054  0.76892  1.0000
  H   H1340     1.0  0.02870  0.83619  0.92096  1.0000
  H   H1341     1.0  0.18847  0.87169  0.89896  1.0000
  H   H1342     1.0  0.17735  0.91255  0.88806  1.0000
  C   C1677     1.0  0.21311  0.92306  0.75364  1.0000
  P   P59       1.0  0.25205  0.53100  0.82035  1.0000
  H   H1343     1.0  0.22908  0.56190  0.79969  1.0000
  C   C1678     1.0  0.29405  0.96936  0.87233  1.0000
  C   C1679     1.0  0.03157  0.61452  0.88437  1.0000
  H   H1344     1.0  0.01806  0.60597  0.89123  1.0000
  H   H1345     1.0  0.20751  0.84553  0.82650  1.0000
  H   H1346     1.0  0.28213  0.60261  0.77847  1.0000
  C   C1680     1.0  0.28755  0.75618  0.80768  1.0000
  C   C1681     1.0  0.28754  0.51921  0.83561  1.0000
  C   C1682     1.0  0.11308  0.97425  0.88921  1.0000
  C   C1683     1.0  0.19664  0.88550  0.90065  1.0000
  C   C1684     1.0  0.19036  0.90876  0.89453  1.0000
  C   C1685     1.0  0.30575  0.50424  0.84135  1.0000
  C   C1686     1.0  0.29269  0.57561  0.79446  1.0000
  C   C1687     1.0  0.21787  0.92105  0.90513  1.0000
  C   C1688     1.0  0.09523  0.64358  0.82575  1.0000
  C   C1689     1.0  0.05474  0.60979  0.88680  1.0000
  H   H1347     1.0  0.08993  0.61786  0.88018  1.0000
  H   H1348     1.0  0.21937  0.50095  0.75388  1.0000
  C   C1690     1.0  0.99024  0.89726  0.88937  1.0000
  C   C1691     1.0  0.27359  0.59472  0.89393  1.0000
  C   C1692     1.0  0.28463  0.92328  0.87169  1.0000
  H   H1349     1.0  0.31009  0.58022  0.79318  1.0000
  C   C1693     1.0  0.99383  0.80404  0.88658  1.0000
  H   H1350     1.0  0.29759  0.54903  0.81143  1.0000
  H   H1351     1.0  0.16733  0.96932  0.94774  1.0000
  H   H1352     1.0  0.05920  0.59752  0.89550  1.0000
  H   H1353     1.0  0.27649  0.63861  0.91020  1.0000
  C   C1694     1.0  0.14668  0.95534  0.89977  1.0000
  C   C1695     1.0  0.26262  0.55257  0.80670  1.0000
  H   H1354     1.0  0.24197  0.59285  0.78169  1.0000
  C   C1696     1.0  0.04985  0.84949  0.95170  1.0000
  H   H1355     1.0  0.03685  0.88013  0.92890  1.0000
  C   C1697     1.0  0.06664  0.68634  0.83029  1.0000
  H   H1356     1.0  0.05599  0.70310  0.83196  1.0000
  H   H1357     1.0  0.28692  0.81891  0.77814  1.0000
  H   H1358     1.0  0.01030  0.67754  0.93185  1.0000
  C   C1698     1.0  0.15283  0.97767  0.87758  1.0000
  C   C1699     1.0  0.27609  0.51135  0.82720  1.0000
  H   H1359     1.0  0.30895  0.92806  0.85316  1.0000
  P   P60       1.0  0.26497  0.59054  0.87910  1.0000
  C   C1700     1.0  0.10151  0.66483  0.81851  1.0000
  S   S221      1.0  0.29636  0.79956  0.80971  1.0000
  C   C1701     1.0  0.24447  0.50624  0.80203  1.0000
  C   C1702     1.0  0.30915  0.50076  0.78110  1.0000
  C   C1703     1.0  0.30757  0.57874  0.82954  1.0000
  C   C1704     1.0  0.08167  0.50364  0.95696  1.0000
  C   C1705     1.0  0.08716  0.68617  0.82072  1.0000
  C   C1706     1.0  0.22722  0.59077  0.74061  1.0000
  S   S222      1.0  0.27520  0.48006  0.96697  1.0000
  H   H1360     1.0  0.98982  0.69066  0.88015  1.0000
  S   S223      1.0  0.22548  0.51829  0.96661  1.0000
  H   H1361     1.0  0.20697  0.64420  0.96440  1.0000
  H   H1362     1.0  0.21427  0.59744  0.95932  1.0000
  C   C1707     1.0  0.16214  0.96327  0.88838  1.0000
  H   H1363     1.0  0.25623  0.83582  0.74039  1.0000
  C   C1708     1.0  0.23829  0.61046  0.87593  1.0000
  C   C1709     1.0  0.23440  0.61940  0.86292  1.0000
  C   C1710     1.0  0.22059  0.61615  0.88656  1.0000
  H   H1364     1.0  0.24724  0.61434  0.85452  1.0000
  H   H1365     1.0  0.22281  0.60865  0.89665  1.0000
  H   H1366     1.0  0.26287  0.92629  0.73964  1.0000
  H   H1367     1.0  0.29498  0.57177  0.83771  1.0000
  C   C1711     1.0  0.00309  0.69466  0.92679  1.0000
  C   C1712     1.0  0.10222  0.50194  0.96233  1.0000
  H   H1368     1.0  0.27556  0.89203  0.92417  1.0000
  C   C1713     1.0  0.22369  0.82218  0.74385  1.0000
  C   C1714     1.0  0.06802  0.88035  0.95610  1.0000
  C   C1715     1.0  0.21366  0.63492  0.86064  1.0000
  C   C1716     1.0  0.19965  0.63126  0.88424  1.0000
  H   H1369     1.0  0.21080  0.64197  0.85059  1.0000
  C   C1717     1.0  0.23189  0.59547  0.96151  1.0000
  C   C1718     1.0  0.29190  0.61827  0.85909  1.0000
  C   C1719     1.0  0.03307  0.81508  0.93999  1.0000
  C   C1720     1.0  0.19631  0.64083  0.87130  1.0000
  H   H1370     1.0  0.17993  0.65229  0.86955  1.0000
  H   H1371     1.0  0.18576  0.63526  0.89244  1.0000
  C   C1721     1.0  0.23127  0.49455  0.79652  1.0000
  C   C1722     1.0  0.21310  0.94546  0.84976  1.0000
  Fe  Fe111     1.0  0.26277  0.51769  0.96978  1.0000
  H   H1372     1.0  0.28218  0.53689  0.83786  1.0000
  C   C1723     1.0  0.28326  0.48823  0.82456  1.0000
  H   H1373     1.0  0.11049  0.95407  0.90895  1.0000
  H   H1374     1.0  0.07376  0.81680  0.94927  1.0000
  C   C1724     1.0  0.30882  0.50916  0.89618  1.0000
  H   H1375     1.0  0.25983  0.54960  0.77272  1.0000
  H   H1376     1.0  0.24827  0.58739  0.94222  1.0000
  C   C1725     1.0  0.30528  0.49635  0.76909  1.0000
  C   C1726     1.0  0.09512  0.57120  0.95621  1.0000
  H   H1377     1.0  0.03053  0.71197  0.92943  1.0000
  C   C1727     1.0  0.27416  0.58619  0.95443  1.0000
  Fe  Fe112     1.0  0.30958  0.87809  0.81827  1.0000
  H   H1378     1.0  0.28911  0.58097  0.94706  1.0000
  H   H1379     1.0  0.29445  0.88941  0.74330  1.0000
  H   H1380     1.0  0.25967  0.95500  0.79902  1.0000
  C   C1728     1.0  0.19928  0.82633  0.74816  1.0000
  C   C1729     1.0  0.09169  0.84252  0.95300  1.0000
  C   C1730     1.0  0.04611  0.77314  0.93976  1.0000
  H   H1381     1.0  0.10872  0.83111  0.95208  1.0000
  H   H1382     1.0  0.29361  0.96817  0.73276  1.0000
  H   H1383     1.0  0.04034  0.78902  0.95714  1.0000
  C   C1731     1.0  0.29011  0.59558  0.86635  1.0000
  H   H1384     1.0  0.17412  0.66452  0.95262  1.0000
  H   H1385     1.0  0.16047  0.54411  0.96122  1.0000
  H   H1386     1.0  0.31435  0.51046  0.84791  1.0000
  H   H1387     1.0  0.24581  0.49698  0.88635  1.0000
  C   C1732     1.0  0.31021  0.84157  0.76583  1.0000
  C   C1733     1.0  0.30022  0.59941  0.82102  1.0000
  H   H1388     1.0  0.28814  0.89754  0.89988  1.0000
  C   C1734     1.0  0.29071  0.93446  0.89788  1.0000
  C   C1735     1.0  0.19844  0.50073  0.81435  1.0000
  H   H1389     1.0  0.24412  0.95328  0.83575  1.0000
  C   C1736     1.0  0.30953  0.57746  0.86487  1.0000
  H   H1390     1.0  0.01352  0.91182  0.91551  1.0000
  H   H1391     1.0  0.23876  0.48800  0.78734  1.0000
  H   H1392     1.0  0.30084  0.56408  0.91955  1.0000
  C   C1737     1.0  0.25309  0.89877  0.73201  1.0000
  H   H1393     1.0  0.00056  0.70758  0.84352  1.0000
  C   C1738     1.0  0.30719  0.97680  0.85991  1.0000
  C   C1739     1.0  0.23092  0.96452  0.86730  1.0000
  C   C1740     1.0  0.98712  0.66347  0.85276  1.0000
  C   C1741     1.0  0.98993  0.87337  0.89452  1.0000
  C   C1742     1.0  0.31280  0.48127  0.83871  1.0000
  C   C1743     1.0  0.16085  0.49349  0.95003  1.0000
  H   H1394     1.0  0.99096  0.74657  0.85043  1.0000
  C   C1744     1.0  0.17854  0.52506  0.92823  1.0000
  C   C1745     1.0  0.24323  0.96388  0.85442  1.0000
  C   C1746     1.0  0.14922  0.54086  0.97075  1.0000
  H   H1395     1.0  0.28225  0.96347  0.92404  1.0000
  C   C1747     1.0  0.12225  0.96073  0.90017  1.0000
  H   H1396     1.0  0.98694  0.80498  0.91320  1.0000
  C   C1748     1.0  0.18958  0.63932  0.96786  1.0000
  C   C1749     1.0  0.17104  0.65091  0.96117  1.0000
  C   C1750     1.0  0.06788  0.48567  0.96079  1.0000
  C   C1751     1.0  0.20824  0.49184  0.80266  1.0000
  H   H1397     1.0  0.23861  0.97085  0.87413  1.0000
  C   C1752     1.0  0.12861  0.53123  0.97203  1.0000
  C   C1753     1.0  0.27783  0.58804  0.96691  1.0000
  C   C1754     1.0  0.31524  0.94915  0.96087  1.0000
  C   C1755     1.0  0.21701  0.77213  0.72586  1.0000
  H   H1398     1.0  0.31315  0.63960  0.84390  1.0000
  C   C1756     1.0  0.31225  0.62234  0.84990  1.0000
  C   C1757     1.0  0.31679  0.60883  0.81071  1.0000
  H   H1399     1.0  0.29556  0.58413  0.96922  1.0000
  C   C1758     1.0  0.28849  0.97377  0.78976  1.0000
  H   H1400     1.0  0.31710  0.48544  0.80049  1.0000
  H   H1401     1.0  0.15485  0.48118  0.95863  1.0000
  H   H1402     1.0  0.09413  0.97802  0.88947  1.0000
  H   H1403     1.0  0.30178  0.94591  0.96952  1.0000
  H   H1404     1.0  0.18442  0.89189  0.72673  1.0000
  H   H1405     1.0  0.99592  0.63327  0.82207  1.0000
  H   H1406     1.0  0.19108  0.95891  0.91614  1.0000
  C   C1759     1.0  0.10858  0.48190  0.97158  1.0000
  H   H1407     1.0  0.30893  0.92177  0.95177  1.0000
  H   H1408     1.0  0.98913  0.80774  0.95658  1.0000
  C   C1760     1.0  0.99054  0.81422  0.96533  1.0000
  C   C1761     1.0  0.99346  0.64180  0.83062  1.0000
  C   C1762     1.0  0.20030  0.97819  0.89637  1.0000
  C   C1763     1.0  0.19779  0.97433  0.91023  1.0000
  Fe  Fe113     1.0  0.56537  0.06384  0.05106  1.0000
  S   S224      1.0  0.58723  0.02857  0.05708  1.0000
  S   S225      1.0  0.52801  0.07020  0.04591  1.0000
  Fe  Fe114     1.0  0.60036  0.09105  0.05858  1.0000
  S   S226      1.0  0.62355  0.05759  0.06529  1.0000
  S   S227      1.0  0.60799  0.12631  0.06121  1.0000
  Fe  Fe115     1.0  0.61871  0.04642  0.04686  1.0000
  C   C1764     1.0  0.35683  0.06587  0.20051  1.0000
  Fe  Fe116     1.0  0.59020  0.04346  0.07470  1.0000
  H   H1409     1.0  0.43501  0.98624  0.20681  1.0000
  S   S228      1.0  0.59680  0.08084  0.03953  1.0000
  S   S229      1.0  0.56705  0.07784  0.06927  1.0000
  Fe  Fe117     1.0  0.36847  0.02355  0.02680  1.0000
  S   S230      1.0  0.34532  0.02240  0.04676  1.0000
  S   S231      1.0  0.35080  0.03308  0.00814  1.0000
  Fe  Fe118     1.0  0.41452  0.01555  0.03917  1.0000
  S   S232      1.0  0.39375  0.01314  0.05980  1.0000
  S   S233      1.0  0.45528  0.00826  0.03696  1.0000
  Fe  Fe119     1.0  0.37211  0.99151  0.05339  1.0000
  H   H1410     1.0  0.57344  0.98075  0.16386  1.0000
  Fe  Fe120     1.0  0.36888  0.04415  0.05144  1.0000
  S   S234      1.0  0.35674  0.07263  0.06408  1.0000
  S   S235      1.0  0.39432  0.99109  0.03318  1.0000
  S   S236      1.0  0.39064  0.04811  0.03101  1.0000
  H   H1411     1.0  0.31974  0.04557  0.18127  1.0000
  H   H1412     1.0  0.40621  0.47830  0.08348  1.0000
  C   C1765     1.0  0.37875  0.98353  0.19340  1.0000
  H   H1413     1.0  0.51475  0.15820  0.13161  1.0000
  H   H1414     1.0  0.56383  0.04753  0.13800  1.0000
  C   C1766     1.0  0.38926  0.05086  0.17274  1.0000
  H   H1415     1.0  0.62458  0.43411  0.09694  1.0000
  C   C1767     1.0  0.33250  0.37226  0.11712  1.0000
  H   H1416     1.0  0.42836  0.01666  0.09887  1.0000
  H   H1417     1.0  0.61207  0.99847  0.98821  1.0000
  H   H1418     1.0  0.49083  0.05629  0.00222  1.0000
  H   H1419     1.0  0.48667  0.01444  0.01037  1.0000
  C   C1768     1.0  0.63337  0.12821  0.06752  1.0000
  H   H1420     1.0  0.62541  0.04067  0.97861  1.0000
  H   H1421     1.0  0.58956  0.12093  0.16994  1.0000
  H   H1422     1.0  0.52893  0.01405  0.11721  1.0000
  C   C1769     1.0  0.32452  0.06438  0.21912  1.0000
  C   C1770     1.0  0.63507  0.14924  0.07150  1.0000
  C   C1771     1.0  0.33453  0.03363  0.20569  1.0000
  H   H1423     1.0  0.40908  0.46178  0.10702  1.0000
  H   H1424     1.0  0.33046  0.10632  0.07989  1.0000
  H   H1425     1.0  0.62078  0.16400  0.07076  1.0000
  C   C1772     1.0  0.34951  0.46914  0.09480  1.0000
  H   H1426     1.0  0.32104  0.07586  0.01632  1.0000
  H   H1427     1.0  0.33383  0.35378  0.11660  1.0000
  H   H1428     1.0  0.62388  0.44702  0.03178  1.0000
  C   C1773     1.0  0.37074  0.03941  0.12309  1.0000
  C   C1774     1.0  0.62183  0.19021  0.10110  1.0000
  C   C1775     1.0  0.63438  0.21964  0.11553  1.0000
  H   H1429     1.0  0.32351  0.05398  0.09512  1.0000
  H   H1430     1.0  0.44769  0.99007  0.15240  1.0000
  H   H1431     1.0  0.62771  0.05880  0.01560  1.0000
  C   C1776     1.0  0.50802  0.05190  0.04429  1.0000
  C   C1777     1.0  0.48391  0.06156  0.04469  1.0000
  C   C1778     1.0  0.46748  0.04833  0.04284  1.0000
  C   C1779     1.0  0.47497  0.02528  0.04029  1.0000
  C   C1780     1.0  0.49909  0.01557  0.03993  1.0000
  C   C1781     1.0  0.51547  0.02865  0.04204  1.0000
  H   H1432     1.0  0.47789  0.07954  0.04634  1.0000
  H   H1433     1.0  0.44909  0.05618  0.04308  1.0000
  H   H1434     1.0  0.50523  0.99792  0.03777  1.0000
  H   H1435     1.0  0.53393  0.02100  0.04152  1.0000
  C   C1782     1.0  0.40698  0.00606  0.19658  1.0000
  H   H1436     1.0  0.38185  0.00309  0.16296  1.0000
  H   H1437     1.0  0.33137  0.01717  0.20383  1.0000
  H   H1438     1.0  0.64924  0.23805  0.09666  1.0000
  C   C1783     1.0  0.63528  0.98151  0.18979  1.0000
  P   P61       1.0  0.60013  0.16247  0.12353  1.0000
  C   C1784     1.0  0.59314  0.12437  0.09623  1.0000
  C   C1785     1.0  0.59138  0.99847  0.10194  1.0000
  H   H1439     1.0  0.33283  0.98794  0.01741  1.0000
  C   C1786     1.0  0.32114  0.03030  0.99116  1.0000
  C   C1787     1.0  0.58082  0.99458  0.15662  1.0000
  C   C1788     1.0  0.60415  0.13955  0.11367  1.0000
  C   C1789     1.0  0.61635  0.18595  0.11497  1.0000
  C   C1790     1.0  0.41282  0.04203  0.16782  1.0000
  H   H1440     1.0  0.60984  0.08919  0.09349  1.0000
  H   H1441     1.0  0.62203  0.99713  0.19041  1.0000
  H   H1442     1.0  0.61654  0.00564  0.03393  1.0000
  C   C1791     1.0  0.58871  0.04187  0.97728  1.0000
  C   C1792     1.0  0.35236  0.04511  0.19743  1.0000
  C   C1793     1.0  0.61939  0.11817  0.11652  1.0000
  H   H1443     1.0  0.35267  0.43563  0.02877  1.0000
  C   C1794     1.0  0.46371  0.00313  0.12420  1.0000
  C   C1795     1.0  0.33553  0.40278  0.12889  1.0000
  C   C1796     1.0  0.32273  0.43471  0.06913  1.0000
  C   C1797     1.0  0.59987  0.03026  0.13801  1.0000
  C   C1798     1.0  0.32532  0.99698  0.00877  1.0000
  C   C1799     1.0  0.50475  0.99012  0.12704  1.0000
  C   C1800     1.0  0.38017  0.01587  0.97798  1.0000
  H   H1444     1.0  0.60126  0.08204  0.98215  1.0000
  C   C1801     1.0  0.52895  0.04932  0.99849  1.0000
  C   C1802     1.0  0.43525  0.98323  0.11193  1.0000
  C   C1803     1.0  0.38951  0.02061  0.12243  1.0000
  C   C1804     1.0  0.43411  0.98760  0.08848  1.0000
  H   H1445     1.0  0.63791  0.21206  0.08382  1.0000
  C   C1805     1.0  0.52066  0.19345  0.13113  1.0000
  C   C1806     1.0  0.62548  0.12657  0.16281  1.0000
  C   C1807     1.0  0.33434  0.44386  0.03070  1.0000
  H   H1446     1.0  0.42985  0.09263  0.14942  1.0000
  C   C1808     1.0  0.43448  0.97920  0.15296  1.0000
  C   C1809     1.0  0.35255  0.02477  0.17334  1.0000
  C   C1810     1.0  0.62901  0.98433  0.00505  1.0000
  C   C1811     1.0  0.32837  0.03399  0.17427  1.0000
  H   H1447     1.0  0.58319  0.12682  0.08825  1.0000
  H   H1448     1.0  0.54935  0.98632  0.06028  1.0000
  H   H1449     1.0  0.32177  0.38436  0.09809  1.0000
  H   H1450     1.0  0.34985  0.00392  0.08910  1.0000
  H   H1451     1.0  0.34597  0.09175  0.21351  1.0000
  H   H1452     1.0  0.58813  0.03414  0.02198  1.0000
  C   C1812     1.0  0.41849  0.08092  0.15581  1.0000
  H   H1453     1.0  0.38152  0.03206  0.98103  1.0000
  H   H1454     1.0  0.64444  0.11674  0.03955  1.0000
  H   H1455     1.0  0.39633  0.07690  0.13428  1.0000
  H   H1456     1.0  0.63781  0.06566  0.99115  1.0000
  H   H1457     1.0  0.60688  0.04441  0.13092  1.0000
  C   C1813     1.0  0.42744  0.05710  0.15952  1.0000
  H   H1458     1.0  0.45690  0.03696  0.11154  1.0000
  H   H1459     1.0  0.35771  0.99215  0.14908  1.0000
  H   H1460     1.0  0.41286  0.02273  0.19581  1.0000
  C   C1814     1.0  0.60527  0.99241  0.15242  1.0000
  H   H1461     1.0  0.57420  0.00088  0.12196  1.0000
  H   H1462     1.0  0.57429  0.21046  0.12617  1.0000
  C   C1815     1.0  0.63351  0.20902  0.09452  1.0000
  C   C1816     1.0  0.65021  0.05429  0.99693  1.0000
  C   C1817     1.0  0.60971  0.14974  0.13918  1.0000
  C   C1818     1.0  0.32560  0.38950  0.10670  1.0000
  C   C1819     1.0  0.38012  0.07453  0.16846  1.0000
  C   C1820     1.0  0.59120  0.14257  0.10337  1.0000
  C   C1821     1.0  0.59929  0.02032  0.01711  1.0000
  C   C1822     1.0  0.34963  0.00405  0.15600  1.0000
  H   H1463     1.0  0.55535  0.47556  0.05113  1.0000
  C   C1823     1.0  0.37324  0.05970  0.12734  1.0000
  C   C1824     1.0  0.33468  0.99260  0.10960  1.0000
  H   H1464     1.0  0.35426  0.03819  0.12031  1.0000
  C   C1825     1.0  0.49397  0.00275  0.08157  1.0000
  H   H1465     1.0  0.38911  0.99412  0.99600  1.0000
  P   P62       1.0  0.43418  0.99669  0.12610  1.0000
  C   C1826     1.0  0.61525  0.00400  0.02400  1.0000
  H   H1466     1.0  0.57561  0.14084  0.14923  1.0000
  H   H1467     1.0  0.57434  0.12978  0.00969  1.0000
  P   P63       1.0  0.37029  0.03183  0.18377  1.0000
  C   C1827     1.0  0.36318  0.01014  0.16395  1.0000
  H   H1468     1.0  0.36259  0.98259  0.19017  1.0000
  H   H1469     1.0  0.55176  0.06246  0.01757  1.0000
  C   C1828     1.0  0.50648  0.04292  0.00247  1.0000
  C   C1829     1.0  0.60550  0.98366  0.09346  1.0000
  C   C1830     1.0  0.50413  0.01930  0.00706  1.0000
  H   H1470     1.0  0.47106  0.03567  0.07670  1.0000
  H   H1471     1.0  0.53992  0.04114  0.08277  1.0000
  C   C1831     1.0  0.52785  0.16950  0.13045  1.0000
  C   C1832     1.0  0.53305  0.00589  0.08459  1.0000
  C   C1833     1.0  0.38698  0.00509  0.19138  1.0000
  H   H1472     1.0  0.44573  0.05029  0.15596  1.0000
  H   H1473     1.0  0.33010  0.46442  0.19780  1.0000
  C   C1834     1.0  0.39450  0.06112  0.13101  1.0000
  H   H1474     1.0  0.41996  0.02354  0.17033  1.0000
  H   H1475     1.0  0.50084  0.06026  0.07697  1.0000
  H   H1476     1.0  0.63336  0.16452  0.18417  1.0000
  C   C1835     1.0  0.63888  0.44274  0.09105  1.0000
  C   C1836     1.0  0.61496  0.01001  0.14288  1.0000
  H   H1477     1.0  0.42941  0.04336  0.13365  1.0000
  C   C1837     1.0  0.59835  0.01900  0.00400  1.0000
  C   C1838     1.0  0.63384  0.46364  0.08213  1.0000
  C   C1839     1.0  0.32782  0.42019  0.11863  1.0000
  C   C1840     1.0  0.52711  0.03045  0.08238  1.0000
  C   C1841     1.0  0.56587  0.01434  0.15136  1.0000
  C   C1842     1.0  0.39234  0.46408  0.10366  1.0000
  C   C1843     1.0  0.57540  0.03223  0.14211  1.0000
  H   H1478     1.0  0.49807  0.04419  0.10775  1.0000
  C   C1844     1.0  0.41101  0.02198  0.12598  1.0000
  C   C1845     1.0  0.63033  0.98625  0.01793  1.0000
  C   C1846     1.0  0.33103  0.01906  0.00250  1.0000
  H   H1479     1.0  0.38768  0.10796  0.15710  1.0000
  C   C1847     1.0  0.32175  0.43102  0.19617  1.0000
  C   C1848     1.0  0.41328  0.04223  0.13048  1.0000
  H   H1480     1.0  0.37124  0.07450  0.19482  1.0000
  H   H1481     1.0  0.56210  0.99477  0.00451  1.0000
  C   C1849     1.0  0.38449  0.99441  0.98645  1.0000
  C   C1850     1.0  0.53753  0.20804  0.12960  1.0000
  C   C1851     1.0  0.60685  0.45813  0.03127  1.0000
  C   C1852     1.0  0.63354  0.14755  0.14036  1.0000
  H   H1482     1.0  0.62521  0.01225  0.11397  1.0000
  H   H1483     1.0  0.61858  0.19808  0.13284  1.0000
  C   C1853     1.0  0.46991  0.02405  0.11625  1.0000
  C   C1854     1.0  0.35060  0.46075  0.10821  1.0000
  H   H1484     1.0  0.33659  0.42068  0.06618  1.0000
  C   C1855     1.0  0.54676  0.00838  0.00383  1.0000
  C   C1856     1.0  0.51682  0.99189  0.08365  1.0000
  C   C1857     1.0  0.32741  0.45795  0.06685  1.0000
  C   C1858     1.0  0.49328  0.02811  0.11396  1.0000
  H   H1485     1.0  0.38712  0.00496  0.11921  1.0000
  C   C1859     1.0  0.48142  0.98599  0.12936  1.0000
  C   C1860     1.0  0.39477  0.08958  0.16016  1.0000
  C   C1861     1.0  0.62271  0.20086  0.12214  1.0000
  C   C1862     1.0  0.50493  0.04120  0.07934  1.0000
  C   C1863     1.0  0.48821  0.02734  0.07915  1.0000
  H   H1486     1.0  0.61543  0.47054  0.01051  1.0000
  C   C1864     1.0  0.35266  0.99282  0.09846  1.0000
  S   S237      1.0  0.58171  0.02843  0.09635  1.0000
  C   C1865     1.0  0.59394  0.13992  0.14992  1.0000
  C   C1866     1.0  0.63977  0.22374  0.10173  1.0000
  C   C1867     1.0  0.41944  0.98547  0.20293  1.0000
  H   H1487     1.0  0.55014  0.10100  0.02381  1.0000
  C   C1868     1.0  0.56903  0.17472  0.12656  1.0000
  C   C1869     1.0  0.37241  0.45745  0.11250  1.0000
  H   H1488     1.0  0.62905  0.12469  0.19713  1.0000
  C   C1870     1.0  0.64609  0.02904  0.15896  1.0000
  H   H1489     1.0  0.35868  0.07430  0.12780  1.0000
  H   H1490     1.0  0.50200  0.20072  0.13282  1.0000
  H   H1491     1.0  0.61716  0.17911  0.09529  1.0000
  C   C1871     1.0  0.56162  0.19875  0.12734  1.0000
  H   H1492     1.0  0.34307  0.36549  0.13622  1.0000
  H   H1493     1.0  0.54692  0.01569  0.15447  1.0000
  H   H1494     1.0  0.57952  0.15896  0.10085  1.0000
  H   H1495     1.0  0.36168  0.08141  0.17164  1.0000
  C   C1872     1.0  0.60822  0.10313  0.09918  1.0000
  C   C1873     1.0  0.58996  0.45932  0.04275  1.0000
  H   H1496     1.0  0.55713  0.14152  0.12774  1.0000
  H   H1497     1.0  0.53194  0.22662  0.13012  1.0000
  C   C1874     1.0  0.43214  0.99764  0.09974  1.0000
  H   H1498     1.0  0.63961  0.23089  0.12108  1.0000
  C   C1875     1.0  0.64783  0.15385  0.18873  1.0000
  H   H1499     1.0  0.61034  0.99046  0.08306  1.0000
  H   H1500     1.0  0.34005  0.47646  0.01762  1.0000
  C   C1876     1.0  0.55191  0.16014  0.12821  1.0000
  H   H1501     1.0  0.53041  0.06773  0.99499  1.0000
  H   H1502     1.0  0.32338  0.41411  0.04478  1.0000
  C   C1877     1.0  0.62134  0.10005  0.10932  1.0000
  H   H1503     1.0  0.64630  0.15438  0.13214  1.0000
  C   C1878     1.0  0.51071  0.01113  0.11930  1.0000
  C   C1879     1.0  0.33221  0.47715  0.15147  1.0000
  C   C1880     1.0  0.56128  0.09676  0.01470  1.0000
  C   C1881     1.0  0.57490  0.11300  0.00673  1.0000
  C   C1882     1.0  0.58926  0.10750  0.99502  1.0000
  C   C1883     1.0  0.59003  0.08577  0.99127  1.0000
  C   C1884     1.0  0.57657  0.06920  0.99930  1.0000
  C   C1885     1.0  0.56224  0.07489  0.01109  1.0000
  P   P64       1.0  0.57829  0.04055  0.99489  1.0000
  C   C1886     1.0  0.54927  0.03212  0.99932  1.0000
  H   H1504     1.0  0.62970  0.11532  0.12433  1.0000
  C   C1887     1.0  0.61289  0.00044  0.99815  1.0000
  H   H1505     1.0  0.33937  0.42474  0.19129  1.0000
  C   C1888     1.0  0.36942  0.47555  0.08597  1.0000
  S   S238      1.0  0.60433  0.47527  0.08049  1.0000
  H   H1506     1.0  0.33331  0.47048  0.09111  1.0000
  H   H1507     1.0  0.32296  0.09112  0.10289  1.0000
  H   H1508     1.0  0.52229  0.98378  0.01138  1.0000
  H   H1509     1.0  0.48089  0.99235  0.08129  1.0000
  C   C1889     1.0  0.52424  0.00204  0.00768  1.0000
  P   P65       1.0  0.64658  0.00712  0.13750  1.0000
  H   H1510     1.0  0.43161  0.99875  0.07908  1.0000
  C   C1890     1.0  0.64540  0.13143  0.19598  1.0000
  H   H1511     1.0  0.64791  0.08512  0.02652  1.0000
  C   C1891     1.0  0.64452  0.05049  0.01080  1.0000
  H   H1512     1.0  0.32558  0.04724  0.98611  1.0000
  H   H1513     1.0  0.34483  0.46174  0.06224  1.0000
  H   H1514     1.0  0.63296  0.08358  0.11162  1.0000
  H   H1515     1.0  0.62708  0.03314  0.15973  1.0000
  H   H1516     1.0  0.59990  0.12005  0.98885  1.0000
  P   P66       1.0  0.32505  0.45110  0.11926  1.0000
  H   H1517     1.0  0.37408  0.44963  0.12262  1.0000
  C   C1892     1.0  0.32326  0.41337  0.10743  1.0000
  H   H1518     1.0  0.55057  0.99792  0.08662  1.0000
  H   H1519     1.0  0.59391  0.44933  0.05218  1.0000
  H   H1520     1.0  0.65129  0.09325  0.06515  1.0000
  C   C1893     1.0  0.39079  0.47329  0.09041  1.0000
  H   H1521     1.0  0.64647  0.44627  0.12256  1.0000
  H   H1522     1.0  0.63253  0.03489  0.09164  1.0000
  C   C1894     1.0  0.33427  0.47330  0.13851  1.0000
  C   C1895     1.0  0.32257  0.45648  0.13589  1.0000
  C   C1896     1.0  0.65234  0.47476  0.07454  1.0000
  C   C1897     1.0  0.32062  0.04327  0.21642  1.0000
  C   C1898     1.0  0.64328  0.03577  0.09875  1.0000
  C   C1899     1.0  0.58513  0.98952  0.11536  1.0000
  C   C1900     1.0  0.56822  0.47409  0.04217  1.0000
  C   C1901     1.0  0.60179  0.12849  0.16170  1.0000
  H   H1523     1.0  0.33994  0.40756  0.13742  1.0000
  C   C1902     1.0  0.33759  0.37889  0.12819  1.0000
  C   C1903     1.0  0.32747  0.08746  0.06488  1.0000
  H   H1524     1.0  0.63169  0.11753  0.17187  1.0000
  C   C1904     1.0  0.65205  0.10932  0.06843  1.0000
  C   C1905     1.0  0.32546  0.01279  0.15723  1.0000
  C   C1906     1.0  0.63920  0.02281  0.11149  1.0000
  C   C1907     1.0  0.32726  0.46682  0.02444  1.0000
  C   C1908     1.0  0.34274  0.07559  0.21123  1.0000
  C   C1909     1.0  0.64127  0.13613  0.15216  1.0000
  H   H1525     1.0  0.64570  0.04351  0.17639  1.0000
  C   C1910     1.0  0.60198  0.47160  0.01919  1.0000
  H   H1526     1.0  0.53473  0.47800  0.01242  1.0000
  H   H1527     1.0  0.58915  0.97910  0.04717  1.0000
  C   C1911     1.0  0.33920  0.97841  0.12162  1.0000
  C   C1912     1.0  0.65270  0.02375  0.12095  1.0000
  C   C1913     1.0  0.62099  0.47415  0.97392  1.0000
  H   H1528     1.0  0.36948  0.31069  0.46424  1.0000
  Fe  Fe121     1.0  0.61329  0.41513  0.41411  1.0000
  S   S239      1.0  0.59614  0.42586  0.39573  1.0000
  S   S240      1.0  0.63497  0.44201  0.41733  1.0000
  Fe  Fe122     1.0  0.59847  0.36570  0.41932  1.0000
  S   S241      1.0  0.58121  0.37327  0.40149  1.0000
  S   S242      1.0  0.59645  0.32913  0.43115  1.0000
  Fe  Fe123     1.0  0.61298  0.38978  0.39119  1.0000
  S   S243      1.0  0.63386  0.37561  0.37296  1.0000
  Fe  Fe124     1.0  0.56577  0.40804  0.40776  1.0000
  S   S244      1.0  0.52572  0.41962  0.41088  1.0000
  S   S245      1.0  0.63139  0.37975  0.40871  1.0000
  S   S246      1.0  0.58163  0.39988  0.42643  1.0000
  Fe  Fe125     1.0  0.60967  0.19209  0.39260  1.0000
  S   S247      1.0  0.58706  0.18801  0.37855  1.0000
  S   S248      1.0  0.62614  0.22531  0.38746  1.0000
  Fe  Fe126     1.0  0.60872  0.14187  0.40795  1.0000
  S   S249      1.0  0.58566  0.13406  0.39516  1.0000
  S   S250      1.0  0.61966  0.11208  0.42422  1.0000
  Fe  Fe127     1.0  0.60941  0.15229  0.37822  1.0000
  Fe  Fe128     1.0  0.56504  0.17031  0.39664  1.0000
  S   S251      1.0  0.52504  0.17971  0.40224  1.0000
  S   S252      1.0  0.63383  0.15752  0.39087  1.0000
  S   S253      1.0  0.58633  0.17694  0.41089  1.0000
  Fe  Fe129     1.0  0.36698  0.19551  0.40056  1.0000
  S   S254      1.0  0.37950  0.19983  0.37863  1.0000
  S   S255      1.0  0.35912  0.22680  0.41153  1.0000
  Fe  Fe130     1.0  0.36762  0.14209  0.40287  1.0000
  S   S256      1.0  0.38096  0.14346  0.38106  1.0000
  S   S257      1.0  0.36232  0.10534  0.41387  1.0000
  Fe  Fe131     1.0  0.40546  0.16688  0.38357  1.0000
  S   S258      1.0  0.44421  0.16367  0.37370  1.0000
  Fe  Fe132     1.0  0.35379  0.17598  0.37862  1.0000
  H   H1529     1.0  0.53320  0.29781  0.35560  1.0000
  S   S259      1.0  0.39401  0.16336  0.40555  1.0000
  C   C1914     1.0  0.59431  0.24365  0.34698  1.0000
  Fe  Fe133     1.0  0.36625  0.39690  0.40053  1.0000
  S   S260      1.0  0.37968  0.42473  0.38412  1.0000
  C   C1915     1.0  0.61888  0.23778  0.45758  1.0000
  Fe  Fe134     1.0  0.38936  0.35692  0.38521  1.0000
  S   S261      1.0  0.40407  0.38203  0.36778  1.0000
  S   S262      1.0  0.39856  0.31956  0.38112  1.0000
  Fe  Fe135     1.0  0.41422  0.39930  0.38262  1.0000
  S   S263      1.0  0.45208  0.40682  0.37669  1.0000
  Fe  Fe136     1.0  0.36865  0.40481  0.37072  1.0000
  S   S264      1.0  0.34966  0.42366  0.35361  1.0000
  S   S265      1.0  0.40160  0.37274  0.39994  1.0000
  S   S266      1.0  0.35321  0.37854  0.38721  1.0000
  C   C1916     1.0  0.36706  0.25406  0.40287  1.0000
  C   C1917     1.0  0.37449  0.25757  0.38919  1.0000
  C   C1918     1.0  0.38340  0.27811  0.38265  1.0000
  C   C1919     1.0  0.38406  0.29588  0.38960  1.0000
  C   C1920     1.0  0.37512  0.29328  0.40318  1.0000
  C   C1921     1.0  0.36675  0.27231  0.40981  1.0000
  H   H1530     1.0  0.37400  0.24425  0.38364  1.0000
  H   H1531     1.0  0.39029  0.27998  0.37217  1.0000
  H   H1532     1.0  0.37547  0.30694  0.40862  1.0000
  P   P67       1.0  0.61558  0.28811  0.36606  1.0000
  C   C1922     1.0  0.50321  0.17429  0.39417  1.0000
  C   C1923     1.0  0.47963  0.17635  0.40071  1.0000
  C   C1924     1.0  0.46149  0.17309  0.39460  1.0000
  C   C1925     1.0  0.46671  0.16761  0.38182  1.0000
  C   C1926     1.0  0.49032  0.16560  0.37523  1.0000
  C   C1927     1.0  0.50851  0.16887  0.38137  1.0000
  H   H1533     1.0  0.47542  0.18010  0.41068  1.0000
  H   H1534     1.0  0.44347  0.17473  0.39979  1.0000
  H   H1535     1.0  0.49455  0.16140  0.36535  1.0000
  H   H1536     1.0  0.52656  0.16723  0.37620  1.0000
  C   C1928     1.0  0.59985  0.30796  0.42085  1.0000
  C   C1929     1.0  0.61157  0.31152  0.40801  1.0000
  C   C1930     1.0  0.61603  0.29383  0.40020  1.0000
  C   C1931     1.0  0.60959  0.26978  0.40440  1.0000
  C   C1932     1.0  0.59528  0.26925  0.41792  1.0000
  C   C1933     1.0  0.59123  0.28709  0.42562  1.0000
  H   H1537     1.0  0.61795  0.32808  0.40402  1.0000
  C   C1934     1.0  0.35676  0.06386  0.46266  1.0000
  H   H1538     1.0  0.58738  0.25432  0.42353  1.0000
  H   H1539     1.0  0.58131  0.28447  0.43558  1.0000
  C   C1935     1.0  0.50609  0.41311  0.40172  1.0000
  C   C1936     1.0  0.51316  0.41046  0.38845  1.0000
  C   C1937     1.0  0.49646  0.40806  0.38104  1.0000
  C   C1938     1.0  0.47260  0.40787  0.38684  1.0000
  C   C1939     1.0  0.46570  0.40950  0.40025  1.0000
  C   C1940     1.0  0.48233  0.41233  0.40760  1.0000
  H   H1540     1.0  0.53128  0.41131  0.38376  1.0000
  H   H1541     1.0  0.50196  0.40689  0.37066  1.0000
  H   H1542     1.0  0.44748  0.40925  0.40487  1.0000
  H   H1543     1.0  0.47669  0.41424  0.41787  1.0000
  H   H1544     1.0  0.36067  0.26993  0.42038  1.0000
  C   C1941     1.0  0.47628  0.34190  0.40287  1.0000
  H   H1545     1.0  0.32534  0.33789  0.31168  1.0000
  C   C1942     1.0  0.48360  0.28711  0.46168  1.0000
  H   H1546     1.0  0.33667  0.37684  0.36222  1.0000
  H   H1547     1.0  0.47046  0.25447  0.44173  1.0000
  C   C1943     1.0  0.37286  0.33628  0.43190  1.0000
  C   C1944     1.0  0.33972  0.14811  0.33593  1.0000
  C   C1945     1.0  0.34130  0.15633  0.34743  1.0000
  H   H1548     1.0  0.55552  0.20459  0.33440  1.0000
  H   H1549     1.0  0.32795  0.46048  0.30259  1.0000
  H   H1550     1.0  0.59958  0.11869  0.45593  1.0000
  H   H1551     1.0  0.35467  0.13687  0.33127  1.0000
  H   H1552     1.0  0.35742  0.15146  0.35156  1.0000
  C   C1946     1.0  0.63231  0.18914  0.32984  1.0000
  P   P68       1.0  0.35067  0.01766  0.46332  1.0000
  C   C1947     1.0  0.52898  0.26133  0.40838  1.0000
  H   H1553     1.0  0.60852  0.18207  0.34837  1.0000
  C   C1948     1.0  0.62455  0.17560  0.34209  1.0000
  H   H1554     1.0  0.40679  0.43435  0.40682  1.0000
  C   C1949     1.0  0.45569  0.31076  0.44814  1.0000
  C   C1950     1.0  0.45110  0.46639  0.42004  1.0000
  C   C1951     1.0  0.51150  0.33092  0.34978  1.0000
  C   C1952     1.0  0.64272  0.44334  0.44279  1.0000
  C   C1953     1.0  0.38616  0.06710  0.43798  1.0000
  H   H1555     1.0  0.61531  0.35336  0.44809  1.0000
  H   H1556     1.0  0.64263  0.10662  0.38364  1.0000
  C   C1954     1.0  0.46924  0.33149  0.35511  1.0000
  C   C1955     1.0  0.33427  0.09757  0.42128  1.0000
  C   C1956     1.0  0.41587  0.46690  0.37293  1.0000
  H   H1557     1.0  0.63853  0.10620  0.46315  1.0000
  H   H1558     1.0  0.48547  0.36179  0.34552  1.0000
  C   C1957     1.0  0.48382  0.26773  0.45578  1.0000
  H   H1559     1.0  0.36029  0.10003  0.46186  1.0000
  C   C1958     1.0  0.45150  0.32887  0.39091  1.0000
  C   C1959     1.0  0.65075  0.03445  0.31448  1.0000
  H   H1560     1.0  0.39851  0.27317  0.34083  1.0000
  C   C1960     1.0  0.35075  0.22268  0.32193  1.0000
  H   H1561     1.0  0.47373  0.35517  0.38237  1.0000
  C   C1961     1.0  0.53304  0.23809  0.33612  1.0000
  C   C1962     1.0  0.52061  0.25342  0.34474  1.0000
  H   H1562     1.0  0.33397  0.33350  0.39765  1.0000
  H   H1563     1.0  0.58907  0.15904  0.44387  1.0000
  C   C1963     1.0  0.32654  0.47495  0.41568  1.0000
  H   H1564     1.0  0.41660  0.22554  0.38577  1.0000
  H   H1565     1.0  0.53198  0.24251  0.32568  1.0000
  C   C1964     1.0  0.34975  0.21541  0.33560  1.0000
  H   H1566     1.0  0.37251  0.44194  0.45343  1.0000
  H   H1567     1.0  0.48288  0.22905  0.35998  1.0000
  H   H1568     1.0  0.33619  0.29978  0.38659  1.0000
  H   H1569     1.0  0.47276  0.22151  0.41146  1.0000
  C   C1965     1.0  0.58315  0.28340  0.33578  1.0000
  H   H1570     1.0  0.52639  0.34005  0.34560  1.0000
  H   H1571     1.0  0.39195  0.40085  0.42220  1.0000
  C   C1966     1.0  0.36257  0.04440  0.45601  1.0000
  C   C1967     1.0  0.45109  0.31298  0.41424  1.0000
  C   C1968     1.0  0.36976  0.20263  0.34063  1.0000
  C   C1969     1.0  0.34483  0.27862  0.31724  1.0000
  C   C1970     1.0  0.39955  0.43631  0.41697  1.0000
  C   C1971     1.0  0.32538  0.21435  0.27628  1.0000
  C   C1972     1.0  0.39128  0.41716  0.42569  1.0000
  H   H1572     1.0  0.53509  0.22038  0.37362  1.0000
  H   H1573     1.0  0.33149  0.17936  0.28767  1.0000
  C   C1973     1.0  0.45604  0.29147  0.44201  1.0000
  H   H1574     1.0  0.33352  0.21911  0.34240  1.0000
  H   H1575     1.0  0.40928  0.29090  0.45562  1.0000
  C   C1974     1.0  0.32648  0.27082  0.31337  1.0000
  C   C1975     1.0  0.57080  0.36069  0.37177  1.0000
  C   C1976     1.0  0.54703  0.21069  0.35452  1.0000
  H   H1576     1.0  0.42288  0.25713  0.39659  1.0000
  C   C1977     1.0  0.43700  0.26686  0.42516  1.0000
  C   C1978     1.0  0.46949  0.30861  0.45788  1.0000
  C   C1979     1.0  0.60395  0.33719  0.35992  1.0000
  C   C1980     1.0  0.65254  0.39185  0.36075  1.0000
  H   H1577     1.0  0.39700  0.06871  0.42823  1.0000
  H   H1578     1.0  0.48403  0.45286  0.42723  1.0000
  H   H1579     1.0  0.34902  0.44942  0.40453  1.0000
  H   H1580     1.0  0.53558  0.26026  0.41747  1.0000
  C   C1981     1.0  0.59253  0.23686  0.40424  1.0000
  H   H1581     1.0  0.52348  0.22506  0.41253  1.0000
  C   C1982     1.0  0.39096  0.19729  0.33210  1.0000
  H   H1582     1.0  0.57006  0.47230  0.45444  1.0000
  H   H1583     1.0  0.33832  0.24495  0.36423  1.0000
  C   C1983     1.0  0.39821  0.45768  0.42135  1.0000
  H   H1584     1.0  0.36260  0.34899  0.42530  1.0000
  C   C1984     1.0  0.52707  0.28254  0.39946  1.0000
  C   C1985     1.0  0.49600  0.29537  0.36129  1.0000
  C   C1986     1.0  0.47554  0.46399  0.41936  1.0000
  C   C1987     1.0  0.33025  0.98801  0.43608  1.0000
  C   C1988     1.0  0.36918  0.29883  0.34762  1.0000
  C   C1989     1.0  0.47010  0.26984  0.44600  1.0000
  C   C1990     1.0  0.37231  0.21771  0.31342  1.0000
  C   C1991     1.0  0.64245  0.26009  0.38824  1.0000
  C   C1992     1.0  0.39227  0.20493  0.31849  1.0000
  C   C1993     1.0  0.64312  0.24085  0.40294  1.0000
  H   H1585     1.0  0.35843  0.30876  0.31971  1.0000
  C   C1994     1.0  0.48933  0.47503  0.40822  1.0000
  C   C1995     1.0  0.56495  0.34031  0.38029  1.0000
  H   H1586     1.0  0.47392  0.26073  0.41632  1.0000
  H   H1587     1.0  0.63770  0.16098  0.30083  1.0000
  C   C1996     1.0  0.38067  0.27599  0.34629  1.0000
  H   H1588     1.0  0.32293  0.00997  0.40622  1.0000
  H   H1589     1.0  0.45763  0.29919  0.36507  1.0000
  C   C1997     1.0  0.46793  0.34298  0.39117  1.0000
  H   H1590     1.0  0.32454  0.20812  0.26735  1.0000
  C   C1998     1.0  0.62094  0.34626  0.26182  1.0000
  H   H1591     1.0  0.37850  0.23902  0.35153  1.0000
  H   H1592     1.0  0.63041  0.43112  0.44655  1.0000
  H   H1593     1.0  0.42844  0.45581  0.36671  1.0000
  C   C1999     1.0  0.32584  0.31918  0.31206  1.0000
  S   S267      1.0  0.62679  0.13489  0.36057  1.0000
  C   C2000     1.0  0.35052  0.08781  0.38407  1.0000
  H   H1594     1.0  0.35925  0.26623  0.32094  1.0000
  H   H1595     1.0  0.62234  0.20624  0.32671  1.0000
  C   C2001     1.0  0.48848  0.34318  0.34970  1.0000
  C   C2002     1.0  0.59579  0.33777  0.28301  1.0000
  C   C2003     1.0  0.59878  0.34290  0.26921  1.0000
  C   C2004     1.0  0.35062  0.00088  0.45065  1.0000
  C   C2005     1.0  0.34639  0.30242  0.35494  1.0000
  C   C2006     1.0  0.38898  0.45937  0.43467  1.0000
  C   C2007     1.0  0.61488  0.33628  0.28944  1.0000
  C   C2008     1.0  0.32260  0.24656  0.28810  1.0000
  C   C2009     1.0  0.37744  0.04617  0.44364  1.0000
  C   C2010     1.0  0.36935  0.25674  0.35229  1.0000
  H   H1596     1.0  0.57566  0.26116  0.38560  1.0000
  C   C2011     1.0  0.43613  0.25109  0.38862  1.0000
  C   C2012     1.0  0.61644  0.26826  0.38166  1.0000
  C   C2013     1.0  0.64269  0.36861  0.32879  1.0000
  C   C2014     1.0  0.59026  0.35911  0.36158  1.0000
  C   C2015     1.0  0.33229  0.40811  0.34752  1.0000
  C   C2016     1.0  0.60183  0.27681  0.35523  1.0000
  C   C2017     1.0  0.32912  0.43249  0.42227  1.0000
  S   S268      1.0  0.33950  0.17374  0.40034  1.0000
  C   C2018     1.0  0.43567  0.22262  0.41922  1.0000
  H   H1597     1.0  0.61539  0.27490  0.44937  1.0000
  C   C2019     1.0  0.63698  0.34049  0.28211  1.0000
  H   H1598     1.0  0.57870  0.33475  0.28872  1.0000
  H   H1599     1.0  0.58401  0.34397  0.26422  1.0000
  C   C2020     1.0  0.32988  0.00136  0.44579  1.0000
  H   H1600     1.0  0.64673  0.03542  0.30472  1.0000
  H   H1601     1.0  0.61245  0.33173  0.30013  1.0000
  H   H1602     1.0  0.57388  0.30294  0.38549  1.0000
  H   H1603     1.0  0.33816  0.09591  0.35286  1.0000
  C   C2021     1.0  0.46799  0.32693  0.41437  1.0000
  H   H1604     1.0  0.64917  0.21894  0.34527  1.0000
  S   S269      1.0  0.32419  0.18523  0.36649  1.0000
  H   H1605     1.0  0.36868  0.19648  0.35117  1.0000
  C   C2022     1.0  0.32215  0.23853  0.27647  1.0000
  C   C2023     1.0  0.47293  0.30767  0.36085  1.0000
  C   C2024     1.0  0.41568  0.25782  0.42805  1.0000
  H   H1606     1.0  0.44442  0.33025  0.38196  1.0000
  C   C2025     1.0  0.58460  0.25909  0.33673  1.0000
  H   H1607     1.0  0.38601  0.10297  0.43981  1.0000
  C   C2026     1.0  0.34443  0.30275  0.31660  1.0000
  H   H1608     1.0  0.33213  0.04894  0.39514  1.0000
  C   C2027     1.0  0.51884  0.28388  0.38765  1.0000
  H   H1609     1.0  0.64799  0.18053  0.41971  1.0000
  C   C2028     1.0  0.59161  0.25680  0.38986  1.0000
  H   H1610     1.0  0.55669  0.19378  0.35836  1.0000
  H   H1611     1.0  0.43505  0.20568  0.41677  1.0000
  C   C2029     1.0  0.63125  0.21518  0.45622  1.0000
  H   H1612     1.0  0.50836  0.47242  0.40756  1.0000
  C   C2030     1.0  0.43240  0.23353  0.38243  1.0000
  C   C2031     1.0  0.65055  0.10224  0.31250  1.0000
  C   C2032     1.0  0.41505  0.23583  0.42501  1.0000
  C   C2033     1.0  0.65007  0.13966  0.45518  1.0000
  C   C2034     1.0  0.32165  0.41885  0.33643  1.0000
  C   C2035     1.0  0.39534  0.32505  0.42696  1.0000
  C   C2036     1.0  0.36361  0.33123  0.44535  1.0000
  H   H1613     1.0  0.55017  0.34170  0.38837  1.0000
  H   H1614     1.0  0.40189  0.32885  0.41651  1.0000
  C   C2037     1.0  0.63949  0.12574  0.31198  1.0000
  H   H1615     1.0  0.40629  0.18710  0.33607  1.0000
  H   H1616     1.0  0.40870  0.20075  0.31186  1.0000
  C   C2038     1.0  0.54622  0.21671  0.34102  1.0000
  C   C2039     1.0  0.64450  0.16251  0.44810  1.0000
  H   H1617     1.0  0.59526  0.37504  0.35529  1.0000
  C   C2040     1.0  0.44327  0.31378  0.40233  1.0000
  C   C2041     1.0  0.61175  0.13115  0.45417  1.0000
  H   H1618     1.0  0.33222  0.19328  0.30816  1.0000
  C   C2042     1.0  0.61843  0.22884  0.41087  1.0000
  P   P69       1.0  0.43842  0.29503  0.42920  1.0000
  C   C2043     1.0  0.34649  0.26025  0.35957  1.0000
  C   C2044     1.0  0.37995  0.08649  0.44453  1.0000
  C   C2045     1.0  0.32024  0.33326  0.39216  1.0000
  H   H1619     1.0  0.62606  0.13093  0.32013  1.0000
  C   C2046     1.0  0.52140  0.24758  0.35836  1.0000
  C   C2047     1.0  0.62211  0.16957  0.44435  1.0000
  H   H1620     1.0  0.39941  0.26768  0.43249  1.0000
  C   C2048     1.0  0.33101  0.07392  0.42306  1.0000
  H   H1621     1.0  0.57839  0.25219  0.32946  1.0000
  P   P70       1.0  0.50123  0.26511  0.36958  1.0000
  H   H1622     1.0  0.64803  0.08482  0.40587  1.0000
  C   C2049     1.0  0.60591  0.15389  0.44728  1.0000
  H   H1623     1.0  0.50964  0.26937  0.34083  1.0000
  C   C2050     1.0  0.63708  0.15319  0.34594  1.0000
  H   H1624     1.0  0.61347  0.39031  0.32041  1.0000
  H   H1625     1.0  0.34220  0.08643  0.39435  1.0000
  H   H1626     1.0  0.59113  0.31109  0.34382  1.0000
  C   C2051     1.0  0.59833  0.31659  0.36851  1.0000
  H   H1627     1.0  0.48871  0.35324  0.40310  1.0000
  H   H1628     1.0  0.64508  0.08957  0.32108  1.0000
  C   C2052     1.0  0.34810  0.09316  0.36083  1.0000
  C   C2053     1.0  0.37233  0.09398  0.35757  1.0000
  C   C2054     1.0  0.38572  0.09130  0.36755  1.0000
  C   C2055     1.0  0.37480  0.08817  0.38079  1.0000
  H   H1629     1.0  0.62337  0.34978  0.25111  1.0000
  C   C2056     1.0  0.40896  0.30899  0.43543  1.0000
  C   C2057     1.0  0.39936  0.30367  0.44891  1.0000
  H   H1630     1.0  0.61722  0.18704  0.43897  1.0000
  H   H1631     1.0  0.38200  0.03171  0.43816  1.0000
  H   H1632     1.0  0.61099  0.24009  0.36376  1.0000
  C   C2058     1.0  0.33601  0.45198  0.41325  1.0000
  H   H1633     1.0  0.34554  0.06083  0.41967  1.0000
  H   H1634     1.0  0.45973  0.27405  0.38964  1.0000
  H   H1635     1.0  0.43591  0.45741  0.38871  1.0000
  H   H1636     1.0  0.53195  0.29798  0.40172  1.0000
  C   C2059     1.0  0.62848  0.37637  0.31906  1.0000
  C   C2060     1.0  0.60293  0.25243  0.35617  1.0000
  H   H1637     1.0  0.62438  0.39379  0.44463  1.0000
  C   C2061     1.0  0.51528  0.30705  0.35544  1.0000
  H   H1638     1.0  0.45135  0.34100  0.35506  1.0000
  H   H1639     1.0  0.63460  0.42619  0.36449  1.0000
  C   C2062     1.0  0.45689  0.23160  0.41620  1.0000
  H   H1640     1.0  0.38062  0.09711  0.34728  1.0000
  H   H1641     1.0  0.40441  0.09229  0.36504  1.0000
  H   H1642     1.0  0.38495  0.08688  0.38856  1.0000
  H   H1643     1.0  0.44613  0.21265  0.36708  1.0000
  H   H1644     1.0  0.61898  0.21630  0.41990  1.0000
  C   C2063     1.0  0.63276  0.35695  0.44329  1.0000
  C   C2064     1.0  0.53472  0.22600  0.36318  1.0000
  H   H1645     1.0  0.37365  0.22353  0.30284  1.0000
  C   C2065     1.0  0.45747  0.25380  0.41895  1.0000
  H   H1646     1.0  0.57708  0.22907  0.40904  1.0000
  C   C2066     1.0  0.37678  0.31479  0.45384  1.0000
  C   C2067     1.0  0.47412  0.25299  0.37429  1.0000
  H   H1647     1.0  0.34619  0.34002  0.44914  1.0000
  C   C2068     1.0  0.33706  0.08961  0.37415  1.0000
  C   C2069     1.0  0.38131  0.41924  0.43877  1.0000
  C   C2070     1.0  0.32146  0.31408  0.38592  1.0000
  C   C2071     1.0  0.38027  0.44030  0.44328  1.0000
  H   H1648     1.0  0.32450  0.43640  0.33157  1.0000
  C   C2072     1.0  0.36532  0.08486  0.45689  1.0000
  H   H1649     1.0  0.64859  0.19675  0.36803  1.0000
  S   S270      1.0  0.34140  0.40327  0.41972  1.0000
  C   C2073     1.0  0.59182  0.29225  0.34495  1.0000
  H   H1650     1.0  0.47460  0.32675  0.42328  1.0000
  H   H1651     1.0  0.37414  0.40460  0.44533  1.0000
  H   H1652     1.0  0.39846  0.22911  0.42697  1.0000
  C   C2074     1.0  0.64992  0.21202  0.44562  1.0000
  C   C2075     1.0  0.64605  0.14271  0.30112  1.0000
  H   H1653     1.0  0.44488  0.32759  0.44527  1.0000
  C   C2076     1.0  0.63410  0.36675  0.30742  1.0000
  H   H1654     1.0  0.51722  0.30065  0.38109  1.0000
  C   C2077     1.0  0.32233  0.17164  0.35320  1.0000
  H   H1655     1.0  0.61904  0.33647  0.35202  1.0000
  C   C2078     1.0  0.51245  0.26391  0.38464  1.0000
  H   H1656     1.0  0.37807  0.31380  0.34321  1.0000
  H   H1657     1.0  0.43009  0.30341  0.40195  1.0000
  H   H1658     1.0  0.49464  0.25101  0.45880  1.0000
  C   C2079     1.0  0.51362  0.24299  0.39392  1.0000
  C   C2080     1.0  0.52222  0.24157  0.40562  1.0000
  H   H1659     1.0  0.56064  0.37778  0.37328  1.0000
  H   H1660     1.0  0.50772  0.22771  0.39216  1.0000
  C   C2081     1.0  0.45696  0.26068  0.38464  1.0000
  C   C2082     1.0  0.63373  0.12411  0.45820  1.0000
  C   C2083     1.0  0.44915  0.22614  0.37194  1.0000
  C   C2084     1.0  0.47003  0.23565  0.36792  1.0000
  C   C2085     1.0  0.57860  0.31834  0.37866  1.0000
  C   C2086     1.0  0.33485  0.28318  0.36103  1.0000
  H   H1661     1.0  0.62557  0.30010  0.39059  1.0000
  C   C2087     1.0  0.42006  0.46790  0.38545  1.0000
  H   H1662     1.0  0.38827  0.47543  0.43841  1.0000
  H   H1663     1.0  0.64840  0.26966  0.43076  1.0000
  C   C2088     1.0  0.64384  0.25441  0.43794  1.0000
  H   H1664     1.0  0.64532  0.32157  0.43959  1.0000
  H   H1665     1.0  0.59542  0.22479  0.34775  1.0000
  C   C2089     1.0  0.64816  0.10573  0.42861  1.0000
  C   C2090     1.0  0.32115  0.02570  0.47211  1.0000
  C   C2091     1.0  0.62512  0.25737  0.44842  1.0000
  C   C2092     1.0  0.63791  0.37973  0.44138  1.0000
  C   C2093     1.0  0.32865  0.38535  0.35369  1.0000
  H   H1666     1.0  0.65130  0.29966  0.31293  1.0000
  H   H1667     1.0  0.49433  0.28548  0.46921  1.0000
  H   H1668     1.0  0.38785  0.98628  0.44924  1.0000
  H   H1669     1.0  0.64798  0.26657  0.34465  1.0000
  H   H1670     1.0  0.64294  0.07164  0.44000  1.0000
  H   H1671     1.0  0.31985  0.26534  0.28800  1.0000
  H   H1672     1.0  0.57563  0.29536  0.32782  1.0000
  H   H1673     1.0  0.33797  0.32022  0.35599  1.0000
  H   H1674     1.0  0.60434  0.24013  0.46570  1.0000
  P   P71       1.0  0.32543  0.23981  0.31514  1.0000
  C   C2094     1.0  0.37164  0.98693  0.44563  1.0000
  H   H1675     1.0  0.62342  0.37368  0.29977  1.0000
  H   H1676     1.0  0.63853  0.37644  0.33769  1.0000
  C   C2095     1.0  0.64753  0.45171  0.42917  1.0000
  H   H1677     1.0  0.39172  0.47816  0.35904  1.0000
  H   H1678     1.0  0.62539  0.01148  0.32383  1.0000
  C   C2096     1.0  0.64977  0.33900  0.43851  1.0000
  H   H1679     1.0  0.34534  0.06293  0.47222  1.0000
  C   C2097     1.0  0.32970  0.20610  0.29932  1.0000
  H   H1680     1.0  0.64943  0.31606  0.36982  1.0000
  H   H1681     1.0  0.44085  0.45730  0.42865  1.0000
  H   H1682     1.0  0.65015  0.44391  0.46210  1.0000
  C   C2098     1.0  0.32931  0.19815  0.28768  1.0000
  H   H1683     1.0  0.46932  0.32367  0.46244  1.0000
  C   C2099     1.0  0.64005  0.34478  0.26823  1.0000
  C   C2100     1.0  0.32611  0.23036  0.29967  1.0000
  H   H1684     1.0  0.62617  0.20016  0.46340  1.0000
  C   C2101     1.0  0.64540  0.29131  0.35792  1.0000
  H   H1685     1.0  0.63334  0.00951  0.34643  1.0000
  C   C2102     1.0  0.63854  0.02092  0.32530  1.0000
  C   C2103     1.0  0.64877  0.41651  0.35833  1.0000
  C   C2104     1.0  0.64301  0.01980  0.33804  1.0000
  C   C2105     1.0  0.52429  0.06833  0.71815  1.0000
  H   H1686     1.0  0.37760  0.10736  0.69693  1.0000
  C   C2106     1.0  0.62109  0.02636  0.53380  1.0000
  H   H1687     1.0  0.59079  0.15551  0.71786  1.0000
  C   C2107     1.0  0.53120  0.15863  0.72261  1.0000
  C   C2108     1.0  0.35071  0.08641  0.69830  1.0000
  C   C2109     1.0  0.46881  0.31224  0.71839  1.0000
  C   C2110     1.0  0.36343  0.09930  0.70342  1.0000
  H   H1688     1.0  0.63655  0.04004  0.70839  1.0000
  C   C2111     1.0  0.45756  0.33144  0.71038  1.0000
  C   C2112     1.0  0.58412  0.07755  0.71150  1.0000
  H   H1689     1.0  0.35534  0.08471  0.68796  1.0000
  H   H1690     1.0  0.57424  0.09217  0.70572  1.0000
  H   H1691     1.0  0.46767  0.19540  0.71475  1.0000
  C   C2113     1.0  0.62763  0.00748  0.52671  1.0000
  C   C2114     1.0  0.36906  0.99959  0.47471  1.0000
  C   C2115     1.0  0.46816  0.21024  0.71932  1.0000
  C   C2116     1.0  0.63735  0.05268  0.51459  1.0000
  H   H1692     1.0  0.38522  0.02802  0.47751  1.0000
  H   H1693     1.0  0.42414  0.35159  0.70614  1.0000
  S   S271      1.0  0.37535  0.11932  0.72189  1.0000
  C   C2117     1.0  0.59287  0.98648  0.55809  1.0000
  C   C2118     1.0  0.60594  0.06652  0.70553  1.0000
  C   C2119     1.0  0.48902  0.23992  0.72250  1.0000
  H   H1694     1.0  0.50511  0.05513  0.70645  1.0000
  C   C2120     1.0  0.64401  0.03401  0.50749  1.0000
  C   C2121     1.0  0.58682  0.98389  0.57187  1.0000
  C   C2122     1.0  0.33094  0.17434  0.71922  1.0000
  H   H1695     1.0  0.56965  0.99209  0.57638  1.0000
  C   C2123     1.0  0.63925  0.01157  0.51353  1.0000
  H   H1696     1.0  0.33302  0.44269  0.71272  1.0000
  C   C2124     1.0  0.55313  0.16616  0.71951  1.0000
  H   H1697     1.0  0.34991  0.16854  0.71802  1.0000
  C   C2125     1.0  0.39832  0.99511  0.48887  1.0000
  H   H1698     1.0  0.46572  0.06840  0.71917  1.0000
  H   H1699     1.0  0.50366  0.21426  0.70970  1.0000
  C   C2126     1.0  0.35810  0.10194  0.71673  1.0000
  H   H1700     1.0  0.61280  0.07259  0.69525  1.0000
  H   H1701     1.0  0.46796  0.34238  0.70273  1.0000
  C   C2127     1.0  0.62592  0.04885  0.52774  1.0000
  C   C2128     1.0  0.61930  0.04812  0.71291  1.0000
  S   S272      1.0  0.64113  0.14463  0.71982  1.0000
  C   C2129     1.0  0.43289  0.33659  0.71225  1.0000
  C   C2130     1.0  0.38421  0.00940  0.48007  1.0000
  H   H1702     1.0  0.62078  0.06335  0.53324  1.0000
  H   H1703     1.0  0.58023  0.99670  0.55202  1.0000
  H   H1704     1.0  0.33366  0.21123  0.71463  1.0000
  C   C2131     1.0  0.33212  0.07584  0.70629  1.0000
  H   H1705     1.0  0.40998  0.00273  0.49300  1.0000
  H   H1706     1.0  0.61238  0.02389  0.54399  1.0000
  H   H1707     1.0  0.64505  0.99732  0.50790  1.0000
  H   H1708     1.0  0.32467  0.99827  0.48922  1.0000
  H   H1709     1.0  0.48792  0.30828  0.71665  1.0000
  H   H1710     1.0  0.51515  0.17143  0.72243  1.0000
  C   C2132     1.0  0.57375  0.14967  0.72020  1.0000
  H   H1711     1.0  0.64109  0.07008  0.50989  1.0000
  C   C2133     1.0  0.32177  0.19837  0.71727  1.0000
  H   H1712     1.0  0.60644  0.98927  0.50841  1.0000
  H   H1713     1.0  0.54123  0.06256  0.71240  1.0000
  H   H1714     1.0  0.50466  0.24820  0.71999  1.0000
  C   C2134     1.0  0.32648  0.07829  0.71974  1.0000
  C   C2135     1.0  0.48843  0.22080  0.71654  1.0000
  C   C2136     1.0  0.41946  0.32236  0.72204  1.0000
  C   C2137     1.0  0.50381  0.06406  0.71472  1.0000
  C   C2138     1.0  0.48161  0.07149  0.72188  1.0000
  H   H1715     1.0  0.55411  0.18481  0.71686  1.0000
  C   C2139     1.0  0.32072  0.44066  0.72194  1.0000
  C   C2140     1.0  0.59482  0.97850  0.51525  1.0000
  Fe  Fe137     1.0  0.37369  0.00697  0.86897  1.0000
  H   H1716     1.0  0.46266  0.08907  0.73806  1.0000
  Fe  Fe138     1.0  0.37824  0.04855  0.84673  1.0000
  S   S273      1.0  0.39919  0.02592  0.83228  1.0000
  S   S274      1.0  0.37344  0.08779  0.84006  1.0000
  Fe  Fe139     1.0  0.41928  0.00835  0.84872  1.0000
  H   H1717     1.0  0.48241  0.19961  0.74739  1.0000
  S   S275      1.0  0.35038  0.02553  0.85421  1.0000
  S   S276      1.0  0.39963  0.03243  0.86279  1.0000
  Fe  Fe140     1.0  0.61390  0.03238  0.87768  1.0000
  S   S277      1.0  0.60386  0.00075  0.87223  1.0000
  S   S278      1.0  0.62960  0.02685  0.89658  1.0000
  Fe  Fe141     1.0  0.59279  0.06615  0.85495  1.0000
  S   S279      1.0  0.58126  0.03721  0.84805  1.0000
  S   S280      1.0  0.58596  0.10400  0.84436  1.0000
  Fe  Fe142     1.0  0.56901  0.02393  0.86938  1.0000
  S   S281      1.0  0.53272  0.01337  0.87749  1.0000
  Fe  Fe143     1.0  0.61697  0.01685  0.85132  1.0000
  S   S282      1.0  0.57800  0.05446  0.87631  1.0000
  S   S283      1.0  0.62944  0.04679  0.85685  1.0000
  C   C2141     1.0  0.42882  0.17842  0.78442  1.0000
  C   C2142     1.0  0.55482  0.18164  0.84282  1.0000
  S   S284      1.0  0.53106  0.19119  0.74993  1.0000
  C   C2143     1.0  0.31967  0.02684  0.89351  1.0000
  C   C2144     1.0  0.42855  0.14647  0.80306  1.0000
  H   H1718     1.0  0.33893  0.24062  0.80267  1.0000
  S   S285      1.0  0.41794  0.44763  0.82652  1.0000
  Fe  Fe144     1.0  0.59096  0.35808  0.77236  1.0000
  S   S286      1.0  0.59650  0.37842  0.75160  1.0000
  Fe  Fe145     1.0  0.58293  0.40347  0.78475  1.0000
  S   S287      1.0  0.58771  0.42660  0.76489  1.0000
  S   S288      1.0  0.56796  0.42191  0.80241  1.0000
  Fe  Fe146     1.0  0.56544  0.40449  0.75910  1.0000
  S   S289      1.0  0.53278  0.42094  0.75007  1.0000
  S   S290      1.0  0.55873  0.38334  0.77927  1.0000
  H   H1719     1.0  0.58345  0.46770  0.83296  1.0000
  S   S291      1.0  0.63582  0.16098  0.75458  1.0000
  Fe  Fe147     1.0  0.56952  0.17812  0.75183  1.0000
  S   S292      1.0  0.58322  0.18230  0.76967  1.0000
  H   H1720     1.0  0.56443  0.28123  0.77408  1.0000
  Fe  Fe148     1.0  0.61289  0.19661  0.75478  1.0000
  S   S293      1.0  0.63186  0.22698  0.75470  1.0000
  Fe  Fe149     1.0  0.60497  0.14655  0.76780  1.0000
  S   S294      1.0  0.61152  0.11279  0.78218  1.0000
  C   C2145     1.0  0.39738  0.18061  0.80350  1.0000
  S   S295      1.0  0.58888  0.14140  0.75115  1.0000
  P   P72       1.0  0.32505  0.99874  0.77685  1.0000
  S   S296      1.0  0.35399  0.16151  0.74942  1.0000
  C   C2146     1.0  0.59344  0.25790  0.76481  1.0000
  Fe  Fe150     1.0  0.41838  0.13760  0.75551  1.0000
  S   S297      1.0  0.39385  0.16316  0.76739  1.0000
  H   H1721     1.0  0.61772  0.99950  0.80764  1.0000
  Fe  Fe151     1.0  0.36668  0.14067  0.76789  1.0000
  S   S298      1.0  0.33945  0.12903  0.78527  1.0000
  Fe  Fe152     1.0  0.38353  0.18194  0.74800  1.0000
  S   S299      1.0  0.38124  0.22167  0.74075  1.0000
  S   S300      1.0  0.39195  0.11330  0.75772  1.0000
  H   H1722     1.0  0.45374  0.14603  0.78493  1.0000
  Fe  Fe153     1.0  0.37615  0.33922  0.76838  1.0000
  H   H1723     1.0  0.32589  0.03554  0.88363  1.0000
  C   C2147     1.0  0.37797  0.23777  0.76437  1.0000
  Fe  Fe154     1.0  0.37496  0.38590  0.77816  1.0000
  S   S301      1.0  0.39638  0.40111  0.75919  1.0000
  S   S302      1.0  0.35833  0.40645  0.79484  1.0000
  H   H1724     1.0  0.41886  0.30303  0.77775  1.0000
  H   H1725     1.0  0.48288  0.01263  0.88355  1.0000
  Fe  Fe155     1.0  0.41849  0.36512  0.75990  1.0000
  H   H1726     1.0  0.40026  0.20745  0.78604  1.0000
  S   S303      1.0  0.34992  0.37304  0.76859  1.0000
  S   S304      1.0  0.39900  0.35114  0.77973  1.0000
  H   H1727     1.0  0.63981  0.47282  0.97013  1.0000
  C   C2148     1.0  0.37910  0.24352  0.75067  1.0000
  C   C2149     1.0  0.37827  0.26732  0.74464  1.0000
  C   C2150     1.0  0.37572  0.28523  0.75226  1.0000
  C   C2151     1.0  0.37407  0.27951  0.76601  1.0000
  C   C2152     1.0  0.40815  0.15879  0.80969  1.0000
  C   C2153     1.0  0.52462  0.22320  0.83499  1.0000
  C   C2154     1.0  0.46950  0.24822  0.73156  1.0000
  H   H1728     1.0  0.37450  0.30350  0.74753  1.0000
  C   C2155     1.0  0.50288  0.00786  0.84651  1.0000
  C   C2156     1.0  0.54868  0.27246  0.81908  1.0000
  C   C2157     1.0  0.53064  0.42209  0.87333  1.0000
  C   C2158     1.0  0.51046  0.17171  0.75267  1.0000
  S   S305      1.0  0.61488  0.37638  0.77988  1.0000
  C   C2159     1.0  0.58299  0.27868  0.76993  1.0000
  C   C2160     1.0  0.47636  0.14184  0.75700  1.0000
  C   C2161     1.0  0.47026  0.16605  0.75272  1.0000
  C   C2162     1.0  0.48722  0.18093  0.75070  1.0000
  H   H1729     1.0  0.64538  0.21176  0.78367  1.0000
  C   C2163     1.0  0.50282  0.29980  0.74129  1.0000
  H   H1730     1.0  0.45249  0.17329  0.75094  1.0000
  H   H1731     1.0  0.58307  0.24456  0.76492  1.0000
  C   C2164     1.0  0.59647  0.29612  0.76979  1.0000
  C   C2165     1.0  0.61760  0.25405  0.75980  1.0000
  C   C2166     1.0  0.63100  0.27170  0.75936  1.0000
  C   C2167     1.0  0.62046  0.29272  0.76423  1.0000
  H   H1732     1.0  0.33289  0.16520  0.81408  1.0000
  H   H1733     1.0  0.63108  0.30590  0.76414  1.0000
  C   C2168     1.0  0.51175  0.40203  0.75244  1.0000
  C   C2169     1.0  0.51767  0.37784  0.75687  1.0000
  C   C2170     1.0  0.50093  0.36292  0.75846  1.0000
  C   C2171     1.0  0.47804  0.37207  0.75586  1.0000
  C   C2172     1.0  0.47192  0.39633  0.75163  1.0000
  C   C2173     1.0  0.48884  0.41124  0.74981  1.0000
  H   H1734     1.0  0.53532  0.37052  0.75881  1.0000
  H   H1735     1.0  0.48518  0.44248  0.79250  1.0000
  H   H1736     1.0  0.45435  0.40348  0.74951  1.0000
  H   H1737     1.0  0.48421  0.42990  0.74629  1.0000
  C   C2174     1.0  0.40125  0.43632  0.81772  1.0000
  C   C2175     1.0  0.41285  0.42451  0.80719  1.0000
  C   C2176     1.0  0.39992  0.41554  0.79994  1.0000
  C   C2177     1.0  0.37533  0.41793  0.80336  1.0000
  C   C2178     1.0  0.36380  0.42929  0.81406  1.0000
  C   C2179     1.0  0.37671  0.43842  0.82123  1.0000
  H   H1738     1.0  0.43189  0.42248  0.80455  1.0000
  H   H1739     1.0  0.40894  0.40674  0.79175  1.0000
  H   H1740     1.0  0.34482  0.43086  0.81687  1.0000
  H   H1741     1.0  0.36774  0.44690  0.82955  1.0000
  C   C2180     1.0  0.61309  0.44080  0.82845  1.0000
  C   C2181     1.0  0.59054  0.45352  0.82740  1.0000
  C   C2182     1.0  0.57688  0.44748  0.81939  1.0000
  C   C2183     1.0  0.58616  0.42957  0.81181  1.0000
  C   C2184     1.0  0.60910  0.41745  0.81243  1.0000
  C   C2185     1.0  0.62225  0.42266  0.82100  1.0000
  H   H1742     1.0  0.53768  0.01065  0.84945  1.0000
  C   C2186     1.0  0.43067  0.30331  0.73014  1.0000
  H   H1743     1.0  0.61637  0.40356  0.80665  1.0000
  H   H1744     1.0  0.43239  0.21122  0.72986  1.0000
  C   C2187     1.0  0.33508  0.19597  0.78085  1.0000
  C   C2188     1.0  0.51172  0.43761  0.86848  1.0000
  H   H1745     1.0  0.37917  0.27198  0.73404  1.0000
  H   H1746     1.0  0.35262  0.01113  0.72845  1.0000
  C   C2189     1.0  0.59024  0.10687  0.82699  1.0000
  C   C2190     1.0  0.59574  0.08686  0.82096  1.0000
  C   C2191     1.0  0.60139  0.08906  0.80718  1.0000
  C   C2192     1.0  0.60180  0.11128  0.79929  1.0000
  C   C2193     1.0  0.59527  0.13149  0.80518  1.0000
  C   C2194     1.0  0.58949  0.12927  0.81905  1.0000
  H   H1747     1.0  0.59687  0.06956  0.82690  1.0000
  H   H1748     1.0  0.60625  0.07337  0.80268  1.0000
  H   H1749     1.0  0.59541  0.14866  0.79909  1.0000
  H   H1750     1.0  0.58527  0.14480  0.82366  1.0000
  C   C2195     1.0  0.36515  0.09690  0.82438  1.0000
  C   C2196     1.0  0.37903  0.11044  0.81440  1.0000
  C   C2197     1.0  0.37174  0.11969  0.80217  1.0000
  C   C2198     1.0  0.35000  0.11609  0.80006  1.0000
  C   C2199     1.0  0.35520  0.23125  0.82638  1.0000
  C   C2200     1.0  0.34392  0.09240  0.82207  1.0000
  H   H1751     1.0  0.39551  0.11360  0.81618  1.0000
  H   H1752     1.0  0.38267  0.13002  0.79451  1.0000
  H   H1753     1.0  0.61134  0.47619  0.80165  1.0000
  H   H1754     1.0  0.57565  0.45037  0.85576  1.0000
  C   C2201     1.0  0.47909  0.00737  0.85227  1.0000
  C   C2202     1.0  0.47188  0.00945  0.86561  1.0000
  C   C2203     1.0  0.48849  0.01146  0.87317  1.0000
  C   C2204     1.0  0.51231  0.01196  0.86741  1.0000
  C   C2205     1.0  0.51940  0.01041  0.85399  1.0000
  P   P73       1.0  0.54886  0.08680  0.73299  1.0000
  C   C2206     1.0  0.51978  0.21026  0.84773  1.0000
  C   C2207     1.0  0.54955  0.06885  0.77793  1.0000
  C   C2208     1.0  0.35055  0.20476  0.79883  1.0000
  H   H1755     1.0  0.37770  0.18006  0.83843  1.0000
  H   H1756     1.0  0.57120  0.45900  0.96840  1.0000
  C   C2209     1.0  0.34241  0.02440  0.94256  1.0000
  H   H1757     1.0  0.63785  0.08361  0.83168  1.0000
  H   H1758     1.0  0.57699  0.09879  0.74972  1.0000
  C   C2210     1.0  0.54849  0.07994  0.75066  1.0000
  H   H1759     1.0  0.44240  0.30771  0.75540  1.0000
  C   C2211     1.0  0.64628  0.45771  0.79587  1.0000
  C   C2212     1.0  0.47987  0.08308  0.73252  1.0000
  C   C2213     1.0  0.52499  0.30275  0.74314  1.0000
  H   H1760     1.0  0.35531  0.44585  0.76267  1.0000
  S   S306      1.0  0.59782  0.19466  0.73704  1.0000
  H   H1761     1.0  0.63829  0.06623  0.77242  1.0000
  H   H1762     1.0  0.52156  0.05748  0.75512  1.0000
  C   C2214     1.0  0.58236  0.46651  0.97294  1.0000
  C   C2215     1.0  0.53783  0.22703  0.78572  1.0000
  C   C2216     1.0  0.41351  0.46965  0.89374  1.0000
  H   H1763     1.0  0.44058  0.99258  0.90510  1.0000
  C   C2217     1.0  0.61293  0.19810  0.79160  1.0000
  H   H1764     1.0  0.35854  0.46863  0.91315  1.0000
  C   C2218     1.0  0.50407  0.14608  0.79116  1.0000
  C   C2219     1.0  0.52770  0.14700  0.78565  1.0000
  C   C2220     1.0  0.54525  0.12876  0.78969  1.0000
  C   C2221     1.0  0.53932  0.10954  0.79928  1.0000
  C   C2222     1.0  0.51557  0.10839  0.80482  1.0000
  C   C2223     1.0  0.49805  0.12717  0.80093  1.0000
  P   P74       1.0  0.50756  0.08450  0.81785  1.0000
  C   C2224     1.0  0.52721  0.05714  0.81554  1.0000
  C   C2225     1.0  0.51122  0.09061  0.83348  1.0000
  C   C2226     1.0  0.50926  0.07308  0.84478  1.0000
  C   C2227     1.0  0.51515  0.07616  0.85652  1.0000
  C   C2228     1.0  0.52326  0.09670  0.85706  1.0000
  C   C2229     1.0  0.52510  0.11436  0.84591  1.0000
  C   C2230     1.0  0.51913  0.11138  0.83416  1.0000
  C   C2231     1.0  0.51985  0.03916  0.81109  1.0000
  C   C2232     1.0  0.53488  0.01764  0.81009  1.0000
  C   C2233     1.0  0.55726  0.01383  0.81360  1.0000
  C   C2234     1.0  0.56477  0.03163  0.81794  1.0000
  C   C2235     1.0  0.54977  0.05311  0.81901  1.0000
  C   C2236     1.0  0.47782  0.08075  0.81737  1.0000
  C   C2237     1.0  0.47104  0.08198  0.80507  1.0000
  C   C2238     1.0  0.44844  0.07838  0.80446  1.0000
  C   C2239     1.0  0.43252  0.07327  0.81611  1.0000
  C   C2240     1.0  0.43902  0.07215  0.82836  1.0000
  C   C2241     1.0  0.46156  0.07589  0.82902  1.0000
  H   H1765     1.0  0.49043  0.15996  0.78777  1.0000
  H   H1766     1.0  0.53248  0.16169  0.77810  1.0000
  H   H1767     1.0  0.56346  0.12957  0.78528  1.0000
  H   H1768     1.0  0.55332  0.09583  0.80236  1.0000
  H   H1769     1.0  0.47972  0.12721  0.80540  1.0000
  H   H1770     1.0  0.50385  0.05669  0.84439  1.0000
  H   H1771     1.0  0.51412  0.06228  0.86511  1.0000
  H   H1772     1.0  0.52877  0.09861  0.86601  1.0000
  H   H1773     1.0  0.53226  0.12986  0.84623  1.0000
  H   H1774     1.0  0.52167  0.12492  0.82555  1.0000
  H   H1775     1.0  0.50233  0.04124  0.80877  1.0000
  H   H1776     1.0  0.52883  0.00367  0.80699  1.0000
  H   H1777     1.0  0.56868  0.99696  0.81315  1.0000
  H   H1778     1.0  0.58207  0.02863  0.82078  1.0000
  H   H1779     1.0  0.55558  0.06638  0.82285  1.0000
  H   H1780     1.0  0.48330  0.08547  0.79592  1.0000
  H   H1781     1.0  0.44326  0.07940  0.79497  1.0000
  H   H1782     1.0  0.41509  0.07015  0.81568  1.0000
  H   H1783     1.0  0.42656  0.06812  0.83738  1.0000
  H   H1784     1.0  0.46610  0.07467  0.83865  1.0000
  C   C2242     1.0  0.49848  0.27731  0.74080  1.0000
  C   C2243     1.0  0.55981  0.19463  0.83012  1.0000
  H   H1785     1.0  0.41531  0.26345  0.79068  1.0000
  C   C2244     1.0  0.44886  0.23813  0.73388  1.0000
  C   C2245     1.0  0.32415  0.23487  0.78679  1.0000
  C   C2246     1.0  0.43884  0.24517  0.77593  1.0000
  H   H1786     1.0  0.46172  0.23200  0.75935  1.0000
  C   C2247     1.0  0.37925  0.25968  0.82755  1.0000
  C   C2248     1.0  0.64449  0.09696  0.73006  1.0000
  H   H1787     1.0  0.52826  0.32019  0.74342  1.0000
  C   C2249     1.0  0.56480  0.08322  0.76965  1.0000
  C   C2250     1.0  0.43867  0.15610  0.79034  1.0000
  H   H1788     1.0  0.43595  0.12904  0.80763  1.0000
  H   H1789     1.0  0.43307  0.24498  0.74027  1.0000
  H   H1790     1.0  0.62977  0.25082  0.79030  1.0000
  H   H1791     1.0  0.51253  0.23902  0.83201  1.0000
  H   H1792     1.0  0.56919  0.04502  0.94830  1.0000
  H   H1793     1.0  0.52839  0.27142  0.79095  1.0000
  H   H1794     1.0  0.52697  0.40684  0.88064  1.0000
  H   H1795     1.0  0.52212  0.04855  0.77905  1.0000
  H   H1796     1.0  0.33306  0.08204  0.82977  1.0000
  C   C2251     1.0  0.35273  0.04414  0.93580  1.0000
  P   P75       1.0  0.46955  0.27348  0.73893  1.0000
  H   H1797     1.0  0.37455  0.25108  0.78257  1.0000
  S   S307      1.0  0.36018  0.99299  0.89046  1.0000
  C   C2252     1.0  0.32448  0.99484  0.91176  1.0000
  C   C2253     1.0  0.53347  0.06513  0.75902  1.0000
  C   C2254     1.0  0.37366  0.22049  0.81761  1.0000
  C   C2255     1.0  0.54207  0.26284  0.80940  1.0000
  H   H1798     1.0  0.40033  0.32625  0.72348  1.0000
  H   H1799     1.0  0.37836  0.21959  0.76907  1.0000
  S   S308      1.0  0.58332  0.32027  0.77807  1.0000
  H   H1800     1.0  0.54107  0.46769  0.78547  1.0000
  S   S309      1.0  0.62996  0.44681  0.83917  1.0000
  C   C2256     1.0  0.60881  0.02242  0.78980  1.0000
  C   C2257     1.0  0.36420  0.17099  0.83707  1.0000
  Fe  Fe156     1.0  0.61830  0.39872  0.75941  1.0000
  H   H1801     1.0  0.47816  0.43022  0.84147  1.0000
  H   H1802     1.0  0.37471  0.44732  0.73932  1.0000
  H   H1803     1.0  0.52551  0.31421  0.78903  1.0000
  C   C2258     1.0  0.50027  0.08727  0.73599  1.0000
  H   H1804     1.0  0.43767  0.22781  0.78167  1.0000
  H   H1805     1.0  0.61970  0.18123  0.78841  1.0000
  C   C2259     1.0  0.40277  0.00168  0.91019  1.0000
  C   C2260     1.0  0.42865  0.98464  0.92617  1.0000
  H   H1806     1.0  0.55428  0.04345  0.97220  1.0000
  C   C2261     1.0  0.38638  0.99446  0.93362  1.0000
  C   C2262     1.0  0.44636  0.46502  0.77121  1.0000
  C   C2263     1.0  0.38328  0.00214  0.92039  1.0000
  P   P76       1.0  0.36105  0.99640  0.94671  1.0000
  C   C2264     1.0  0.52494  0.21969  0.77792  1.0000
  C   C2265     1.0  0.62351  0.46849  0.79382  1.0000
  C   C2266     1.0  0.50087  0.20214  0.79763  1.0000
  C   C2267     1.0  0.35632  0.17527  0.82487  1.0000
  C   C2268     1.0  0.54285  0.28324  0.74472  1.0000
  C   C2269     1.0  0.58046  0.22507  0.80173  1.0000
  C   C2270     1.0  0.62228  0.01397  0.79986  1.0000
  C   C2271     1.0  0.39780  0.24892  0.81895  1.0000
  H   H1807     1.0  0.62618  0.45775  0.76281  1.0000
  C   C2272     1.0  0.51589  0.45747  0.85899  1.0000
  H   H1808     1.0  0.36739  0.46776  0.77704  1.0000
  C   C2273     1.0  0.53847  0.26073  0.74460  1.0000
  C   C2274     1.0  0.37611  0.46904  0.76686  1.0000
  H   H1809     1.0  0.55907  0.45674  0.81904  1.0000
  H   H1810     1.0  0.50941  0.20491  0.81611  1.0000
  H   H1811     1.0  0.62967  0.40968  0.86429  1.0000
  H   H1812     1.0  0.63699  0.34229  0.85579  1.0000
  C   C2275     1.0  0.51627  0.25773  0.74283  1.0000
  H   H1813     1.0  0.40737  0.47025  0.73037  1.0000
  H   H1814     1.0  0.64666  0.05958  0.73724  1.0000
  C   C2276     1.0  0.51382  0.20944  0.80548  1.0000
  H   H1815     1.0  0.36128  0.98030  0.79416  1.0000
  C   C2277     1.0  0.53484  0.18945  0.85163  1.0000
  C   C2278     1.0  0.34584  0.04165  0.79727  1.0000
  H   H1816     1.0  0.57816  0.18983  0.79942  1.0000
  H   H1817     1.0  0.33856  0.22463  0.82930  1.0000
  C   C2279     1.0  0.53233  0.22215  0.79955  1.0000
  C   C2280     1.0  0.37311  0.01656  0.96592  1.0000
  H   H1818     1.0  0.58889  0.25972  0.80142  1.0000
  C   C2281     1.0  0.35798  0.25082  0.83128  1.0000
  H   H1819     1.0  0.65135  0.45776  0.80522  1.0000
  H   H1820     1.0  0.40958  0.22146  0.80727  1.0000
  C   C2282     1.0  0.63431  0.05151  0.78009  1.0000
  S   S310      1.0  0.40225  0.47820  0.85827  1.0000
  H   H1821     1.0  0.35857  0.17108  0.79210  1.0000
  C   C2283     1.0  0.35471  0.05798  0.77404  1.0000
  C   C2284     1.0  0.56688  0.36920  0.91180  1.0000
  C   C2285     1.0  0.55549  0.35139  0.91027  1.0000
  C   C2286     1.0  0.55135  0.35014  0.89777  1.0000
  C   C2287     1.0  0.55854  0.36675  0.88682  1.0000
  C   C2288     1.0  0.56987  0.38482  0.88828  1.0000
  C   C2289     1.0  0.57409  0.38584  0.90087  1.0000
  P   P77       1.0  0.57893  0.40602  0.87392  1.0000
  C   C2290     1.0  0.59857  0.42323  0.87751  1.0000
  C   C2291     1.0  0.59330  0.38904  0.86106  1.0000
  H   H1822     1.0  0.63961  0.41272  0.82182  1.0000
  H   H1823     1.0  0.37176  0.04297  0.93346  1.0000
  H   H1824     1.0  0.62223  0.34955  0.83446  1.0000
  C   C2292     1.0  0.59528  0.37851  0.83954  1.0000
  C   C2293     1.0  0.58505  0.39295  0.84898  1.0000
  C   C2294     1.0  0.58964  0.43958  0.88614  1.0000
  C   C2295     1.0  0.60458  0.45286  0.88916  1.0000
  H   H1825     1.0  0.32318  0.13918  0.72461  1.0000
  H   H1826     1.0  0.44438  0.46423  0.76128  1.0000
  C   C2296     1.0  0.62247  0.42111  0.87153  1.0000
  C   C2297     1.0  0.55389  0.42646  0.86869  1.0000
  H   H1827     1.0  0.55218  0.23652  0.78096  1.0000
  H   H1828     1.0  0.59810  0.47564  0.78067  1.0000
  C   C2298     1.0  0.33685  0.02235  0.78080  1.0000
  H   H1829     1.0  0.60445  0.04779  0.77213  1.0000
  C   C2299     1.0  0.53124  0.30254  0.79765  1.0000
  H   H1830     1.0  0.57020  0.37009  0.92148  1.0000
  H   H1831     1.0  0.54994  0.33851  0.91876  1.0000
  H   H1832     1.0  0.54259  0.33628  0.89658  1.0000
  H   H1833     1.0  0.55523  0.36555  0.87718  1.0000
  H   H1834     1.0  0.58310  0.39922  0.90235  1.0000
  H   H1835     1.0  0.63985  0.04248  0.95477  1.0000
  C   C2300     1.0  0.42547  0.99292  0.91305  1.0000
  C   C2301     1.0  0.55783  0.44671  0.85937  1.0000
  H   H1836     1.0  0.58874  0.38161  0.83026  1.0000
  H   H1837     1.0  0.57073  0.40705  0.84673  1.0000
  H   H1838     1.0  0.57110  0.44213  0.89052  1.0000
  H   H1839     1.0  0.52950  0.22340  0.76725  1.0000
  C   C2302     1.0  0.45290  0.46658  0.79668  1.0000
  H   H1840     1.0  0.40556  0.44206  0.92579  1.0000
  C   C2303     1.0  0.36901  0.45661  0.75871  1.0000
  H   H1841     1.0  0.41460  0.43323  0.90292  1.0000
  C   C2304     1.0  0.46642  0.45191  0.77602  1.0000
  C   C2305     1.0  0.62839  0.45040  0.88332  1.0000
  C   C2306     1.0  0.35540  0.15424  0.84746  1.0000
  H   H1842     1.0  0.48900  0.31509  0.74046  1.0000
  C   C2307     1.0  0.38372  0.32045  0.80986  1.0000
  C   C2308     1.0  0.37092  0.34125  0.81390  1.0000
  C   C2309     1.0  0.38267  0.35733  0.81707  1.0000
  C   C2310     1.0  0.40727  0.35292  0.81594  1.0000
  C   C2311     1.0  0.42033  0.33214  0.81179  1.0000
  C   C2312     1.0  0.40833  0.31580  0.80889  1.0000
  P   P78       1.0  0.45211  0.32632  0.81064  1.0000
  C   C2313     1.0  0.46474  0.30510  0.79975  1.0000
  C   C2314     1.0  0.46439  0.35295  0.80362  1.0000
  C   C2315     1.0  0.45442  0.36942  0.79369  1.0000
  C   C2316     1.0  0.46582  0.38825  0.78690  1.0000
  C   C2317     1.0  0.48736  0.39062  0.78983  1.0000
  C   C2318     1.0  0.49702  0.37478  0.79997  1.0000
  C   C2319     1.0  0.48556  0.35603  0.80687  1.0000
  C   C2320     1.0  0.46447  0.28094  0.80437  1.0000
  C   C2321     1.0  0.47372  0.26460  0.79583  1.0000
  C   C2322     1.0  0.48343  0.27225  0.78269  1.0000
  C   C2323     1.0  0.48387  0.29619  0.77808  1.0000
  C   C2324     1.0  0.47449  0.31256  0.78652  1.0000
  C   C2325     1.0  0.45983  0.31488  0.82684  1.0000
  C   C2326     1.0  0.44470  0.32131  0.83824  1.0000
  C   C2327     1.0  0.45102  0.31273  0.85072  1.0000
  C   C2328     1.0  0.47251  0.29779  0.85192  1.0000
  C   C2329     1.0  0.48774  0.29143  0.84063  1.0000
  C   C2330     1.0  0.48144  0.29994  0.82815  1.0000
  H   H1843     1.0  0.37465  0.30843  0.80691  1.0000
  H   H1844     1.0  0.35196  0.34530  0.81421  1.0000
  H   H1845     1.0  0.37270  0.37361  0.82001  1.0000
  H   H1846     1.0  0.41606  0.36593  0.81813  1.0000
  H   H1847     1.0  0.41782  0.29993  0.80536  1.0000
  H   H1848     1.0  0.43846  0.36714  0.79072  1.0000
  H   H1849     1.0  0.45833  0.40050  0.77902  1.0000
  H   H1850     1.0  0.49686  0.40442  0.78406  1.0000
  H   H1851     1.0  0.51372  0.37675  0.80220  1.0000
  H   H1852     1.0  0.49366  0.34362  0.81444  1.0000
  H   H1853     1.0  0.45675  0.27482  0.81448  1.0000
  H   H1854     1.0  0.47294  0.24611  0.79932  1.0000
  H   H1855     1.0  0.49090  0.30233  0.76785  1.0000
  H   H1856     1.0  0.47471  0.33101  0.78252  1.0000
  H   H1857     1.0  0.42812  0.33308  0.83756  1.0000
  H   H1858     1.0  0.43929  0.31786  0.85947  1.0000
  H   H1859     1.0  0.47742  0.29132  0.86161  1.0000
  H   H1860     1.0  0.50455  0.28011  0.84154  1.0000
  H   H1861     1.0  0.49355  0.29507  0.81949  1.0000
  C   C2331     1.0  0.53302  0.27813  0.79877  1.0000
  H   H1862     1.0  0.50123  0.46944  0.85524  1.0000
  H   H1863     1.0  0.58280  0.04548  0.74264  1.0000
  H   H1864     1.0  0.48671  0.19222  0.80224  1.0000
  C   C2332     1.0  0.45540  0.29841  0.72856  1.0000
  H   H1865     1.0  0.36210  0.15036  0.85670  1.0000
  H   H1866     1.0  0.51980  0.45030  0.80378  1.0000
  C   C2333     1.0  0.33916  0.16280  0.82334  1.0000
  C   C2334     1.0  0.50635  0.20741  0.78383  1.0000
  C   C2335     1.0  0.53891  0.46211  0.85449  1.0000
  H   H1867     1.0  0.36147  0.07150  0.76630  1.0000
  H   H1868     1.0  0.33426  0.97839  0.91586  1.0000
  H   H1869     1.0  0.51302  0.24012  0.74307  1.0000
  C   C2336     1.0  0.61192  0.37048  0.86350  1.0000
  C   C2337     1.0  0.41187  0.45129  0.90453  1.0000
  H   H1870     1.0  0.49844  0.09645  0.74422  1.0000
  H   H1871     1.0  0.61831  0.36699  0.87283  1.0000
  C   C2338     1.0  0.33852  0.14179  0.84580  1.0000
  C   C2339     1.0  0.54679  0.29690  0.81795  1.0000
  H   H1872     1.0  0.54208  0.47771  0.84726  1.0000
  C   C2340     1.0  0.33742  0.01096  0.73633  1.0000
  H   H1873     1.0  0.61190  0.04452  0.93948  1.0000
  C   C2341     1.0  0.50740  0.45559  0.81218  1.0000
  C   C2342     1.0  0.48421  0.44389  0.83362  1.0000
  H   H1874     1.0  0.34665  0.08041  0.92625  1.0000
  C   C2343     1.0  0.50006  0.43791  0.82245  1.0000
  H   H1875     1.0  0.54240  0.45483  0.76435  1.0000
  C   C2344     1.0  0.63727  0.43469  0.87443  1.0000
  H   H1876     1.0  0.59764  0.46559  0.89577  1.0000
  S   S311      1.0  0.35585  0.98810  0.82684  1.0000
  C   C2345     1.0  0.33617  0.10232  0.81000  1.0000
  H   H1877     1.0  0.50674  0.41956  0.82170  1.0000
  H   H1878     1.0  0.45522  0.46680  0.80666  1.0000
  H   H1879     1.0  0.53104  0.17929  0.86146  1.0000
  Fe  Fe157     1.0  0.37320  0.00111  0.84093  1.0000
  H   H1880     1.0  0.50434  0.11399  0.76264  1.0000
  C   C2346     1.0  0.35480  0.05885  0.78725  1.0000
  H   H1881     1.0  0.55284  0.30422  0.82512  1.0000
  H   H1882     1.0  0.45362  0.00913  0.87016  1.0000
  H   H1883     1.0  0.49014  0.25980  0.77593  1.0000
  C   C2347     1.0  0.40819  0.19058  0.79095  1.0000
  S   S312      1.0  0.45548  0.12266  0.75976  1.0000
  C   C2348     1.0  0.51664  0.14746  0.75681  1.0000
  C   C2349     1.0  0.32818  0.42556  0.73311  1.0000
  H   H1884     1.0  0.56644  0.16537  0.84582  1.0000
  C   C2350     1.0  0.42653  0.26516  0.78110  1.0000
  H   H1885     1.0  0.62756  0.44765  0.73560  1.0000
  C   C2351     1.0  0.39504  0.22942  0.81396  1.0000
  C   C2352     1.0  0.53389  0.05979  0.77263  1.0000
  H   H1886     1.0  0.43645  0.18573  0.77447  1.0000
  H   H1887     1.0  0.40043  0.15072  0.81942  1.0000
  H   H1888     1.0  0.53457  0.14009  0.75820  1.0000
  H   H1889     1.0  0.36580  0.00883  0.91794  1.0000
  Fe  Fe158     1.0  0.37231  0.38681  0.74958  1.0000
  H   H1890     1.0  0.47962  0.44131  0.76982  1.0000
  H   H1891     1.0  0.57714  0.09008  0.77372  1.0000
  C   C2353     1.0  0.61286  0.04166  0.97214  1.0000
  C   C2354     1.0  0.49953  0.13265  0.75919  1.0000
  S   S313      1.0  0.39667  0.35185  0.74853  1.0000
  Fe  Fe159     1.0  0.38084  0.13516  0.73912  1.0000
  C   C2355     1.0  0.53844  0.31190  0.80712  1.0000
  H   H1892     1.0  0.55231  0.24557  0.74587  1.0000
  H   H1893     1.0  0.46412  0.47227  0.84341  1.0000
  C   C2356     1.0  0.34903  0.18895  0.79074  1.0000
  S   S314      1.0  0.45795  0.35246  0.75762  1.0000
  P   P79       1.0  0.36948  0.19551  0.81122  1.0000
  S   S315      1.0  0.40969  0.15741  0.73595  1.0000
  H   H1894     1.0  0.41201  0.97910  0.94654  1.0000
  Fe  Fe160     1.0  0.61853  0.15787  0.73800  1.0000
  C   C2357     1.0  0.38008  0.45729  0.74553  1.0000
  S   S316      1.0  0.36894  0.30153  0.77616  1.0000
  H   H1895     1.0  0.55011  0.06455  0.78842  1.0000
  C   C2358     1.0  0.62245  0.35639  0.85391  1.0000
  C   C2359     1.0  0.34586  0.03982  0.77080  1.0000
  C   C2360     1.0  0.45229  0.24763  0.76322  1.0000
  H   H1896     1.0  0.50580  0.34420  0.76173  1.0000
  H   H1897     1.0  0.63031  0.10182  0.73790  1.0000
  C   C2361     1.0  0.37555  0.25566  0.77198  1.0000
  H   H1898     1.0  0.57540  0.18816  0.82355  1.0000
  H   H1899     1.0  0.49377  0.43435  0.87207  1.0000
  C   C2362     1.0  0.62751  0.21522  0.78903  1.0000
  C   C2363     1.0  0.58944  0.20306  0.79782  1.0000
  C   C2364     1.0  0.56447  0.08846  0.75607  1.0000
  H   H1900     1.0  0.38131  0.27494  0.83131  1.0000
  H   H1901     1.0  0.34608  0.04221  0.80753  1.0000
  H   H1902     1.0  0.65224  0.01723  0.80772  1.0000
  C   C2365     1.0  0.32282  0.21899  0.77878  1.0000
  H   H1903     1.0  0.41428  0.25579  0.81607  1.0000
  H   H1904     1.0  0.56007  0.28559  0.74607  1.0000
  C   C2366     1.0  0.59531  0.24220  0.79909  1.0000
  H   H1905     1.0  0.49656  0.20168  0.77765  1.0000
  C   C2367     1.0  0.42830  0.28757  0.77374  1.0000
  C   C2368     1.0  0.33284  0.00585  0.89896  1.0000
  S   S317      1.0  0.45929  0.00314  0.84257  1.0000
  H   H1906     1.0  0.41797  0.46581  0.88377  1.0000
  C   C2369     1.0  0.46967  0.45267  0.78876  1.0000
  S   S318      1.0  0.39522  0.98103  0.85606  1.0000
  S   S319      1.0  0.63869  0.00043  0.83407  1.0000
  H   H1907     1.0  0.59373  0.01446  0.78964  1.0000
  H   H1908     1.0  0.36180  0.07287  0.78971  1.0000
  C   C2370     1.0  0.54467  0.21547  0.82607  1.0000
  C   C2371     1.0  0.40680  0.45627  0.91740  1.0000
  H   H1909     1.0  0.50424  0.21620  0.85457  1.0000
  H   H1910     1.0  0.34588  0.03987  0.76049  1.0000
  C   C2372     1.0  0.45309  0.27013  0.75552  1.0000
  C   C2373     1.0  0.44150  0.29012  0.76099  1.0000
  H   H1911     1.0  0.55654  0.26104  0.82709  1.0000
  C   C2374     1.0  0.34050  0.00470  0.74956  1.0000
  C   C2375     1.0  0.61871  0.23723  0.79278  1.0000
  H   H1912     1.0  0.64970  0.26891  0.75544  1.0000
  H   H1913     1.0  0.34354  0.25920  0.83791  1.0000
  H   H1914     1.0  0.53833  0.33072  0.80578  1.0000
  S   S320      1.0  0.35755  0.40987  0.73182  1.0000
  P   P80       1.0  0.54979  0.23145  0.80934  1.0000
  H   H1915     1.0  0.42002  0.29247  0.73768  1.0000
  H   H1916     1.0  0.50861  0.00602  0.83625  1.0000
  H   H1917     1.0  0.38166  0.47040  0.79639  1.0000
  H   H1918     1.0  0.32689  0.46969  0.84325  1.0000
  C   C2376     1.0  0.64921  0.08718  0.82218  1.0000
  C   C2377     1.0  0.61412  0.36041  0.84192  1.0000
  C   C2378     1.0  0.39850  0.47020  0.74052  1.0000
  C   C2379     1.0  0.40918  0.98538  0.93644  1.0000
  H   H1919     1.0  0.33521  0.09303  0.73530  1.0000
  C   C2380     1.0  0.33857  0.06548  0.93175  1.0000
  C   C2381     1.0  0.60541  0.04383  0.95000  1.0000
  C   C2382     1.0  0.52889  0.46908  0.76736  1.0000
  C   C2383     1.0  0.61481  0.04121  0.77994  1.0000
  C   C2384     1.0  0.62115  0.04265  0.95859  1.0000
  C   C2385     1.0  0.64520  0.45138  0.73484  1.0000
  C   C2386     1.0  0.57297  0.04318  0.96857  1.0000
  C   C2387     1.0  0.37047  0.99567  0.96220  1.0000
  H   H1920     1.0  0.63979  0.46114  0.88546  1.0000
  C   C2388     1.0  0.63177  0.45791  0.77204  1.0000
  H   H1921     1.0  0.62133  0.02643  0.73194  1.0000
  C   C2389     1.0  0.33676  0.02360  0.79408  1.0000
  H   H1922     1.0  0.36941  0.03345  0.95968  1.0000
  C   C2390     1.0  0.58134  0.04411  0.95499  1.0000
  H   H1923     1.0  0.51252  0.12958  0.72911  1.0000
  H   H1924     1.0  0.33238  0.12813  0.85365  1.0000
  H   H1925     1.0  0.40012  0.00815  0.90005  1.0000
  C   C2391     1.0  0.58888  0.05146  0.73225  1.0000
  C   C2392     1.0  0.64188  0.02412  0.79995  1.0000
  H   H1926     1.0  0.64844  0.01983  0.92039  1.0000
  C   C2393     1.0  0.61608  0.46822  0.78201  1.0000
  H   H1927     1.0  0.64622  0.05512  0.81636  1.0000
  C   C2394     1.0  0.47621  0.46757  0.83467  1.0000
  H   H1928     1.0  0.61430  0.45529  0.95982  1.0000
  H   H1929     1.0  0.58875  0.11338  0.72505  1.0000
  C   C2395     1.0  0.60662  0.46437  0.96812  1.0000
  C   C2396     1.0  0.52775  0.47620  0.77945  1.0000
  C   C2397     1.0  0.57555  0.07034  0.72497  1.0000
  H   H1930     1.0  0.51346  0.47418  0.74985  1.0000
  H   H1931     1.0  0.32988  0.01048  0.80203  1.0000
  H   H1932     1.0  0.41917  0.98328  0.88361  1.0000
  C   C2398     1.0  0.61070  0.04048  0.72623  1.0000
  C   C2399     1.0  0.57246  0.12568  0.72426  1.0000
  H   H1933     1.0  0.33399  0.18356  0.77470  1.0000
  C   C2400     1.0  0.64831  0.04273  0.78999  1.0000
  C   C2401     1.0  0.33027  0.14623  0.83379  1.0000
  C   C2402     1.0  0.55043  0.11789  0.72747  1.0000
  H   H1934     1.0  0.35823  0.99993  0.75184  1.0000
  H   H1935     1.0  0.31942  0.09937  0.80837  1.0000
  C   C2403     1.0  0.32082  0.00524  0.75977  1.0000
  C   C2404     1.0  0.33783  0.22779  0.79684  1.0000
  C   C2405     1.0  0.33953  0.09125  0.72497  1.0000
  H   H1936     1.0  0.64426  0.98037  0.89042  1.0000
  C   C2406     1.0  0.52982  0.13465  0.72652  1.0000
  C   C2407     1.0  0.44832  0.21906  0.72789  1.0000
  C   C2408     1.0  0.52269  0.07998  0.72884  1.0000
  C   C2409     1.0  0.65167  0.47258  0.72720  1.0000
  Fe  Fe161     1.0  0.61506  0.54655  0.04407  1.0000
  S   S321      1.0  0.59734  0.51546  0.04530  1.0000
  C   C2410     1.0  0.32801  0.93903  0.16517  1.0000
  Fe  Fe162     1.0  0.58243  0.56216  0.06872  1.0000
  S   S322      1.0  0.56200  0.53239  0.07152  1.0000
  S   S323      1.0  0.56856  0.58531  0.08446  1.0000
  Fe  Fe163     1.0  0.59769  0.51034  0.06712  1.0000
  Fe  Fe164     1.0  0.34737  0.51827  0.05658  1.0000
  Fe  Fe165     1.0  0.56299  0.54013  0.04962  1.0000
  S   S324      1.0  0.53199  0.54596  0.03849  1.0000
  S   S325      1.0  0.61815  0.53955  0.06568  1.0000
  S   S326      1.0  0.58084  0.57187  0.04701  1.0000
  Fe  Fe166     1.0  0.36518  0.56549  0.04984  1.0000
  S   S327      1.0  0.37312  0.53295  0.06458  1.0000
  H   H1937     1.0  0.52247  0.79720  0.16533  1.0000
  Fe  Fe167     1.0  0.36675  0.53639  0.02802  1.0000
  S   S328      1.0  0.37549  0.50200  0.04157  1.0000
  C   C2411     1.0  0.51433  0.75686  0.18635  1.0000
  H   H1938     1.0  0.44833  0.59660  0.05949  1.0000
  Fe  Fe168     1.0  0.40070  0.52033  0.04807  1.0000
  S   S329      1.0  0.43642  0.50208  0.05368  1.0000
  S   S330      1.0  0.39403  0.55372  0.03348  1.0000
  Fe  Fe169     1.0  0.40506  0.88107  0.12523  1.0000
  S   S331      1.0  0.40424  0.90636  0.13878  1.0000
  S   S332      1.0  0.42204  0.89014  0.10391  1.0000
  Fe  Fe170     1.0  0.38530  0.84385  0.14737  1.0000
  S   S333      1.0  0.38270  0.86647  0.16281  1.0000
  S   S334      1.0  0.37535  0.80723  0.15471  1.0000
  Fe  Fe171     1.0  0.36843  0.89663  0.14805  1.0000
  H   H1939     1.0  0.43763  0.82458  0.16334  1.0000
  Fe  Fe172     1.0  0.41862  0.87442  0.15238  1.0000
  S   S335      1.0  0.44990  0.86788  0.16309  1.0000
  S   S336      1.0  0.36829  0.87346  0.13332  1.0000
  S   S337      1.0  0.42206  0.84967  0.13812  1.0000
  Fe  Fe173     1.0  0.60618  0.90876  0.14023  1.0000
  S   S338      1.0  0.59323  0.93386  0.15465  1.0000
  C   C2412     1.0  0.34257  0.93491  0.17470  1.0000
  Fe  Fe174     1.0  0.59755  0.86524  0.16132  1.0000
  S   S339      1.0  0.58379  0.88783  0.17729  1.0000
  S   S340      1.0  0.59641  0.82553  0.16752  1.0000
  Fe  Fe175     1.0  0.56402  0.91215  0.16211  1.0000
  S   S341      1.0  0.52592  0.93090  0.16396  1.0000
  Fe  Fe176     1.0  0.61433  0.90775  0.16840  1.0000
  S   S342      1.0  0.57585  0.88859  0.14686  1.0000
  Fe  Fe177     1.0  0.60703  0.66650  0.12264  1.0000
  S   S343      1.0  0.58217  0.64982  0.13950  1.0000
  S   S344      1.0  0.62449  0.64938  0.10471  1.0000
  Fe  Fe178     1.0  0.60282  0.71089  0.13544  1.0000
  S   S345      1.0  0.57775  0.69704  0.15322  1.0000
  S   S346      1.0  0.61330  0.74751  0.13043  1.0000
  Fe  Fe179     1.0  0.60225  0.66212  0.15232  1.0000
  S   S347      1.0  0.61218  0.63696  0.17063  1.0000
  Fe  Fe180     1.0  0.56041  0.68598  0.13868  1.0000
  S   S348      1.0  0.52227  0.69803  0.13635  1.0000
  S   S349      1.0  0.62857  0.67673  0.13544  1.0000
  S   S350      1.0  0.58402  0.70193  0.12094  1.0000
  Fe  Fe181     1.0  0.38763  0.63911  0.12104  1.0000
  S   S351      1.0  0.38631  0.62142  0.14223  1.0000
  S   S352      1.0  0.39432  0.61161  0.10763  1.0000
  Fe  Fe182     1.0  0.38350  0.68830  0.12865  1.0000
  S   S353      1.0  0.38106  0.67361  0.15034  1.0000
  H   H1940     1.0  0.36704  0.55062  0.11046  1.0000
  Fe  Fe183     1.0  0.41076  0.64556  0.14359  1.0000
  S   S354      1.0  0.44414  0.63172  0.15243  1.0000
  Fe  Fe184     1.0  0.35682  0.65076  0.14677  1.0000
  S   S355      1.0  0.41441  0.66109  0.12212  1.0000
  C   C2413     1.0  0.53855  0.75969  0.20636  1.0000
  C   C2414     1.0  0.40389  0.65903  0.07370  1.0000
  C   C2415     1.0  0.50157  0.67855  0.14033  1.0000
  C   C2416     1.0  0.50633  0.65582  0.14754  1.0000
  C   C2417     1.0  0.48869  0.64140  0.15111  1.0000
  C   C2418     1.0  0.46636  0.64960  0.14740  1.0000
  C   C2419     1.0  0.46192  0.67209  0.13992  1.0000
  C   C2420     1.0  0.47950  0.68646  0.13639  1.0000
  H   H1941     1.0  0.52336  0.64964  0.15058  1.0000
  H   H1942     1.0  0.49221  0.62397  0.15687  1.0000
  H   H1943     1.0  0.44479  0.67860  0.13704  1.0000
  H   H1944     1.0  0.47598  0.70387  0.13067  1.0000
  C   C2421     1.0  0.60407  0.69585  0.19689  1.0000
  H   H1945     1.0  0.47741  0.96919  0.13496  1.0000
  C   C2422     1.0  0.55660  0.59846  0.15823  1.0000
  C   C2423     1.0  0.59983  0.80452  0.15689  1.0000
  C   C2424     1.0  0.59404  0.78195  0.16228  1.0000
  C   C2425     1.0  0.59742  0.76445  0.15429  1.0000
  C   C2426     1.0  0.60710  0.76923  0.14085  1.0000
  C   C2427     1.0  0.61269  0.79183  0.13547  1.0000
  C   C2428     1.0  0.60893  0.80943  0.14340  1.0000
  H   H1946     1.0  0.58694  0.77802  0.17269  1.0000
  H   H1947     1.0  0.59302  0.74716  0.15857  1.0000
  H   H1948     1.0  0.62016  0.79574  0.12509  1.0000
  H   H1949     1.0  0.61352  0.82667  0.13912  1.0000
  H   H1950     1.0  0.35829  0.92167  0.17406  1.0000
  C   C2429     1.0  0.47111  0.88603  0.16212  1.0000
  C   C2430     1.0  0.46625  0.91062  0.15879  1.0000
  C   C2431     1.0  0.48304  0.92435  0.15952  1.0000
  C   C2432     1.0  0.50498  0.91352  0.16315  1.0000
  C   C2433     1.0  0.51013  0.88893  0.16589  1.0000
  C   C2434     1.0  0.49313  0.87530  0.16558  1.0000
  H   H1951     1.0  0.44933  0.91900  0.15611  1.0000
  H   H1952     1.0  0.47907  0.94335  0.15731  1.0000
  H   H1953     1.0  0.52701  0.88041  0.16862  1.0000
  H   H1954     1.0  0.49701  0.85630  0.16818  1.0000
  C   C2435     1.0  0.37737  0.78557  0.14469  1.0000
  C   C2436     1.0  0.37179  0.76322  0.15076  1.0000
  C   C2437     1.0  0.37399  0.74521  0.14327  1.0000
  C   C2438     1.0  0.38168  0.74940  0.12958  1.0000
  C   C2439     1.0  0.38684  0.77191  0.12346  1.0000
  C   C2440     1.0  0.38477  0.78988  0.13097  1.0000
  H   H1955     1.0  0.36600  0.75971  0.16134  1.0000
  H   H1956     1.0  0.36984  0.72807  0.14810  1.0000
  H   H1957     1.0  0.38895  0.80701  0.12617  1.0000
  C   C2441     1.0  0.36524  0.60370  0.07146  1.0000
  C   C2442     1.0  0.35685  0.62414  0.07722  1.0000
  C   C2443     1.0  0.36457  0.62661  0.08874  1.0000
  C   C2444     1.0  0.38106  0.60879  0.09438  1.0000
  C   C2445     1.0  0.38868  0.58818  0.08886  1.0000
  C   C2446     1.0  0.38089  0.58562  0.07750  1.0000
  H   H1958     1.0  0.33740  0.57544  0.14733  1.0000
  C   C2447     1.0  0.42821  0.77496  0.18535  1.0000
  H   H1959     1.0  0.40112  0.57424  0.09326  1.0000
  H   H1960     1.0  0.38759  0.56989  0.07321  1.0000
  C   C2448     1.0  0.39947  0.93749  0.07335  1.0000
  C   C2449     1.0  0.58565  0.60137  0.09026  1.0000
  C   C2450     1.0  0.60577  0.60929  0.08234  1.0000
  C   C2451     1.0  0.61762  0.62389  0.08690  1.0000
  C   C2452     1.0  0.60965  0.63044  0.09943  1.0000
  C   C2453     1.0  0.58998  0.62192  0.10747  1.0000
  C   C2454     1.0  0.57786  0.60773  0.10283  1.0000
  H   H1961     1.0  0.61171  0.60477  0.07255  1.0000
  H   H1962     1.0  0.38517  0.95696  0.98946  1.0000
  H   H1963     1.0  0.58382  0.62655  0.11718  1.0000
  H   H1964     1.0  0.56225  0.60182  0.10900  1.0000
  C   C2455     1.0  0.50525  0.53407  0.04338  1.0000
  C   C2456     1.0  0.48641  0.54392  0.03648  1.0000
  C   C2457     1.0  0.46522  0.53448  0.03957  1.0000
  C   C2458     1.0  0.46265  0.51491  0.04959  1.0000
  C   C2459     1.0  0.48151  0.50505  0.05650  1.0000
  C   C2460     1.0  0.50262  0.51468  0.05350  1.0000
  H   H1965     1.0  0.48825  0.55892  0.02864  1.0000
  H   H1966     1.0  0.45093  0.54223  0.03415  1.0000
  H   H1967     1.0  0.62449  0.94849  0.09200  1.0000
  H   H1968     1.0  0.56488  0.67724  0.18294  1.0000
  H   H1969     1.0  0.54346  0.55008  0.99608  1.0000
  H   H1970     1.0  0.41226  0.55567  0.13673  1.0000
  H   H1971     1.0  0.40001  0.96440  0.13439  1.0000
  H   H1972     1.0  0.40530  0.80674  0.17845  1.0000
  H   H1973     1.0  0.53968  0.58774  0.14454  1.0000
  C   C2461     1.0  0.62935  0.75480  0.21261  1.0000
  H   H1974     1.0  0.64745  0.70129  0.08126  1.0000
  C   C2462     1.0  0.39106  0.96303  0.19990  1.0000
  C   C2463     1.0  0.36878  0.55419  0.11990  1.0000
  C   C2464     1.0  0.59764  0.56111  0.01016  1.0000
  H   H1975     1.0  0.52595  0.70950  0.18322  1.0000
  C   C2465     1.0  0.34894  0.56248  0.12880  1.0000
  C   C2466     1.0  0.63047  0.96250  0.18487  1.0000
  C   C2467     1.0  0.40362  0.90960  0.09374  1.0000
  C   C2468     1.0  0.37917  0.91408  0.09785  1.0000
  C   C2469     1.0  0.36485  0.92984  0.08960  1.0000
  H   H1976     1.0  0.37124  0.90531  0.10733  1.0000
  H   H1977     1.0  0.34591  0.93313  0.09278  1.0000
  C   C2470     1.0  0.61353  0.95995  0.09854  1.0000
  C   C2471     1.0  0.60743  0.95105  0.11205  1.0000
  C   C2472     1.0  0.59311  0.96596  0.12038  1.0000
  H   H1978     1.0  0.57023  0.74860  0.19304  1.0000
  H   H1979     1.0  0.58790  0.95939  0.13069  1.0000
  H   H1980     1.0  0.57839  0.60706  0.17025  1.0000
  S   S356      1.0  0.62934  0.88343  0.15337  1.0000
  H   H1981     1.0  0.57574  0.56404  0.13457  1.0000
  H   H1982     1.0  0.47844  0.80338  0.16124  1.0000
  H   H1983     1.0  0.41398  0.76711  0.19194  1.0000
  H   H1984     1.0  0.39277  0.77536  0.11289  1.0000
  C   C2473     1.0  0.54085  0.67249  0.09094  1.0000
  H   H1985     1.0  0.53902  0.68463  0.20417  1.0000
  H   H1986     1.0  0.32580  0.97822  0.13044  1.0000
  H   H1987     1.0  0.48273  0.76831  0.19983  1.0000
  C   C2474     1.0  0.64429  0.73388  0.17228  1.0000
  C   C2475     1.0  0.44014  0.65484  0.08809  1.0000
  C   C2476     1.0  0.51390  0.76512  0.20821  1.0000
  C   C2477     1.0  0.59487  0.68799  0.18750  1.0000
  C   C2478     1.0  0.55074  0.73622  0.06434  1.0000
  H   H1988     1.0  0.35373  0.51823  0.98467  1.0000
  C   C2479     1.0  0.32629  0.57507  0.17501  1.0000
  H   H1989     1.0  0.40735  0.94651  0.06391  1.0000
  H   H1990     1.0  0.63587  0.57383  0.11083  1.0000
  C   C2480     1.0  0.39905  0.95231  0.15518  1.0000
  S   S357      1.0  0.33527  0.92390  0.15157  1.0000
  C   C2481     1.0  0.59854  0.54059  0.98819  1.0000
  H   H1991     1.0  0.42106  0.94801  0.20955  1.0000
  C   C2482     1.0  0.40449  0.67695  0.08053  1.0000
  H   H1992     1.0  0.32434  0.88837  0.18399  1.0000
  H   H1993     1.0  0.63635  0.48173  0.10611  1.0000
  H   H1994     1.0  0.61911  0.54101  0.16863  1.0000
  C   C2483     1.0  0.49972  0.96021  0.06526  1.0000
  C   C2484     1.0  0.42112  0.63878  0.07426  1.0000
  H   H1995     1.0  0.50715  0.71131  0.08623  1.0000
  C   C2485     1.0  0.60031  0.94684  0.05992  1.0000
  C   C2486     1.0  0.57095  0.93449  0.07862  1.0000
  H   H1996     1.0  0.64349  0.67399  0.06692  1.0000
  C   C2487     1.0  0.57783  0.59725  0.16263  1.0000
  C   C2488     1.0  0.43970  0.56198  0.06666  1.0000
  C   C2489     1.0  0.32061  0.56381  0.08141  1.0000
  H   H1997     1.0  0.39072  0.69229  0.08042  1.0000
  H   H1998     1.0  0.56894  0.73226  0.05955  1.0000
  H   H1999     1.0  0.40223  0.94244  0.17573  1.0000
  C   C2490     1.0  0.55497  0.95492  0.07503  1.0000
  C   C2491     1.0  0.62526  0.73951  0.20499  1.0000
  H   H2000     1.0  0.61958  0.56671  0.97725  1.0000
  H   H2001     1.0  0.34121  0.49019  0.15344  1.0000
  H   H2002     1.0  0.43478  0.56058  0.05746  1.0000
  H   H2003     1.0  0.35850  0.64259  0.09292  1.0000
  H   H2004     1.0  0.57206  0.71616  0.09187  1.0000
  H   H2005     1.0  0.44677  0.92972  0.10189  1.0000
  H   H2006     1.0  0.52656  0.59110  0.04455  1.0000
  C   C2492     1.0  0.64062  0.65153  0.20744  1.0000
  C   C2493     1.0  0.62998  0.52657  0.16418  1.0000
  H   H2007     1.0  0.61817  0.77186  0.21288  1.0000
  H   H2008     1.0  0.41973  0.62499  0.06918  1.0000
  H   H2009     1.0  0.38967  0.66046  0.06825  1.0000
  H   H2010     1.0  0.32092  0.56299  0.07114  1.0000
  H   H2011     1.0  0.40675  0.54613  0.11568  1.0000
  C   C2494     1.0  0.37500  0.56511  0.14359  1.0000
  H   H2012     1.0  0.61079  0.74495  0.19946  1.0000
  H   H2013     1.0  0.64075  0.97059  0.00031  1.0000
  H   H2014     1.0  0.57727  0.53481  0.02126  1.0000
  C   C2495     1.0  0.55896  0.67312  0.06271  1.0000
  H   H2015     1.0  0.44106  0.95555  0.08049  1.0000
  C   C2496     1.0  0.51615  0.72431  0.07928  1.0000
  C   C2497     1.0  0.60993  0.71093  0.08717  1.0000
  H   H2016     1.0  0.50457  0.97729  0.06086  1.0000
  C   C2498     1.0  0.33675  0.94796  0.18511  1.0000
  H   H2017     1.0  0.54290  0.65351  0.12369  1.0000
  C   C2499     1.0  0.56187  0.64841  0.06525  1.0000
  C   C2500     1.0  0.56713  0.63566  0.05485  1.0000
  C   C2501     1.0  0.56958  0.64743  0.04178  1.0000
  C   C2502     1.0  0.56619  0.67208  0.03913  1.0000
  C   C2503     1.0  0.56094  0.68493  0.04955  1.0000
  H   H2018     1.0  0.51695  0.50690  0.05889  1.0000
  C   C2504     1.0  0.56602  0.69588  0.21149  1.0000
  C   C2505     1.0  0.50403  0.74738  0.07686  1.0000
  S   S358      1.0  0.61767  0.92132  0.11830  1.0000
  H   H2019     1.0  0.56803  0.68119  0.02898  1.0000
  H   H2020     1.0  0.38504  0.94219  0.15607  1.0000
  C   C2506     1.0  0.58018  0.48653  0.01850  1.0000
  H   H2021     1.0  0.44369  0.94721  0.12188  1.0000
  C   C2507     1.0  0.38213  0.97352  0.98278  1.0000
  C   C2508     1.0  0.64748  0.57354  0.13625  1.0000
  C   C2509     1.0  0.50762  0.65262  0.10186  1.0000
  C   C2510     1.0  0.36073  0.96323  0.12217  1.0000
  C   C2511     1.0  0.58752  0.70734  0.08615  1.0000
  C   C2512     1.0  0.41155  0.96394  0.20452  1.0000
  H   H2022     1.0  0.64861  0.49079  0.06761  1.0000
  C   C2513     1.0  0.63998  0.71762  0.20431  1.0000
  H   H2023     1.0  0.56067  0.63883  0.07529  1.0000
  H   H2024     1.0  0.56952  0.61657  0.05703  1.0000
  H   H2025     1.0  0.57406  0.63738  0.03374  1.0000
  C   C2514     1.0  0.50787  0.54322  0.00136  1.0000
  H   H2026     1.0  0.55898  0.70393  0.04729  1.0000
  H   H2027     1.0  0.38751  0.97713  0.09026  1.0000
  C   C2515     1.0  0.63487  0.52787  0.15038  1.0000
  H   H2028     1.0  0.42303  0.68878  0.09304  1.0000
  C   C2516     1.0  0.54241  0.51310  0.00398  1.0000
  C   C2517     1.0  0.51581  0.64876  0.11384  1.0000
  P   P81       1.0  0.49920  0.75545  0.17319  1.0000
  C   C2518     1.0  0.51726  0.76689  0.15801  1.0000
  C   C2519     1.0  0.52696  0.78732  0.15722  1.0000
  C   C2520     1.0  0.54326  0.79469  0.14613  1.0000
  C   C2521     1.0  0.55012  0.78165  0.13582  1.0000
  C   C2522     1.0  0.54054  0.76135  0.13655  1.0000
  C   C2523     1.0  0.52398  0.75413  0.14752  1.0000
  C   C2524     1.0  0.49626  0.72531  0.17334  1.0000
  C   C2525     1.0  0.51150  0.70638  0.17923  1.0000
  C   C2526     1.0  0.50819  0.68315  0.17994  1.0000
  C   C2527     1.0  0.48960  0.67873  0.17480  1.0000
  C   C2528     1.0  0.47474  0.69745  0.16860  1.0000
  C   C2529     1.0  0.47825  0.72062  0.16770  1.0000
  H   H2029     1.0  0.54919  0.74581  0.17552  1.0000
  H   H2030     1.0  0.56605  0.92157  0.08722  1.0000
  H   H2031     1.0  0.55125  0.81005  0.14574  1.0000
  H   H2032     1.0  0.56345  0.78683  0.12747  1.0000
  H   H2033     1.0  0.54655  0.75072  0.12882  1.0000
  H   H2034     1.0  0.51710  0.73816  0.14795  1.0000
  H   H2035     1.0  0.45478  0.74518  0.18995  1.0000
  H   H2036     1.0  0.52008  0.66854  0.18439  1.0000
  H   H2037     1.0  0.48697  0.66077  0.17532  1.0000
  H   H2038     1.0  0.46079  0.69392  0.16424  1.0000
  H   H2039     1.0  0.46687  0.73485  0.16262  1.0000
  C   C2530     1.0  0.62009  0.54625  0.12481  1.0000
  C   C2531     1.0  0.62705  0.55879  0.11215  1.0000
  C   C2532     1.0  0.62201  0.55227  0.10102  1.0000
  C   C2533     1.0  0.60965  0.53357  0.10247  1.0000
  C   C2534     1.0  0.60266  0.52106  0.11502  1.0000
  C   C2535     1.0  0.60797  0.52725  0.12614  1.0000
  H   H2040     1.0  0.59298  0.50665  0.11608  1.0000
  H   H2041     1.0  0.62709  0.56210  0.09126  1.0000
  H   H2042     1.0  0.60515  0.52889  0.09392  1.0000
  H   H2043     1.0  0.63494  0.51388  0.02210  1.0000
  H   H2044     1.0  0.60215  0.51751  0.13583  1.0000
  H   H2045     1.0  0.39425  0.95002  0.11114  1.0000
  P   P82       1.0  0.57407  0.50456  0.00295  1.0000
  C   C2536     1.0  0.53957  0.71847  0.07293  1.0000
  C   C2537     1.0  0.39151  0.55154  0.12283  1.0000
  C   C2538     1.0  0.61005  0.55989  0.98681  1.0000
  H   H2046     1.0  0.48599  0.75168  0.08181  1.0000
  C   C2539     1.0  0.44701  0.58254  0.06794  1.0000
  H   H2047     1.0  0.63273  0.59769  0.18837  1.0000
  C   C2540     1.0  0.64190  0.62350  0.17119  1.0000
  C   C2541     1.0  0.33211  0.59743  0.16906  1.0000
  C   C2542     1.0  0.62783  0.68364  0.07209  1.0000
  C   C2543     1.0  0.63946  0.50655  0.17241  1.0000
  C   C2544     1.0  0.52744  0.49622  0.00915  1.0000
  H   H2048     1.0  0.38452  0.94648  0.20148  1.0000
  H   H2049     1.0  0.59633  0.70488  0.21658  1.0000
  P   P83       1.0  0.52582  0.96040  0.08473  1.0000
  H   H2050     1.0  0.36828  0.48201  0.07562  1.0000
  C   C2545     1.0  0.52568  0.94793  0.10198  1.0000
  C   C2546     1.0  0.54585  0.94609  0.10767  1.0000
  C   C2547     1.0  0.54652  0.93435  0.12062  1.0000
  C   C2548     1.0  0.52684  0.92514  0.12814  1.0000
  C   C2549     1.0  0.50615  0.92828  0.12288  1.0000
  C   C2550     1.0  0.50548  0.93989  0.10988  1.0000
  H   H2051     1.0  0.48942  0.94220  0.10590  1.0000
  H   H2052     1.0  0.63262  0.63067  0.08055  1.0000
  C   C2551     1.0  0.60543  0.68003  0.07105  1.0000
  C   C2552     1.0  0.53242  0.53664  0.99997  1.0000
  C   C2553     1.0  0.50749  0.94778  0.07695  1.0000
  C   C2554     1.0  0.50200  0.92504  0.08196  1.0000
  C   C2555     1.0  0.48761  0.91569  0.07588  1.0000
  C   C2556     1.0  0.47927  0.92862  0.06452  1.0000
  C   C2557     1.0  0.48542  0.95083  0.05918  1.0000
  H   H2053     1.0  0.47973  0.48993  0.06426  1.0000
  H   H2054     1.0  0.50581  0.78270  0.06627  1.0000
  C   C2558     1.0  0.51582  0.60516  0.04942  1.0000
  P   P84       1.0  0.55584  0.68892  0.07622  1.0000
  H   H2055     1.0  0.59755  0.56890  0.01868  1.0000
  H   H2056     1.0  0.59875  0.53328  0.97948  1.0000
  H   H2057     1.0  0.56130  0.95321  0.10204  1.0000
  H   H2058     1.0  0.56243  0.93208  0.12483  1.0000
  H   H2059     1.0  0.52773  0.91566  0.13807  1.0000
  H   H2060     1.0  0.49077  0.92152  0.12889  1.0000
  H   H2061     1.0  0.34461  0.63820  0.07267  1.0000
  C   C2559     1.0  0.32062  0.56611  0.10787  1.0000
  H   H2062     1.0  0.61174  0.72243  0.09368  1.0000
  C   C2560     1.0  0.40855  0.95269  0.16630  1.0000
  H   H2063     1.0  0.50888  0.91441  0.09048  1.0000
  H   H2064     1.0  0.48287  0.89841  0.07998  1.0000
  H   H2065     1.0  0.46805  0.92145  0.05983  1.0000
  H   H2066     1.0  0.50022  0.56151  0.99861  1.0000
  S   S359      1.0  0.64595  0.55650  0.02817  1.0000
  C   C2561     1.0  0.43429  0.76643  0.14810  1.0000
  C   C2562     1.0  0.43086  0.74582  0.14457  1.0000
  C   C2563     1.0  0.43904  0.74156  0.13167  1.0000
  C   C2564     1.0  0.45132  0.75753  0.12241  1.0000
  C   C2565     1.0  0.45586  0.77774  0.12605  1.0000
  C   C2566     1.0  0.44666  0.78242  0.13889  1.0000
  P   P85       1.0  0.47114  0.79838  0.11373  1.0000
  C   C2567     1.0  0.47695  0.82243  0.12036  1.0000
  C   C2568     1.0  0.49985  0.78446  0.10649  1.0000
  C   C2569     1.0  0.50866  0.76066  0.11084  1.0000
  C   C2570     1.0  0.53133  0.75065  0.10536  1.0000
  C   C2571     1.0  0.54559  0.76445  0.09581  1.0000
  C   C2572     1.0  0.53704  0.78816  0.09154  1.0000
  C   C2573     1.0  0.51426  0.79813  0.09684  1.0000
  C   C2574     1.0  0.47127  0.84596  0.11420  1.0000
  C   C2575     1.0  0.47581  0.86442  0.11941  1.0000
  C   C2576     1.0  0.48647  0.85956  0.13065  1.0000
  C   C2577     1.0  0.49296  0.83622  0.13655  1.0000
  C   C2578     1.0  0.48846  0.81768  0.13135  1.0000
  C   C2579     1.0  0.45186  0.80973  0.10170  1.0000
  C   C2580     1.0  0.45844  0.80530  0.08867  1.0000
  C   C2581     1.0  0.44316  0.81443  0.07951  1.0000
  C   C2582     1.0  0.42124  0.82797  0.08333  1.0000
  C   C2583     1.0  0.41449  0.83217  0.09633  1.0000
  C   C2584     1.0  0.42962  0.82288  0.10551  1.0000
  H   H2067     1.0  0.42646  0.77045  0.15783  1.0000
  H   H2068     1.0  0.42081  0.73370  0.15163  1.0000
  H   H2069     1.0  0.43509  0.72625  0.12875  1.0000
  H   H2070     1.0  0.45703  0.75420  0.11236  1.0000
  H   H2071     1.0  0.44829  0.79864  0.14172  1.0000
  H   H2072     1.0  0.49856  0.74979  0.11868  1.0000
  H   H2073     1.0  0.53798  0.73232  0.10890  1.0000
  H   H2074     1.0  0.56342  0.75696  0.09187  1.0000
  H   H2075     1.0  0.54823  0.79891  0.08426  1.0000
  H   H2076     1.0  0.50798  0.81665  0.09361  1.0000
  H   H2077     1.0  0.46292  0.85029  0.10552  1.0000
  H   H2078     1.0  0.47048  0.88251  0.11490  1.0000
  H   H2079     1.0  0.48949  0.87383  0.13491  1.0000
  H   H2080     1.0  0.50118  0.83266  0.14527  1.0000
  H   H2081     1.0  0.49367  0.79965  0.13599  1.0000
  H   H2082     1.0  0.47523  0.79479  0.08558  1.0000
  H   H2083     1.0  0.44823  0.81103  0.06946  1.0000
  H   H2084     1.0  0.40944  0.83522  0.07625  1.0000
  H   H2085     1.0  0.39757  0.84279  0.09932  1.0000
  H   H2086     1.0  0.42409  0.82624  0.11555  1.0000
  P   P86       1.0  0.46295  0.61120  0.08138  1.0000
  C   C2585     1.0  0.45264  0.58482  0.07999  1.0000
  C   C2586     1.0  0.48526  0.61796  0.06714  1.0000
  C   C2587     1.0  0.49960  0.59979  0.06091  1.0000
  C   C2588     1.0  0.55113  0.75265  0.19458  1.0000
  H   H2087     1.0  0.34812  0.94469  0.19243  1.0000
  C   C2589     1.0  0.50441  0.64672  0.05048  1.0000
  C   C2590     1.0  0.48810  0.64146  0.06198  1.0000
  C   C2591     1.0  0.45146  0.56584  0.09059  1.0000
  C   C2592     1.0  0.44477  0.54502  0.08914  1.0000
  C   C2593     1.0  0.43871  0.54317  0.07721  1.0000
  C   C2594     1.0  0.42330  0.79731  0.17781  1.0000
  C   C2595     1.0  0.57669  0.57282  0.14253  1.0000
  C   C2596     1.0  0.47555  0.60543  0.09632  1.0000
  C   C2597     1.0  0.46092  0.60828  0.10850  1.0000
  C   C2598     1.0  0.47047  0.60327  0.12014  1.0000
  C   C2599     1.0  0.49459  0.59487  0.11976  1.0000
  C   C2600     1.0  0.50921  0.59159  0.10772  1.0000
  C   C2601     1.0  0.49977  0.59687  0.09602  1.0000
  C   C2602     1.0  0.46978  0.77249  0.17533  1.0000
  C   C2603     1.0  0.59366  0.93068  0.07120  1.0000
  C   C2604     1.0  0.37425  0.97782  0.09911  1.0000
  H   H2088     1.0  0.50635  0.66487  0.04644  1.0000
  H   H2089     1.0  0.47754  0.65577  0.06668  1.0000
  H   H2090     1.0  0.45568  0.56693  0.10000  1.0000
  H   H2091     1.0  0.44408  0.53039  0.09728  1.0000
  H   H2092     1.0  0.43326  0.52719  0.07609  1.0000
  H   H2093     1.0  0.44209  0.61423  0.10903  1.0000
  H   H2094     1.0  0.45907  0.60582  0.12947  1.0000
  H   H2095     1.0  0.50191  0.59093  0.12881  1.0000
  H   H2096     1.0  0.52790  0.58492  0.10737  1.0000
  H   H2097     1.0  0.51146  0.59404  0.08684  1.0000
  S   S360      1.0  0.64141  0.91631  0.17931  1.0000
  H   H2098     1.0  0.63853  0.74654  0.17891  1.0000
  C   C2605     1.0  0.57151  0.68397  0.19013  1.0000
  H   H2099     1.0  0.60585  0.68425  0.17829  1.0000
  H   H2100     1.0  0.49154  0.64657  0.10150  1.0000
  C   C2606     1.0  0.58506  0.69193  0.07808  1.0000
  C   C2607     1.0  0.35231  0.56810  0.14060  1.0000
  C   C2608     1.0  0.32722  0.54333  0.09016  1.0000
  C   C2609     1.0  0.55706  0.68796  0.20210  1.0000
  C   C2610     1.0  0.43928  0.63632  0.08161  1.0000
  S   S361      1.0  0.38558  0.72692  0.11983  1.0000
  H   H2101     1.0  0.35023  0.60031  0.16737  1.0000
  H   H2102     1.0  0.50415  0.77083  0.21729  1.0000
  C   C2611     1.0  0.44156  0.80735  0.16921  1.0000
  C   C2612     1.0  0.64704  0.60449  0.18131  1.0000
  C   C2613     1.0  0.53910  0.75114  0.18464  1.0000
  H   H2103     1.0  0.34008  0.56079  0.17780  1.0000
  C   C2614     1.0  0.45135  0.76261  0.18415  1.0000
  S   S362      1.0  0.35697  0.66771  0.12542  1.0000
  C   C2615     1.0  0.44077  0.95867  0.11265  1.0000
  H   H2104     1.0  0.51359  0.66703  0.08118  1.0000
  C   C2616     1.0  0.37810  0.96267  0.11088  1.0000
  C   C2617     1.0  0.63008  0.69906  0.08015  1.0000
  C   C2618     1.0  0.58673  0.48843  0.98944  1.0000
  C   C2619     1.0  0.58950  0.69961  0.20897  1.0000
  H   H2105     1.0  0.54065  0.60907  0.16250  1.0000
  C   C2620     1.0  0.42269  0.67492  0.08766  1.0000
  S   S363      1.0  0.35636  0.60125  0.05663  1.0000
  P   P87       1.0  0.62528  0.55468  0.13950  1.0000
  H   H2106     1.0  0.56507  0.67417  0.10376  1.0000
  C   C2621     1.0  0.49312  0.52640  0.00674  1.0000
  S   S364      1.0  0.36303  0.53401  0.00703  1.0000
  H   H2107     1.0  0.54792  0.76120  0.21398  1.0000
  H   H2108     1.0  0.60614  0.91523  0.07427  1.0000
  C   C2622     1.0  0.58647  0.54156  0.01161  1.0000
  C   C2623     1.0  0.60977  0.57002  0.99782  1.0000
  H   H2109     1.0  0.62541  0.60402  0.12701  1.0000
  C   C2624     1.0  0.51520  0.76484  0.06815  1.0000
  C   C2625     1.0  0.51798  0.62858  0.04409  1.0000
  C   C2626     1.0  0.41368  0.92100  0.08139  1.0000
  H   H2110     1.0  0.54730  0.77285  0.05527  1.0000
  C   C2627     1.0  0.58417  0.96671  0.05598  1.0000
  C   C2628     1.0  0.59812  0.57124  0.14701  1.0000
  C   C2629     1.0  0.50178  0.76368  0.19826  1.0000
  C   C2630     1.0  0.37498  0.94179  0.07742  1.0000
  H   H2111     1.0  0.54689  0.49992  0.03016  1.0000
  C   C2631     1.0  0.46473  0.79513  0.16800  1.0000
  C   C2632     1.0  0.58740  0.53071  0.00073  1.0000
  H   H2112     1.0  0.49814  0.58145  0.06479  1.0000
  H   H2113     1.0  0.53023  0.63257  0.03503  1.0000
  C   C2633     1.0  0.56158  0.97076  0.06348  1.0000
  H   H2114     1.0  0.43252  0.91724  0.07812  1.0000
  C   C2634     1.0  0.64219  0.59724  0.13035  1.0000
  C   C2635     1.0  0.43951  0.96318  0.08927  1.0000
  C   C2636     1.0  0.55607  0.58639  0.14813  1.0000
  C   C2637     1.0  0.33680  0.52421  0.99037  1.0000
  C   C2638     1.0  0.52015  0.66426  0.09042  1.0000
  H   H2115     1.0  0.45415  0.65376  0.09359  1.0000
  C   C2639     1.0  0.59856  0.58397  0.15695  1.0000
  H   H2116     1.0  0.61498  0.58397  0.16022  1.0000
  C   C2640     1.0  0.53857  0.75927  0.06193  1.0000
  H   H2117     1.0  0.47898  0.96091  0.05035  1.0000
  S   S365      1.0  0.33753  0.55174  0.04278  1.0000
  C   C2641     1.0  0.39463  0.55702  0.13466  1.0000
  H   H2118     1.0  0.37740  0.56987  0.15264  1.0000
  H   H2119     1.0  0.60423  0.66765  0.06494  1.0000
  H   H2120     1.0  0.64500  0.61535  0.21738  1.0000
  P   P88       1.0  0.63500  0.69827  0.19411  1.0000
  C   C2642     1.0  0.53655  0.65654  0.11439  1.0000
  H   H2121     1.0  0.62230  0.65513  0.21205  1.0000
  C   C2643     1.0  0.44279  0.94870  0.10133  1.0000
  H   H2122     1.0  0.36361  0.95127  0.13124  1.0000
  C   C2644     1.0  0.33608  0.53244  0.00219  1.0000
  H   H2123     1.0  0.47408  0.53164  0.00820  1.0000
  H   H2124     1.0  0.61794  0.94394  0.05420  1.0000
  C   C2645     1.0  0.64414  0.70964  0.17677  1.0000
  H   H2125     1.0  0.33294  0.52853  0.10993  1.0000
  C   C2646     1.0  0.54900  0.66849  0.10303  1.0000
  H   H2126     1.0  0.61924  0.58454  0.99686  1.0000
  S   S366      1.0  0.35655  0.96184  0.06751  1.0000
  H   H2127     1.0  0.50599  0.63986  0.12271  1.0000
  C   C2647     1.0  0.50290  0.50291  0.01062  1.0000
  C   C2648     1.0  0.57242  0.47850  0.98355  1.0000
  C   C2649     1.0  0.40765  0.96484  0.14288  1.0000
  C   C2650     1.0  0.64964  0.50893  0.14498  1.0000
  H   H2128     1.0  0.33244  0.52659  0.08670  1.0000
  C   C2651     1.0  0.56346  0.48787  0.03017  1.0000
  C   C2652     1.0  0.32744  0.54449  0.10330  1.0000
  C   C2653     1.0  0.61113  0.48602  0.98454  1.0000
  H   H2129     1.0  0.62259  0.49380  0.98869  1.0000
  C   C2654     1.0  0.64702  0.94176  0.18443  1.0000
  H   H2130     1.0  0.33440  0.61282  0.12119  1.0000
  C   C2655     1.0  0.42620  0.96622  0.16521  1.0000
  C   C2656     1.0  0.65118  0.69414  0.16756  1.0000
  H   H2131     1.0  0.43351  0.96654  0.17387  1.0000
  H   H2132     1.0  0.61367  0.96360  0.18183  1.0000
  H   H2133     1.0  0.63569  0.50568  0.18304  1.0000
  H   H2134     1.0  0.49139  0.49003  0.01509  1.0000
  H   H2135     1.0  0.55358  0.48012  0.98700  1.0000
  H   H2136     1.0  0.65062  0.67548  0.17067  1.0000
  H   H2137     1.0  0.61650  0.97685  0.15656  1.0000
  H   H2138     1.0  0.64325  0.97421  0.02317  1.0000
  H   H2139     1.0  0.55486  0.69876  0.22082  1.0000
  C   C2657     1.0  0.64737  0.52111  0.01392  1.0000
  C   C2658     1.0  0.64799  0.74822  0.21977  1.0000
  H   H2140     1.0  0.64830  0.49424  0.00250  1.0000
  H   H2141     1.0  0.65084  0.76114  0.15540  1.0000
  H   H2142     1.0  0.65011  0.97591  0.11789  1.0000
  H   H2143     1.0  0.34465  0.48373  0.13059  1.0000
  C   C2659     1.0  0.65154  0.74233  0.15888  1.0000
  S   S367      1.0  0.32083  0.64491  0.15895  1.0000
  H   H2144     1.0  0.51832  0.97680  0.13107  1.0000
  C   C2660     1.0  0.65130  0.66895  0.19823  1.0000
  C   C2661     1.0  0.42575  0.97801  0.14161  1.0000
  C   C2662     1.0  0.65267  0.47907  0.10996  1.0000
  C   C2663     1.0  0.60540  0.51243  0.45334  1.0000
  H   H2145     1.0  0.54593  0.82597  0.45952  1.0000
  H   H2146     1.0  0.32540  0.91315  0.46283  1.0000
  C   C2664     1.0  0.61409  0.56773  0.44247  1.0000
  C   C2665     1.0  0.39385  0.50989  0.41541  1.0000
  C   C2666     1.0  0.58230  0.77377  0.45665  1.0000
  H   H2147     1.0  0.48556  0.70990  0.45943  1.0000
  C   C2667     1.0  0.47331  0.70561  0.46847  1.0000
  H   H2148     1.0  0.36101  0.56841  0.42727  1.0000
  C   C2668     1.0  0.35777  0.53380  0.42470  1.0000
  H   H2149     1.0  0.38804  0.96261  0.43225  1.0000
  C   C2669     1.0  0.58173  0.76434  0.47004  1.0000
  H   H2150     1.0  0.42491  0.52692  0.41080  1.0000
  C   C2670     1.0  0.37018  0.55216  0.42393  1.0000
  C   C2671     1.0  0.44031  0.47996  0.40955  1.0000
  C   C2672     1.0  0.32236  0.59996  0.46504  1.0000
  C   C2673     1.0  0.51840  0.75935  0.45919  1.0000
  H   H2151     1.0  0.60690  0.48570  0.44167  1.0000
  C   C2674     1.0  0.32192  0.92382  0.47052  1.0000
  C   C2675     1.0  0.55880  0.57339  0.47183  1.0000
  H   H2152     1.0  0.64976  0.56322  0.46517  1.0000
  C   C2676     1.0  0.37187  0.97356  0.43596  1.0000
  C   C2677     1.0  0.49427  0.78987  0.44610  1.0000
  H   H2153     1.0  0.34201  0.68442  0.46934  1.0000
  C   C2678     1.0  0.39438  0.54953  0.41889  1.0000
  C   C2679     1.0  0.37865  0.49307  0.37686  1.0000
  C   C2680     1.0  0.47869  0.48880  0.39782  1.0000
  C   C2681     1.0  0.40619  0.52851  0.41463  1.0000
  H   H2154     1.0  0.32666  0.67736  0.45042  1.0000
  H   H2155     1.0  0.45284  0.68929  0.45903  1.0000
  C   C2682     1.0  0.56925  0.79593  0.45291  1.0000
  C   C2683     1.0  0.32345  0.69006  0.46869  1.0000
  H   H2156     1.0  0.57011  0.80352  0.44253  1.0000
  H   H2157     1.0  0.53580  0.75068  0.46096  1.0000
  H   H2158     1.0  0.44630  0.50201  0.39031  1.0000
  C   C2684     1.0  0.57234  0.51537  0.47142  1.0000
  H   H2159     1.0  0.53226  0.78385  0.44252  1.0000
  H   H2160     1.0  0.45963  0.75815  0.47038  1.0000
  C   C2685     1.0  0.36952  0.51277  0.42048  1.0000
  C   C2686     1.0  0.39517  0.47945  0.36863  1.0000
  C   C2687     1.0  0.59706  0.49419  0.44988  1.0000
  H   H2161     1.0  0.35955  0.49872  0.42127  1.0000
  C   C2688     1.0  0.49798  0.75177  0.46711  1.0000
  C   C2689     1.0  0.55554  0.80857  0.46257  1.0000
  C   C2690     1.0  0.47388  0.78249  0.45394  1.0000
  C   C2691     1.0  0.45476  0.69410  0.46816  1.0000
  H   H2162     1.0  0.49283  0.80450  0.43796  1.0000
  H   H2163     1.0  0.45660  0.79143  0.45192  1.0000
  C   C2692     1.0  0.62209  0.56129  0.45467  1.0000
  H   H2164     1.0  0.62200  0.51739  0.44789  1.0000
  H   H2165     1.0  0.59323  0.76408  0.44920  1.0000
  C   C2693     1.0  0.40375  0.48191  0.39371  1.0000
  C   C2694     1.0  0.62768  0.57942  0.43147  1.0000
  C   C2695     1.0  0.51649  0.77827  0.44871  1.0000
  C   C2696     1.0  0.38287  0.49428  0.38936  1.0000
  H   H2166     1.0  0.59742  0.56356  0.44146  1.0000
  H   H2167     1.0  0.36971  0.50476  0.39559  1.0000
  H   H2168     1.0  0.40399  0.56379  0.41833  1.0000
  C   C2697     1.0  0.47569  0.76357  0.46441  1.0000
  C   C2698     1.0  0.56405  0.49707  0.46793  1.0000
  H   H2169     1.0  0.62160  0.58401  0.42204  1.0000
  C   C2699     1.0  0.64913  0.58512  0.43263  1.0000
  C   C2700     1.0  0.64344  0.56745  0.45582  1.0000
  P   P89       1.0  0.40891  0.48246  0.41008  1.0000
  H   H2170     1.0  0.36241  0.50247  0.37362  1.0000
  H   H2171     1.0  0.33925  0.58893  0.46272  1.0000
  H   H2172     1.0  0.33898  0.53581  0.42860  1.0000
  C   C2701     1.0  0.59272  0.52363  0.46392  1.0000
  C   C2702     1.0  0.45426  0.49138  0.39850  1.0000
  H   H2173     1.0  0.55414  0.56285  0.46570  1.0000
  H   H2174     1.0  0.35109  0.96331  0.42395  1.0000
  H   H2175     1.0  0.64951  0.51493  0.46760  1.0000
  H   H2176     1.0  0.51515  0.67923  0.47281  1.0000
  C   C2703     1.0  0.35113  0.97404  0.43122  1.0000
  C   C2704     1.0  0.57634  0.48658  0.45712  1.0000
  P   P90       1.0  0.60418  0.54640  0.46874  1.0000
  H   H2177     1.0  0.55406  0.65426  0.46932  1.0000
  H   H2178     1.0  0.33230  0.48987  0.40874  1.0000
  H   H2179     1.0  0.48949  0.49712  0.38914  1.0000
  C   C2705     1.0  0.32092  0.61886  0.47175  1.0000
  H   H2180     1.0  0.53185  0.90310  0.47123  1.0000
  C   C2706     1.0  0.55251  0.67132  0.47217  1.0000
  H   H2181     1.0  0.65115  0.76014  0.22565  1.0000
  H   H2182     1.0  0.57441  0.90383  0.46993  1.0000
  H   H2183     1.0  0.58961  0.66736  0.47292  1.0000
  H   H2184     1.0  0.50855  0.80391  0.47246  1.0000
  C   C2707     1.0  0.47847  0.76659  0.50992  1.0000
  Fe  Fe185     1.0  0.58545  0.69173  0.51543  1.0000
  S   S368      1.0  0.56044  0.69309  0.53460  1.0000
  S   S369      1.0  0.59488  0.72572  0.50267  1.0000
  Fe  Fe186     1.0  0.59156  0.63841  0.51870  1.0000
  S   S370      1.0  0.56668  0.63591  0.53822  1.0000
  C   C2708     1.0  0.45701  0.62936  0.56800  1.0000
  Fe  Fe187     1.0  0.54327  0.66679  0.52845  1.0000
  S   S371      1.0  0.50278  0.67319  0.53269  1.0000
  Fe  Fe188     1.0  0.58587  0.66221  0.54264  1.0000
  S   S372      1.0  0.59552  0.65738  0.56300  1.0000
  S   S373      1.0  0.56667  0.66756  0.50855  1.0000
  S   S374      1.0  0.61227  0.66262  0.52383  1.0000
  Fe  Fe189     1.0  0.60657  0.88193  0.53829  1.0000
  C   C2709     1.0  0.37709  0.85954  0.61972  1.0000
  C   C2710     1.0  0.54983  0.84494  0.48261  1.0000
  Fe  Fe190     1.0  0.58051  0.87910  0.51621  1.0000
  S   S375      1.0  0.61164  0.85537  0.50653  1.0000
  S   S376      1.0  0.54731  0.89099  0.50676  1.0000
  Fe  Fe191     1.0  0.61376  0.83636  0.52720  1.0000
  S   S377      1.0  0.61882  0.79692  0.53442  1.0000
  Fe  Fe192     1.0  0.63427  0.87926  0.51059  1.0000
  C   C2711     1.0  0.64474  0.89482  0.58883  1.0000
  S   S378      1.0  0.58144  0.85860  0.53665  1.0000
  S   S379      1.0  0.60312  0.90457  0.51845  1.0000
  Fe  Fe193     1.0  0.36377  0.85028  0.53805  1.0000
  S   S380      1.0  0.35149  0.85182  0.51889  1.0000
  H   H2185     1.0  0.63105  0.71681  0.57756  1.0000
  Fe  Fe194     1.0  0.41128  0.86600  0.52459  1.0000
  S   S381      1.0  0.40254  0.86959  0.50420  1.0000
  S   S382      1.0  0.44373  0.86896  0.53275  1.0000
  Fe  Fe195     1.0  0.36566  0.88614  0.51268  1.0000
  C   C2712     1.0  0.56804  0.77694  0.47970  1.0000
  Fe  Fe196     1.0  0.38880  0.83498  0.51192  1.0000
  S   S383      1.0  0.40126  0.80356  0.50112  1.0000
  S   S384      1.0  0.37572  0.88532  0.53249  1.0000
  S   S385      1.0  0.39979  0.83057  0.53166  1.0000
  Fe  Fe197     1.0  0.34311  0.63897  0.52219  1.0000
  C   C2713     1.0  0.47615  0.71131  0.48038  1.0000
  H   H2186     1.0  0.58550  0.94888  0.54693  1.0000
  Fe  Fe198     1.0  0.39271  0.64535  0.50695  1.0000
  C   C2714     1.0  0.61165  0.53088  0.49486  1.0000
  S   S386      1.0  0.43277  0.63481  0.50561  1.0000
  Fe  Fe199     1.0  0.35176  0.68572  0.50519  1.0000
  S   S387      1.0  0.33806  0.72435  0.50637  1.0000
  Fe  Fe200     1.0  0.35278  0.64256  0.49216  1.0000
  C   C2715     1.0  0.60270  0.97029  0.57985  1.0000
  S   S388      1.0  0.36769  0.66387  0.52234  1.0000
  S   S389      1.0  0.36953  0.61811  0.50842  1.0000
  H   H2187     1.0  0.32388  0.88584  0.60569  1.0000
  C   C2716     1.0  0.46704  0.64985  0.56372  1.0000
  H   H2188     1.0  0.34089  0.74423  0.54798  1.0000
  H   H2189     1.0  0.61202  0.91175  0.59892  1.0000
  C   C2717     1.0  0.38670  0.63579  0.59741  1.0000
  C   C2718     1.0  0.38378  0.78130  0.50301  1.0000
  C   C2719     1.0  0.36060  0.78355  0.50996  1.0000
  C   C2720     1.0  0.34698  0.76579  0.51103  1.0000
  C   C2721     1.0  0.35648  0.74539  0.50543  1.0000
  C   C2722     1.0  0.37986  0.74284  0.49876  1.0000
  C   C2723     1.0  0.39334  0.76087  0.49741  1.0000
  H   H2190     1.0  0.35304  0.79919  0.51428  1.0000
  H   H2191     1.0  0.35007  0.78653  0.57306  1.0000
  H   H2192     1.0  0.38733  0.72729  0.49433  1.0000
  H   H2193     1.0  0.41127  0.75896  0.49205  1.0000
  C   C2724     1.0  0.51863  0.88464  0.51408  1.0000
  C   C2725     1.0  0.51326  0.87477  0.52742  1.0000
  C   C2726     1.0  0.49012  0.87060  0.53296  1.0000
  C   C2727     1.0  0.47225  0.87550  0.52517  1.0000
  C   C2728     1.0  0.47759  0.88535  0.51181  1.0000
  C   C2729     1.0  0.50060  0.89010  0.50635  1.0000
  H   H2194     1.0  0.52682  0.87074  0.53354  1.0000
  H   H2195     1.0  0.48610  0.86329  0.54335  1.0000
  H   H2196     1.0  0.46395  0.88960  0.50574  1.0000
  H   H2197     1.0  0.50443  0.89816  0.49609  1.0000
  C   C2730     1.0  0.59779  0.97102  0.52852  1.0000
  H   H2198     1.0  0.63665  0.60278  0.55364  1.0000
  C   C2731     1.0  0.60244  0.74528  0.51134  1.0000
  C   C2732     1.0  0.60709  0.76766  0.50475  1.0000
  C   C2733     1.0  0.61230  0.78368  0.51167  1.0000
  C   C2734     1.0  0.61351  0.77714  0.52515  1.0000
  C   C2735     1.0  0.60991  0.75441  0.53159  1.0000
  C   C2736     1.0  0.60402  0.73868  0.52478  1.0000
  H   H2199     1.0  0.59473  0.54131  0.49791  1.0000
  H   H2200     1.0  0.61527  0.80109  0.50660  1.0000
  H   H2201     1.0  0.61110  0.74913  0.54198  1.0000
  H   H2202     1.0  0.60092  0.72135  0.52993  1.0000
  C   C2737     1.0  0.48382  0.66244  0.52484  1.0000
  C   C2738     1.0  0.45922  0.66856  0.52847  1.0000
  C   C2739     1.0  0.44340  0.66048  0.52261  1.0000
  C   C2740     1.0  0.45201  0.64582  0.51312  1.0000
  C   C2741     1.0  0.47664  0.63970  0.50944  1.0000
  C   C2742     1.0  0.49248  0.64805  0.51521  1.0000
  H   H2203     1.0  0.45233  0.67958  0.53589  1.0000
  H   H2204     1.0  0.42455  0.66555  0.52544  1.0000
  H   H2205     1.0  0.48348  0.62840  0.50209  1.0000
  H   H2206     1.0  0.51135  0.64315  0.51230  1.0000
  H   H2207     1.0  0.54726  0.73144  0.48341  1.0000
  C   C2743     1.0  0.45982  0.70587  0.49192  1.0000
  H   H2208     1.0  0.62879  0.92756  0.53341  1.0000
  C   C2744     1.0  0.41154  0.86973  0.62544  1.0000
  C   C2745     1.0  0.49576  0.73701  0.49597  1.0000
  C   C2746     1.0  0.62076  0.90451  0.59013  1.0000
  C   C2747     1.0  0.38241  0.63282  0.56102  1.0000
  H   H2209     1.0  0.33699  0.65878  0.58406  1.0000
  C   C2748     1.0  0.63114  0.65754  0.57645  1.0000
  C   C2749     1.0  0.62289  0.66429  0.56432  1.0000
  C   C2750     1.0  0.61873  0.89640  0.56857  1.0000
  H   H2210     1.0  0.62061  0.64827  0.58486  1.0000
  H   H2211     1.0  0.60649  0.77277  0.49431  1.0000
  H   H2212     1.0  0.34530  0.89949  0.48250  1.0000
  H   H2213     1.0  0.50002  0.83925  0.50589  1.0000
  C   C2751     1.0  0.60801  0.90562  0.58004  1.0000
  C   C2752     1.0  0.49756  0.81319  0.48002  1.0000
  H   H2214     1.0  0.58960  0.91369  0.58117  1.0000
  C   C2753     1.0  0.63216  0.83257  0.58822  1.0000
  H   H2215     1.0  0.41304  0.85078  0.60971  1.0000
  C   C2754     1.0  0.49089  0.75360  0.51981  1.0000
  C   C2755     1.0  0.35141  0.63412  0.61411  1.0000
  C   C2756     1.0  0.37250  0.88271  0.63713  1.0000
  C   C2757     1.0  0.64262  0.88579  0.56731  1.0000
  H   H2216     1.0  0.60535  0.58239  0.48408  1.0000
  H   H2217     1.0  0.60009  0.84003  0.56359  1.0000
  H   H2218     1.0  0.46050  0.68741  0.55831  1.0000
  C   C2758     1.0  0.39846  0.62912  0.54936  1.0000
  C   C2759     1.0  0.37282  0.64627  0.58763  1.0000
  H   H2219     1.0  0.36119  0.89235  0.64450  1.0000
  H   H2220     1.0  0.53383  0.61868  0.48867  1.0000
  H   H2221     1.0  0.43930  0.83172  0.49104  1.0000
  C   C2760     1.0  0.64250  0.72593  0.58092  1.0000
  H   H2222     1.0  0.47083  0.76845  0.49060  1.0000
  H   H2223     1.0  0.38383  0.67741  0.54319  1.0000
  C   C2761     1.0  0.45251  0.67179  0.56216  1.0000
  H   H2224     1.0  0.53231  0.77210  0.50510  1.0000
  C   C2762     1.0  0.43865  0.68868  0.47968  1.0000
  C   C2763     1.0  0.54500  0.77156  0.52299  1.0000
  C   C2764     1.0  0.55468  0.78398  0.53003  1.0000
  C   C2765     1.0  0.55848  0.80701  0.52473  1.0000
  C   C2766     1.0  0.55343  0.81739  0.51216  1.0000
  H   H2225     1.0  0.54243  0.75357  0.52703  1.0000
  H   H2226     1.0  0.55967  0.77565  0.53950  1.0000
  H   H2227     1.0  0.56612  0.81655  0.53019  1.0000
  H   H2228     1.0  0.55659  0.83527  0.50831  1.0000
  H   H2229     1.0  0.35067  0.62250  0.57380  1.0000
  C   C2767     1.0  0.38504  0.75836  0.59394  1.0000
  C   C2768     1.0  0.38391  0.78148  0.60186  1.0000
  C   C2769     1.0  0.41904  0.80445  0.59104  1.0000
  C   C2770     1.0  0.43618  0.79181  0.57822  1.0000
  C   C2771     1.0  0.42985  0.76755  0.57381  1.0000
  C   C2772     1.0  0.40672  0.75267  0.58093  1.0000
  P   P91       1.0  0.45020  0.75560  0.56042  1.0000
  C   C2773     1.0  0.46887  0.77715  0.55231  1.0000
  C   C2774     1.0  0.46870  0.72851  0.56643  1.0000
  C   C2775     1.0  0.49057  0.72103  0.55878  1.0000
  C   C2776     1.0  0.50511  0.70033  0.56337  1.0000
  C   C2777     1.0  0.49808  0.68691  0.57564  1.0000
  C   C2778     1.0  0.47630  0.69401  0.58328  1.0000
  C   C2779     1.0  0.46159  0.71463  0.57867  1.0000
  C   C2780     1.0  0.48985  0.77727  0.55683  1.0000
  C   C2781     1.0  0.50432  0.79398  0.55058  1.0000
  C   C2782     1.0  0.49802  0.81058  0.53978  1.0000
  C   C2783     1.0  0.47694  0.81091  0.53545  1.0000
  C   C2784     1.0  0.46223  0.79447  0.54176  1.0000
  C   C2785     1.0  0.43406  0.75055  0.54853  1.0000
  C   C2786     1.0  0.41228  0.76476  0.54669  1.0000
  C   C2787     1.0  0.39987  0.76115  0.53740  1.0000
  C   C2788     1.0  0.40924  0.74353  0.52975  1.0000
  C   C2789     1.0  0.43124  0.72990  0.53114  1.0000
  C   C2790     1.0  0.44360  0.73324  0.54053  1.0000
  H   H2230     1.0  0.37164  0.74713  0.59727  1.0000
  P   P92       1.0  0.36405  0.84767  0.60887  1.0000
  H   H2231     1.0  0.42424  0.82001  0.59317  1.0000
  H   H2232     1.0  0.45124  0.79977  0.57284  1.0000
  H   H2233     1.0  0.40567  0.73775  0.57658  1.0000
  H   H2234     1.0  0.49643  0.73106  0.54921  1.0000
  H   H2235     1.0  0.52184  0.69452  0.55737  1.0000
  H   H2236     1.0  0.50947  0.67086  0.57913  1.0000
  H   H2237     1.0  0.47074  0.68333  0.59271  1.0000
  H   H2238     1.0  0.44469  0.71935  0.58465  1.0000
  H   H2239     1.0  0.49499  0.76465  0.56525  1.0000
  H   H2240     1.0  0.52044  0.79412  0.55410  1.0000
  H   H2241     1.0  0.50935  0.82339  0.53484  1.0000
  H   H2242     1.0  0.47175  0.82427  0.52736  1.0000
  H   H2243     1.0  0.44584  0.79538  0.53829  1.0000
  H   H2244     1.0  0.40510  0.77910  0.55210  1.0000
  H   H2245     1.0  0.38325  0.77240  0.53586  1.0000
  H   H2246     1.0  0.39965  0.74073  0.52256  1.0000
  H   H2247     1.0  0.43884  0.71701  0.52474  1.0000
  H   H2248     1.0  0.46074  0.72256  0.54125  1.0000
  H   H2249     1.0  0.48959  0.76019  0.52885  1.0000
  H   H2250     1.0  0.46703  0.78310  0.51144  1.0000
  H   H2251     1.0  0.42494  0.61469  0.57340  1.0000
  H   H2252     1.0  0.43049  0.86929  0.62377  1.0000
  S   S390      1.0  0.63890  0.85805  0.53065  1.0000
  H   H2253     1.0  0.61468  0.58034  0.71123  1.0000
  H   H2254     1.0  0.55419  0.93711  0.53857  1.0000
  H   H2255     1.0  0.34604  0.59438  0.56049  1.0000
  H   H2256     1.0  0.63885  0.48508  0.72214  1.0000
  H   H2257     1.0  0.58603  0.70581  0.48007  1.0000
  C   C2791     1.0  0.57058  0.70050  0.47807  1.0000
  P   P93       1.0  0.62219  0.97801  0.53440  1.0000
  C   C2792     1.0  0.50753  0.82117  0.48907  1.0000
  C   C2793     1.0  0.56510  0.94919  0.53214  1.0000
  C   C2794     1.0  0.65114  0.65556  0.70467  1.0000
  C   C2795     1.0  0.64800  0.95684  0.52986  1.0000
  H   H2258     1.0  0.32942  0.50038  0.70440  1.0000
  C   C2796     1.0  0.63066  0.96172  0.56027  1.0000
  C   C2797     1.0  0.55478  0.79918  0.47607  1.0000
  C   C2798     1.0  0.33356  0.90755  0.58703  1.0000
  H   H2259     1.0  0.60139  0.86702  0.47655  1.0000
  C   C2799     1.0  0.35834  0.87172  0.59559  1.0000
  C   C2800     1.0  0.39561  0.61310  0.54182  1.0000
  H   H2260     1.0  0.40819  0.95990  0.49924  1.0000
  P   P94       1.0  0.53909  0.81722  0.48824  1.0000
  C   C2801     1.0  0.62402  0.51714  0.50461  1.0000
  H   H2261     1.0  0.64746  0.95264  0.55598  1.0000
  H   H2262     1.0  0.34854  0.82666  0.63658  1.0000
  H   H2263     1.0  0.57484  0.61316  0.49303  1.0000
  H   H2264     1.0  0.33488  0.77945  0.59726  1.0000
  H   H2265     1.0  0.34347  0.87386  0.63058  1.0000
  C   C2802     1.0  0.62463  0.95930  0.57404  1.0000
  H   H2266     1.0  0.46832  0.61231  0.56894  1.0000
  C   C2803     1.0  0.32323  0.78071  0.59027  1.0000
  H   H2267     1.0  0.65096  0.87824  0.55857  1.0000
  H   H2268     1.0  0.62702  0.61930  0.70730  1.0000
  C   C2804     1.0  0.61413  0.68309  0.70526  1.0000
  H   H2269     1.0  0.35646  0.96738  0.47441  1.0000
  C   C2805     1.0  0.48081  0.75827  0.49805  1.0000
  C   C2806     1.0  0.54366  0.88689  0.47390  1.0000
  H   H2270     1.0  0.40468  0.88995  0.64125  1.0000
  C   C2807     1.0  0.63273  0.58229  0.70681  1.0000
  C   C2808     1.0  0.36039  0.69953  0.57154  1.0000
  C   C2809     1.0  0.44093  0.69493  0.49147  1.0000
  H   H2271     1.0  0.63210  0.83939  0.59709  1.0000
  C   C2810     1.0  0.64551  0.50280  0.50102  1.0000
  H   H2272     1.0  0.48610  0.64873  0.56120  1.0000
  C   C2811     1.0  0.57401  0.84542  0.48158  1.0000
  C   C2812     1.0  0.34901  0.72152  0.56598  1.0000
  H   H2273     1.0  0.63899  0.80575  0.62494  1.0000
  C   C2813     1.0  0.64893  0.56262  0.70343  1.0000
  H   H2274     1.0  0.51808  0.70658  0.50515  1.0000
  H   H2275     1.0  0.40779  0.61077  0.53270  1.0000
  H   H2276     1.0  0.41706  0.69057  0.56298  1.0000
  S   S391      1.0  0.34318  0.83733  0.55804  1.0000
  C   C2814     1.0  0.37562  0.87543  0.58426  1.0000
  H   H2277     1.0  0.56864  0.76939  0.48992  1.0000
  H   H2278     1.0  0.51603  0.86596  0.47926  1.0000
  C   C2815     1.0  0.50505  0.73202  0.51801  1.0000
  H   H2279     1.0  0.64463  0.70125  0.59905  1.0000
  H   H2280     1.0  0.62951  0.66390  0.68933  1.0000
  H   H2281     1.0  0.38454  0.89698  0.56525  1.0000
  H   H2282     1.0  0.58596  0.82951  0.48462  1.0000
  H   H2283     1.0  0.57509  0.97701  0.50024  1.0000
  H   H2284     1.0  0.35934  0.69537  0.58216  1.0000
  C   C2816     1.0  0.36097  0.60376  0.55754  1.0000
  H   H2285     1.0  0.32892  0.76797  0.51613  1.0000
  H   H2286     1.0  0.41310  0.63878  0.54595  1.0000
  C   C2817     1.0  0.54853  0.71490  0.48002  1.0000
  H   H2287     1.0  0.36324  0.71585  0.53349  1.0000
  C   C2818     1.0  0.34814  0.65071  0.59133  1.0000
  C   C2819     1.0  0.43245  0.63081  0.57052  1.0000
  C   C2820     1.0  0.42791  0.67341  0.56471  1.0000
  H   H2288     1.0  0.38149  0.94245  0.48985  1.0000
  C   C2821     1.0  0.61417  0.83302  0.56930  1.0000
  H   H2289     1.0  0.45665  0.84587  0.50707  1.0000
  H   H2290     1.0  0.52374  0.59370  0.47480  1.0000
  H   H2291     1.0  0.33905  0.73383  0.57232  1.0000
  H   H2292     1.0  0.33241  0.66129  0.54601  1.0000
  C   C2822     1.0  0.33521  0.82636  0.63086  1.0000
  C   C2823     1.0  0.63372  0.59896  0.50015  1.0000
  C   C2824     1.0  0.36364  0.61992  0.56506  1.0000
  C   C2825     1.0  0.33317  0.91600  0.48168  1.0000
  C   C2826     1.0  0.63147  0.66720  0.69884  1.0000
  C   C2827     1.0  0.41771  0.65285  0.56883  1.0000
  H   H2293     1.0  0.42823  0.69076  0.50033  1.0000
  C   C2828     1.0  0.33735  0.88806  0.59697  1.0000
  H   H2294     1.0  0.40574  0.63220  0.59498  1.0000
  P   P95       1.0  0.38623  0.65402  0.57048  1.0000
  H   H2295     1.0  0.36756  0.83088  0.58209  1.0000
  C   C2829     1.0  0.63653  0.67637  0.55351  1.0000
  C   C2830     1.0  0.46811  0.83666  0.49955  1.0000
  H   H2296     1.0  0.59239  0.74749  0.47303  1.0000
  C   C2831     1.0  0.63273  0.81588  0.56495  1.0000
  C   C2832     1.0  0.36255  0.71137  0.54413  1.0000
  H   H2297     1.0  0.39228  0.86353  0.58312  1.0000
  H   H2298     1.0  0.34714  0.92540  0.56770  1.0000
  H   H2299     1.0  0.61688  0.51759  0.51496  1.0000
  C   C2833     1.0  0.33772  0.83613  0.61735  1.0000
  H   H2300     1.0  0.51427  0.72164  0.52578  1.0000
  C   C2834     1.0  0.37235  0.68299  0.56343  1.0000
  C   C2835     1.0  0.56214  0.95691  0.51898  1.0000
  C   C2836     1.0  0.37396  0.68942  0.54966  1.0000
  C   C2837     1.0  0.64990  0.74627  0.57304  1.0000
  C   C2838     1.0  0.33750  0.64466  0.60448  1.0000
  H   H2301     1.0  0.39861  0.80967  0.62301  1.0000
  C   C2839     1.0  0.54725  0.60526  0.48459  1.0000
  S   S392      1.0  0.37789  0.66861  0.48959  1.0000
  C   C2840     1.0  0.35046  0.91067  0.57557  1.0000
  S   S393      1.0  0.60081  0.89908  0.55645  1.0000
  C   C2841     1.0  0.34996  0.72736  0.55229  1.0000
  H   H2302     1.0  0.38676  0.62148  0.61808  1.0000
  C   C2842     1.0  0.37600  0.62972  0.61059  1.0000
  C   C2843     1.0  0.32344  0.50451  0.71428  1.0000
  C   C2844     1.0  0.32143  0.85829  0.56552  1.0000
  H   H2303     1.0  0.56303  0.52284  0.48005  1.0000
  C   C2845     1.0  0.33176  0.78467  0.57668  1.0000
  C   C2846     1.0  0.39700  0.88144  0.63526  1.0000
  C   C2847     1.0  0.36254  0.87203  0.62930  1.0000
  C   C2848     1.0  0.50733  0.72360  0.50620  1.0000
  S   S394      1.0  0.34253  0.92093  0.50590  1.0000
  C   C2849     1.0  0.65012  0.71719  0.59304  1.0000
  C   C2850     1.0  0.37148  0.89460  0.57418  1.0000
  H   H2304     1.0  0.59901  0.69200  0.70070  1.0000
  H   H2305     1.0  0.64361  0.54539  0.70533  1.0000
  H   H2306     1.0  0.36936  0.78419  0.61010  1.0000
  H   H2307     1.0  0.34306  0.62933  0.62429  1.0000
  C   C2851     1.0  0.45832  0.82879  0.49049  1.0000
  H   H2308     1.0  0.59959  0.85485  0.58416  1.0000
  C   C2852     1.0  0.64337  0.61788  0.49197  1.0000
  C   C2853     1.0  0.58286  0.86658  0.47693  1.0000
  H   H2309     1.0  0.63025  0.68190  0.54417  1.0000
  H   H2310     1.0  0.63679  0.56118  0.50479  1.0000
  C   C2854     1.0  0.53960  0.78200  0.51050  1.0000
  H   H2311     1.0  0.37415  0.58855  0.53987  1.0000
  C   C2855     1.0  0.58294  0.95602  0.53686  1.0000
  C   C2856     1.0  0.54468  0.80461  0.50476  1.0000
  S   S395      1.0  0.60807  0.60324  0.51222  1.0000
  C   C2857     1.0  0.37679  0.60050  0.54588  1.0000
  C   C2858     1.0  0.38254  0.82241  0.60291  1.0000
  C   C2859     1.0  0.37963  0.81830  0.58768  1.0000
  C   C2860     1.0  0.39478  0.79422  0.58104  1.0000
  C   C2861     1.0  0.42095  0.76677  0.59738  1.0000
  C   C2862     1.0  0.41781  0.77835  0.61149  1.0000
  C   C2863     1.0  0.39967  0.80426  0.61361  1.0000
  C   C2864     1.0  0.64567  0.93351  0.52990  1.0000
  H   H2312     1.0  0.46158  0.70992  0.50127  1.0000
  H   H2313     1.0  0.63780  0.93461  0.49846  1.0000
  C   C2865     1.0  0.61491  0.97548  0.55219  1.0000
  S   S396      1.0  0.34717  0.62488  0.47563  1.0000
  H   H2314     1.0  0.33054  0.88826  0.55110  1.0000
  C   C2866     1.0  0.58755  0.58451  0.48207  1.0000
  C   C2867     1.0  0.40161  0.85905  0.61758  1.0000
  C   C2868     1.0  0.57031  0.60213  0.48707  1.0000
  C   C2869     1.0  0.49262  0.83286  0.49886  1.0000
  C   C2870     1.0  0.62106  0.53087  0.48140  1.0000
  H   H2315     1.0  0.39196  0.79309  0.57123  1.0000
  H   H2316     1.0  0.43299  0.75013  0.59674  1.0000
  H   H2317     1.0  0.42752  0.76892  0.61924  1.0000
  C   C2871     1.0  0.36820  0.97534  0.47830  1.0000
  P   P96       1.0  0.49987  0.72677  0.48040  1.0000
  H   H2318     1.0  0.35061  0.47906  0.72267  1.0000
  H   H2319     1.0  0.54881  0.95091  0.51523  1.0000
  C   C2872     1.0  0.61384  0.84130  0.58094  1.0000
  H   H2320     1.0  0.32319  0.79102  0.55715  1.0000
  C   C2873     1.0  0.64240  0.51605  0.47789  1.0000
  H   H2321     1.0  0.63238  0.80928  0.55609  1.0000
  H   H2322     1.0  0.63560  0.63576  0.49326  1.0000
  H   H2323     1.0  0.64671  0.97531  0.49207  1.0000
  C   C2874     1.0  0.58175  0.56950  0.47478  1.0000
  C   C2875     1.0  0.47302  0.81715  0.48072  1.0000
  C   C2876     1.0  0.65072  0.81538  0.58390  1.0000
  C   C2877     1.0  0.39738  0.97099  0.49237  1.0000
  C   C2878     1.0  0.52825  0.70774  0.47794  1.0000
  C   C2879     1.0  0.53472  0.86578  0.47860  1.0000
  C   C2880     1.0  0.32873  0.92962  0.49169  1.0000
  C   C2881     1.0  0.54157  0.59107  0.47685  1.0000
  H   H2324     1.0  0.64307  0.71055  0.51352  1.0000
  C   C2882     1.0  0.57701  0.97154  0.51054  1.0000
  H   H2325     1.0  0.64337  0.75312  0.56381  1.0000
  C   C2883     1.0  0.38236  0.96113  0.48707  1.0000
  H   H2326     1.0  0.63669  0.94836  0.58027  1.0000
  S   S397      1.0  0.32533  0.66197  0.50613  1.0000
  C   C2884     1.0  0.65134  0.80723  0.57209  1.0000
  C   C2885     1.0  0.65155  0.61004  0.54735  1.0000
  C   C2886     1.0  0.56767  0.88732  0.47314  1.0000
  H   H2327     1.0  0.46523  0.81114  0.47375  1.0000
  C   C2887     1.0  0.53041  0.68569  0.47410  1.0000
  C   C2888     1.0  0.32076  0.83439  0.61007  1.0000
  H   H2328     1.0  0.32290  0.84116  0.59960  1.0000
  C   C2889     1.0  0.64404  0.57585  0.49839  1.0000
  H   H2329     1.0  0.64257  0.60481  0.52934  1.0000
  H   H2330     1.0  0.64696  0.76459  0.63675  1.0000
  C   C2890     1.0  0.57258  0.67873  0.47412  1.0000
  H   H2331     1.0  0.42456  0.67936  0.47951  1.0000
  C   C2891     1.0  0.63984  0.60440  0.70453  1.0000
  C   C2892     1.0  0.61626  0.68747  0.71755  1.0000
  H   H2332     1.0  0.59788  0.96787  0.59053  1.0000
  H   H2333     1.0  0.60282  0.69979  0.72253  1.0000
  H   H2334     1.0  0.54826  0.49081  0.47370  1.0000
  H   H2335     1.0  0.35946  0.51075  0.92714  1.0000
  C   C2893     1.0  0.34525  0.97214  0.94838  1.0000
  C   C2894     1.0  0.42415  0.96435  0.88433  1.0000
  Fe  Fe201     1.0  0.58438  0.52713  0.84758  1.0000
  S   S398      1.0  0.54990  0.54552  0.84060  1.0000
  C   C2895     1.0  0.37347  0.58749  0.88772  1.0000
  S   S399      1.0  0.61297  0.51408  0.83162  1.0000
  S   S400      1.0  0.60867  0.54504  0.85499  1.0000
  Fe  Fe202     1.0  0.42144  0.50945  0.85162  1.0000
  H   H2336     1.0  0.37684  0.60539  0.88422  1.0000
  Fe  Fe203     1.0  0.38823  0.53308  0.83177  1.0000
  S   S401      1.0  0.36780  0.50316  0.83662  1.0000
  S   S402      1.0  0.37825  0.56449  0.81619  1.0000
  Fe  Fe204     1.0  0.36895  0.50484  0.85774  1.0000
  C   C2896     1.0  0.34439  0.95295  0.77263  1.0000
  Fe  Fe205     1.0  0.61649  0.51041  0.86857  1.0000
  S   S403      1.0  0.38795  0.53599  0.85285  1.0000
  S   S404      1.0  0.42360  0.50938  0.83001  1.0000
  C   C2897     1.0  0.34804  0.57738  0.81789  1.0000
  H   H2337     1.0  0.49815  0.53965  0.89966  1.0000
  C   C2898     1.0  0.34979  0.95790  0.93858  1.0000
  H   H2338     1.0  0.52594  0.95999  0.87086  1.0000
  C   C2899     1.0  0.49372  0.50564  0.77507  1.0000
  C   C2900     1.0  0.34066  0.59789  0.80920  1.0000
  C   C2901     1.0  0.37534  0.97409  0.97066  1.0000
  C   C2902     1.0  0.40374  0.53722  0.75227  1.0000
  H   H2339     1.0  0.35350  0.60557  0.80141  1.0000
  C   C2903     1.0  0.33000  0.50056  0.88839  1.0000
  H   H2340     1.0  0.42053  0.49192  0.74465  1.0000
  H   H2341     1.0  0.43332  0.58398  0.74414  1.0000
  C   C2904     1.0  0.34471  0.48007  0.90842  1.0000
  C   C2905     1.0  0.34794  0.48587  0.89453  1.0000
  C   C2906     1.0  0.56329  0.51118  0.81518  1.0000
  C   C2907     1.0  0.33538  0.49254  0.72458  1.0000
  C   C2908     1.0  0.64822  0.56397  0.75525  1.0000
  H   H2342     1.0  0.35681  0.91662  0.77053  1.0000
  C   C2909     1.0  0.51893  0.52023  0.85898  1.0000
  C   C2910     1.0  0.45005  0.92527  0.84789  1.0000
  H   H2343     1.0  0.47754  0.50344  0.82567  1.0000
  C   C2911     1.0  0.52294  0.53444  0.84658  1.0000
  C   C2912     1.0  0.50481  0.54074  0.83892  1.0000
  C   C2913     1.0  0.48295  0.53270  0.84355  1.0000
  C   C2914     1.0  0.47891  0.51861  0.85602  1.0000
  H   H2344     1.0  0.50767  0.55194  0.82937  1.0000
  H   H2345     1.0  0.46911  0.53775  0.83760  1.0000
  C   C2915     1.0  0.34928  0.95935  0.82871  1.0000
  C   C2916     1.0  0.35849  0.94058  0.83778  1.0000
  C   C2917     1.0  0.35407  0.91766  0.83821  1.0000
  C   C2918     1.0  0.41914  0.92492  0.89558  1.0000
  C   C2919     1.0  0.40582  0.48250  0.74866  1.0000
  H   H2346     1.0  0.34000  0.52952  0.76266  1.0000
  H   H2347     1.0  0.36923  0.94369  0.84432  1.0000
  C   C2920     1.0  0.33000  0.58172  0.85589  1.0000
  C   C2921     1.0  0.33974  0.90550  0.87435  1.0000
  H   H2348     1.0  0.45652  0.51248  0.80103  1.0000
  C   C2922     1.0  0.33714  0.56722  0.75996  1.0000
  S   S405      1.0  0.32190  0.85970  0.80066  1.0000
  H   H2349     1.0  0.42678  0.54815  0.80374  1.0000
  C   C2923     1.0  0.48611  0.87927  0.87741  1.0000
  C   C2924     1.0  0.43599  0.95247  0.82925  1.0000
  C   C2925     1.0  0.41976  0.93806  0.82908  1.0000
  H   H2350     1.0  0.32542  0.83241  0.77024  1.0000
  H   H2351     1.0  0.37360  0.95770  0.96800  1.0000
  H   H2352     1.0  0.63694  0.56189  0.80945  1.0000
  C   C2926     1.0  0.45109  0.94607  0.83859  1.0000
  H   H2353     1.0  0.40024  0.95672  0.90260  1.0000
  C   C2927     1.0  0.47806  0.88807  0.86534  1.0000
  C   C2928     1.0  0.39129  0.54796  0.93426  1.0000
  C   C2929     1.0  0.35649  0.49522  0.80675  1.0000
  H   H2354     1.0  0.55060  0.96006  0.84869  1.0000
  H   H2355     1.0  0.48128  0.58600  0.80568  1.0000
  H   H2356     1.0  0.34465  0.56749  0.85462  1.0000
  H   H2357     1.0  0.36423  0.47899  0.88859  1.0000
  C   C2930     1.0  0.48072  0.87293  0.85614  1.0000
  C   C2931     1.0  0.49025  0.84909  0.85926  1.0000
  C   C2932     1.0  0.49760  0.84031  0.87146  1.0000
  H   H2358     1.0  0.34687  0.55448  0.79668  1.0000
  H   H2359     1.0  0.63806  0.56452  0.89251  1.0000
  Fe  Fe206     1.0  0.63751  0.52881  0.84036  1.0000
  C   C2933     1.0  0.40325  0.47961  0.91947  1.0000
  H   H2360     1.0  0.43941  0.52478  0.77558  1.0000
  C   C2934     1.0  0.35429  0.58041  0.88443  1.0000
  H   H2361     1.0  0.35420  0.56663  0.76256  1.0000
  C   C2935     1.0  0.49509  0.49857  0.76292  1.0000
  C   C2936     1.0  0.32365  0.48900  0.91622  1.0000
  C   C2937     1.0  0.43148  0.53376  0.90776  1.0000
  H   H2362     1.0  0.34279  0.59282  0.87843  1.0000
  H   H2363     1.0  0.48251  0.50723  0.75648  1.0000
  H   H2364     1.0  0.46315  0.95771  0.83873  1.0000
  H   H2365     1.0  0.51134  0.55092  0.80250  1.0000
  C   C2938     1.0  0.57961  0.51784  0.80399  1.0000
  C   C2939     1.0  0.35810  0.93077  0.77545  1.0000
  S   S406      1.0  0.32048  0.48201  0.93362  1.0000
  H   H2366     1.0  0.48520  0.89089  0.88439  1.0000
  H   H2367     1.0  0.47581  0.87951  0.84648  1.0000
  H   H2368     1.0  0.49217  0.83745  0.85215  1.0000
  H   H2369     1.0  0.50510  0.82185  0.87383  1.0000
  H   H2370     1.0  0.64818  0.52609  0.73461  1.0000
  C   C2940     1.0  0.35389  0.53607  0.79637  1.0000
  H   H2371     1.0  0.50176  0.84871  0.88986  1.0000
  H   H2372     1.0  0.32458  0.97791  0.96740  1.0000
  P   P97       1.0  0.46672  0.91906  0.86128  1.0000
  C   C2941     1.0  0.54162  0.50628  0.81384  1.0000
  H   H2373     1.0  0.32091  0.96459  0.85506  1.0000
  C   C2942     1.0  0.37386  0.94463  0.79154  1.0000
  C   C2943     1.0  0.37266  0.92653  0.78498  1.0000
  C   C2944     1.0  0.49565  0.85542  0.88050  1.0000
  C   C2945     1.0  0.44063  0.95499  0.87430  1.0000
  H   H2374     1.0  0.36143  0.90312  0.84510  1.0000
  S   S407      1.0  0.33470  0.88445  0.83068  1.0000
  C   C2946     1.0  0.44660  0.93050  0.87484  1.0000
  C   C2947     1.0  0.47958  0.53804  0.90194  1.0000
  C   C2948     1.0  0.48371  0.48527  0.82447  1.0000
  H   H2375     1.0  0.33666  0.55173  0.83461  1.0000
  H   H2376     1.0  0.32901  0.86761  0.75276  1.0000
  C   C2949     1.0  0.48626  0.52911  0.80118  1.0000
  H   H2377     1.0  0.58704  0.52471  0.78272  1.0000
  H   H2378     1.0  0.36310  0.96094  0.92989  1.0000
  C   C2950     1.0  0.64548  0.50924  0.89583  1.0000
  C   C2951     1.0  0.37948  0.91167  0.87422  1.0000
  H   H2379     1.0  0.44841  0.96689  0.86596  1.0000
  C   C2952     1.0  0.43549  0.91549  0.88547  1.0000
  C   C2953     1.0  0.46223  0.52859  0.80167  1.0000
  C   C2954     1.0  0.55266  0.51462  0.78998  1.0000
  H   H2380     1.0  0.59629  0.52182  0.80512  1.0000
  C   C2955     1.0  0.39455  0.48223  0.76189  1.0000
  C   C2956     1.0  0.36409  0.89735  0.87273  1.0000
  H   H2381     1.0  0.33975  0.92938  0.93199  1.0000
  C   C2957     1.0  0.33666  0.93986  0.93977  1.0000
  C   C2958     1.0  0.64692  0.55619  0.74369  1.0000
  H   H2382     1.0  0.38267  0.90911  0.78745  1.0000
  C   C2959     1.0  0.64486  0.51189  0.90897  1.0000
  C   C2960     1.0  0.49305  0.55004  0.80254  1.0000
  H   H2383     1.0  0.37098  0.87996  0.87024  1.0000
  H   H2384     1.0  0.40603  0.55727  0.93015  1.0000
  C   C2961     1.0  0.41864  0.91724  0.83827  1.0000
  C   C2962     1.0  0.47603  0.57006  0.80434  1.0000
  H   H2385     1.0  0.40769  0.94332  0.82201  1.0000
  C   C2963     1.0  0.34625  0.94236  0.87889  1.0000
  C   C2964     1.0  0.36030  0.96689  0.78868  1.0000
  C   C2965     1.0  0.62923  0.57530  0.88472  1.0000
  C   C2966     1.0  0.49694  0.51264  0.86373  1.0000
  S   S408      1.0  0.61858  0.51014  0.89016  1.0000
  H   H2386     1.0  0.38476  0.94126  0.79913  1.0000
  H   H2387     1.0  0.43175  0.89532  0.85511  1.0000
  H   H2388     1.0  0.33388  0.52387  0.81529  1.0000
  H   H2389     1.0  0.45173  0.56219  0.76339  1.0000
  H   H2390     1.0  0.41044  0.91335  0.90373  1.0000
  C   C2967     1.0  0.60583  0.60097  0.86426  1.0000
  C   C2968     1.0  0.59393  0.58657  0.87475  1.0000
  C   C2969     1.0  0.60571  0.57356  0.88489  1.0000
  C   C2970     1.0  0.33073  0.92821  0.87731  1.0000
  H   H2391     1.0  0.41107  0.50700  0.88726  1.0000
  C   C2971     1.0  0.62941  0.60263  0.86401  1.0000
  C   C2972     1.0  0.33132  0.60406  0.84831  1.0000
  C   C2973     1.0  0.34524  0.97121  0.77928  1.0000
  C   C2974     1.0  0.37121  0.52974  0.78583  1.0000
  C   C2975     1.0  0.43172  0.53374  0.76699  1.0000
  H   H2392     1.0  0.32809  0.89408  0.87326  1.0000
  H   H2393     1.0  0.33677  0.48820  0.74522  1.0000
  H   H2394     1.0  0.33641  0.51728  0.94886  1.0000
  S   S409      1.0  0.64675  0.49529  0.85424  1.0000
  H   H2395     1.0  0.62802  0.51451  0.91547  1.0000
  C   C2976     1.0  0.37375  0.48875  0.79619  1.0000
  C   C2977     1.0  0.34990  0.55734  0.88898  1.0000
  C   C2978     1.0  0.34010  0.91342  0.82978  1.0000
  C   C2979     1.0  0.38529  0.53251  0.92732  1.0000
  H   H2396     1.0  0.37716  0.54361  0.77816  1.0000
  C   C2980     1.0  0.46639  0.54236  0.89174  1.0000
  C   C2981     1.0  0.53464  0.95225  0.85104  1.0000
  H   H2397     1.0  0.38974  0.53094  0.74932  1.0000
  H   H2398     1.0  0.40230  0.56826  0.73720  1.0000
  H   H2399     1.0  0.50209  0.92501  0.83723  1.0000
  H   H2400     1.0  0.59696  0.61040  0.85615  1.0000
  H   H2401     1.0  0.57585  0.58481  0.87478  1.0000
  H   H2402     1.0  0.59688  0.56154  0.89272  1.0000
  H   H2403     1.0  0.40264  0.57745  0.89831  1.0000
  C   C2982     1.0  0.64918  0.53210  0.74356  1.0000
  H   H2404     1.0  0.33507  0.55168  0.88652  1.0000
  C   C2983     1.0  0.63575  0.67594  0.72344  1.0000
  H   H2405     1.0  0.43742  0.52214  0.92798  1.0000
  C   C2984     1.0  0.34659  0.51884  0.80686  1.0000
  C   C2985     1.0  0.50969  0.49413  0.78362  1.0000
  P   P98       1.0  0.40466  0.49782  0.77237  1.0000
  H   H2406     1.0  0.56678  0.58008  0.78730  1.0000
  H   H2407     1.0  0.47936  0.52713  0.92286  1.0000
  H   H2408     1.0  0.60652  0.57112  0.77418  1.0000
  H   H2409     1.0  0.48028  0.52016  0.77762  1.0000
  H   H2410     1.0  0.34694  0.60701  0.84101  1.0000
  H   H2411     1.0  0.53263  0.51543  0.86503  1.0000
  C   C2986     1.0  0.32729  0.49748  0.73739  1.0000
  S   S410      1.0  0.58976  0.49363  0.86223  1.0000
  H   H2412     1.0  0.64946  0.93683  0.89353  1.0000
  H   H2413     1.0  0.32950  0.60527  0.75643  1.0000
  C   C2987     1.0  0.35832  0.54060  0.95190  1.0000
  H   H2414     1.0  0.43891  0.58476  0.80626  1.0000
  H   H2415     1.0  0.43903  0.89659  0.88588  1.0000
  H   H2416     1.0  0.34807  0.54352  0.96145  1.0000
  H   H2417     1.0  0.39829  0.90543  0.87297  1.0000
  H   H2418     1.0  0.40583  0.90625  0.83820  1.0000
  H   H2419     1.0  0.59708  0.57053  0.82241  1.0000
  C   C2988     1.0  0.57434  0.51952  0.79138  1.0000
  S   S411      1.0  0.45178  0.50808  0.86252  1.0000
  H   H2420     1.0  0.56193  0.57929  0.81151  1.0000
  H   H2421     1.0  0.52908  0.50153  0.82268  1.0000
  C   C2989     1.0  0.45219  0.56940  0.80467  1.0000
  C   C2990     1.0  0.62479  0.56550  0.79086  1.0000
  H   H2422     1.0  0.56731  0.50994  0.82495  1.0000
  C   C2991     1.0  0.37052  0.93409  0.87737  1.0000
  C   C2992     1.0  0.44534  0.54872  0.80324  1.0000
  P   P99       1.0  0.50776  0.50261  0.79957  1.0000
  H   H2423     1.0  0.38228  0.94522  0.87863  1.0000
  C   C2993     1.0  0.38399  0.54827  0.90004  1.0000
  C   C2994     1.0  0.60479  0.57096  0.78466  1.0000
  C   C2995     1.0  0.58219  0.57612  0.79206  1.0000
  C   C2996     1.0  0.57942  0.57582  0.80567  1.0000
  C   C2997     1.0  0.59924  0.57077  0.81185  1.0000
  C   C2998     1.0  0.62180  0.56572  0.80448  1.0000
  C   C2999     1.0  0.38123  0.50596  0.78561  1.0000
  C   C3000     1.0  0.53624  0.50775  0.80123  1.0000
  C   C3001     1.0  0.43347  0.91104  0.84777  1.0000
  C   C3002     1.0  0.40956  0.49302  0.89577  1.0000
  C   C3003     1.0  0.38819  0.57154  0.89559  1.0000
  C   C3004     1.0  0.37800  0.55174  0.94659  1.0000
  H   H2424     1.0  0.54870  0.51639  0.78015  1.0000
  C   C3005     1.0  0.33494  0.95517  0.82050  1.0000
  C   C3006     1.0  0.49983  0.94263  0.86661  1.0000
  P   P100      1.0  0.40146  0.52817  0.91113  1.0000
  H   H2425     1.0  0.42028  0.49062  0.79823  1.0000
  H   H2426     1.0  0.33254  0.95553  0.76557  1.0000
  C   C3007     1.0  0.36507  0.52197  0.93255  1.0000
  C   C3008     1.0  0.36459  0.54141  0.89682  1.0000
  H   H2427     1.0  0.64948  0.96638  0.85743  1.0000
  C   C3009     1.0  0.41457  0.52446  0.76294  1.0000
  C   C3010     1.0  0.32896  0.54630  0.76008  1.0000
  C   C3011     1.0  0.46896  0.53104  0.91500  1.0000
  C   C3012     1.0  0.41065  0.55851  0.74545  1.0000
  C   C3013     1.0  0.64113  0.59028  0.87443  1.0000
  C   C3014     1.0  0.32333  0.58904  0.75641  1.0000
  C   C3015     1.0  0.50701  0.93276  0.84461  1.0000
  C   C3016     1.0  0.42932  0.47903  0.77912  1.0000
  C   C3017     1.0  0.41346  0.94934  0.89501  1.0000
  C   C3018     1.0  0.49269  0.93305  0.85710  1.0000
  C   C3019     1.0  0.52071  0.95219  0.86357  1.0000
  C   C3020     1.0  0.43856  0.55506  0.76017  1.0000
  H   H2428     1.0  0.43289  0.54248  0.88649  1.0000
  C   C3021     1.0  0.32814  0.96735  0.95963  1.0000
  H   H2429     1.0  0.65019  0.64183  0.87182  1.0000
  H   H2430     1.0  0.48940  0.94276  0.87639  1.0000
  H   H2431     1.0  0.47476  0.54705  0.88155  1.0000
  H   H2432     1.0  0.64444  0.62728  0.83046  1.0000
  C   C3022     1.0  0.52780  0.94253  0.84157  1.0000
  C   C3023     1.0  0.35178  0.52582  0.94484  1.0000
  H   H2433     1.0  0.36060  0.52385  0.90056  1.0000
  S   S412      1.0  0.33323  0.50870  0.87105  1.0000
  H   H2434     1.0  0.53863  0.94260  0.83187  1.0000
  C   C3024     1.0  0.44252  0.54000  0.89461  1.0000
  H   H2435     1.0  0.38287  0.56335  0.95205  1.0000
  C   C3025     1.0  0.33126  0.56752  0.82786  1.0000
  H   H2436     1.0  0.33959  0.95979  0.88137  1.0000
  H   H2437     1.0  0.63885  0.58512  0.83597  1.0000
  C   C3026     1.0  0.33046  0.93234  0.82098  1.0000
  H   H2438     1.0  0.39991  0.48301  0.92952  1.0000
  H   H2439     1.0  0.49395  0.50186  0.87341  1.0000
  C   C3027     1.0  0.43289  0.47986  0.79188  1.0000
  C   C3028     1.0  0.40417  0.49819  0.90866  1.0000
  C   C3029     1.0  0.44508  0.52855  0.91789  1.0000
  C   C3030     1.0  0.42811  0.56739  0.74937  1.0000
  H   H2440     1.0  0.43646  0.96896  0.82237  1.0000
  H   H2441     1.0  0.64105  0.51725  0.80136  1.0000
  H   H2442     1.0  0.63742  0.67935  0.73297  1.0000
  Fe  Fe207     1.0  0.61978  0.48174  0.84657  1.0000
  H   H2443     1.0  0.63847  0.61327  0.85557  1.0000
  H   H2444     1.0  0.64442  0.56877  0.73478  1.0000
  H   H2445     1.0  0.64633  0.58272  0.75521  1.0000
  H   H2446     1.0  0.65067  0.59881  0.79476  1.0000
  H   H2447     1.0  0.35102  0.48198  0.81499  1.0000
  C   C3031     1.0  0.65213  0.54764  0.76672  1.0000
  H   H2448     1.0  0.32741  0.96959  0.81360  1.0000
  Fe  Fe208     1.0  0.40285  0.47946  0.83661  1.0000
  C   C3032     1.0  0.49875  0.47947  0.81290  1.0000
  C   C3033     1.0  0.51253  0.48010  0.75914  1.0000
  H   H2449     1.0  0.31985  0.92941  0.81436  1.0000
  H   H2450     1.0  0.44626  0.97787  0.92838  1.0000
  H   H2451     1.0  0.68448  0.43936  0.13081  1.0000
  Fe  Fe209     1.0  0.73136  0.04470  0.19396  1.0000
  S   S413      1.0  0.69256  0.05542  0.20045  1.0000
  S   S414      1.0  0.75045  0.05963  0.17386  1.0000
  H   H2452     1.0  0.86331  0.45897  0.00232  1.0000
  H   H2453     1.0  0.70470  0.02073  0.99312  1.0000
  H   H2454     1.0  0.67602  0.17161  0.21434  1.0000
  S   S415      1.0  0.73093  0.00557  0.19970  1.0000
  Fe  Fe210     1.0  0.75575  0.17065  0.09787  1.0000
  S   S416      1.0  0.73232  0.18876  0.08317  1.0000
  S   S417      1.0  0.79556  0.16255  0.09351  1.0000
  Fe  Fe211     1.0  0.71448  0.16559  0.12066  1.0000
  S   S418      1.0  0.68773  0.18307  0.10766  1.0000
  S   S419      1.0  0.70051  0.15385  0.14219  1.0000
  Fe  Fe212     1.0  0.70931  0.16114  0.09278  1.0000
  Fe  Fe213     1.0  0.71288  0.20925  0.09942  1.0000
  S   S420      1.0  0.70062  0.24915  0.09551  1.0000
  S   S421      1.0  0.73431  0.14191  0.10656  1.0000
  S   S422      1.0  0.73817  0.19289  0.11341  1.0000
  Fe  Fe214     1.0  0.77422  0.38916  0.10686  1.0000
  S   S423      1.0  0.76190  0.37227  0.12777  1.0000
  S   S424      1.0  0.81209  0.39070  0.09706  1.0000
  Fe  Fe215     1.0  0.72449  0.40717  0.10148  1.0000
  S   S425      1.0  0.70786  0.39137  0.12183  1.0000
  S   S426      1.0  0.71042  0.42957  0.08368  1.0000
  Fe  Fe216     1.0  0.73531  0.40564  0.12913  1.0000
  S   S427      1.0  0.72295  0.42651  0.14644  1.0000
  Fe  Fe217     1.0  0.73574  0.35927  0.11884  1.0000
  S   S428      1.0  0.73299  0.31996  0.12504  1.0000
  S   S429      1.0  0.74983  0.42331  0.10888  1.0000
  S   S430      1.0  0.75006  0.37425  0.09795  1.0000
  Fe  Fe218     1.0  0.86229  0.12944  0.99440  1.0000
  S   S431      1.0  0.88736  0.11437  0.00893  1.0000
  S   S432      1.0  0.65360  0.02987  0.03582  1.0000
  Fe  Fe219     1.0  0.85852  0.17912  0.00110  1.0000
  S   S433      1.0  0.88214  0.16702  0.01639  1.0000
  S   S434      1.0  0.84095  0.21743  0.99751  1.0000
  Fe  Fe220     1.0  0.90534  0.14620  0.00138  1.0000
  S   S435      1.0  0.94482  0.14828  0.99464  1.0000
  Fe  Fe221     1.0  0.86213  0.13645  0.02263  1.0000
  S   S436      1.0  0.84961  0.11800  0.04332  1.0000
  S   S437      1.0  0.88239  0.15981  0.98560  1.0000
  S   S438      1.0  0.83643  0.15009  0.00862  1.0000
  Fe  Fe222     1.0  0.86578  0.38258  0.00597  1.0000
  S   S439      1.0  0.88204  0.38288  0.02373  1.0000
  H   H2455     1.0  0.73771  0.44792  0.19423  1.0000
  Fe  Fe223     1.0  0.88954  0.33101  0.00438  1.0000
  S   S440      1.0  0.90670  0.32818  0.02202  1.0000
  S   S441      1.0  0.90128  0.29792  0.99499  1.0000
  Fe  Fe224     1.0  0.87178  0.34699  0.03100  1.0000
  S   S442      1.0  0.85256  0.33156  0.05089  1.0000
  Fe  Fe225     1.0  0.91577  0.36411  0.01311  1.0000
  S   S443      1.0  0.95311  0.37356  0.00821  1.0000
  S   S444      1.0  0.85385  0.34742  0.01395  1.0000
  S   S445      1.0  0.90024  0.36626  0.99479  1.0000
  C   C3034     1.0  0.73691  0.47125  0.16814  1.0000
  C   C3035     1.0  0.67717  0.12795  0.02927  1.0000
  C   C3036     1.0  0.78215  0.39818  0.18516  1.0000
  H   H2456     1.0  0.95729  0.35509  0.03595  1.0000
  S   S446      1.0  0.74088  0.04836  0.21307  1.0000
  C   C3037     1.0  0.85766  0.23973  0.99713  1.0000
  C   C3038     1.0  0.84630  0.26322  0.99715  1.0000
  C   C3039     1.0  0.85921  0.28117  0.99705  1.0000
  C   C3040     1.0  0.88372  0.27585  0.99649  1.0000
  C   C3041     1.0  0.89497  0.25241  0.99643  1.0000
  C   C3042     1.0  0.88204  0.23438  0.99694  1.0000
  C   C3043     1.0  0.71403  0.16857  0.20826  1.0000
  H   H2457     1.0  0.66196  0.10067  0.20790  1.0000
  H   H2458     1.0  0.89103  0.21641  0.99688  1.0000
  C   C3044     1.0  0.96723  0.14423  0.00447  1.0000
  C   C3045     1.0  0.96382  0.13427  0.01788  1.0000
  H   H2459     1.0  0.94695  0.12918  0.02262  1.0000
  C   C3046     1.0  0.82193  0.37583  0.08344  1.0000
  C   C3047     1.0  0.81142  0.35704  0.08240  1.0000
  C   C3048     1.0  0.82080  0.34385  0.07224  1.0000
  C   C3049     1.0  0.84020  0.34985  0.06275  1.0000
  C   C3050     1.0  0.85029  0.36914  0.06347  1.0000
  C   C3051     1.0  0.84138  0.38188  0.07395  1.0000
  H   H2460     1.0  0.79695  0.35179  0.08988  1.0000
  H   H2461     1.0  0.81332  0.32861  0.07194  1.0000
  H   H2462     1.0  0.86533  0.37383  0.05622  1.0000
  H   H2463     1.0  0.84961  0.39638  0.07474  1.0000
  C   C3052     1.0  0.80999  0.15175  0.07890  1.0000
  C   C3053     1.0  0.83417  0.14287  0.07773  1.0000
  C   C3054     1.0  0.84644  0.13381  0.06642  1.0000
  C   C3055     1.0  0.83482  0.13400  0.05597  1.0000
  C   C3056     1.0  0.81067  0.14340  0.05694  1.0000
  C   C3057     1.0  0.79823  0.15227  0.06841  1.0000
  H   H2464     1.0  0.84336  0.14238  0.08577  1.0000
  H   H2465     1.0  0.86489  0.12601  0.06589  1.0000
  H   H2466     1.0  0.80141  0.14298  0.04907  1.0000
  H   H2467     1.0  0.77956  0.15918  0.06919  1.0000
  C   C3058     1.0  0.70897  0.26882  0.10405  1.0000
  C   C3059     1.0  0.72125  0.26050  0.11465  1.0000
  C   C3060     1.0  0.72830  0.27644  0.12093  1.0000
  C   C3061     1.0  0.72346  0.30093  0.11663  1.0000
  C   C3062     1.0  0.71083  0.30935  0.10616  1.0000
  C   C3063     1.0  0.70339  0.29337  0.10002  1.0000
  H   H2468     1.0  0.72518  0.24179  0.11809  1.0000
  H   H2469     1.0  0.73770  0.26980  0.12914  1.0000
  H   H2470     1.0  0.70668  0.32814  0.10285  1.0000
  H   H2471     1.0  0.69364  0.30009  0.09196  1.0000
  H   H2472     1.0  0.74985  0.17948  0.99066  1.0000
  C   C3064     1.0  0.72548  0.45792  0.16232  1.0000
  C   C3065     1.0  0.73824  0.44393  0.15292  1.0000
  C   C3066     1.0  0.76266  0.44351  0.14941  1.0000
  C   C3067     1.0  0.77417  0.45641  0.15547  1.0000
  H   H2473     1.0  0.96273  0.27853  0.97840  1.0000
  H   H2474     1.0  0.77278  0.43287  0.14223  1.0000
  C   C3068     1.0  0.67373  0.13232  0.07734  1.0000
  C   C3069     1.0  0.73657  0.08594  0.16514  1.0000
  C   C3070     1.0  0.74706  0.09471  0.15224  1.0000
  C   C3071     1.0  0.73618  0.11554  0.14507  1.0000
  C   C3072     1.0  0.71481  0.12774  0.15080  1.0000
  C   C3073     1.0  0.70458  0.11921  0.16376  1.0000
  C   C3074     1.0  0.71540  0.09841  0.17089  1.0000
  H   H2475     1.0  0.76369  0.08547  0.14781  1.0000
  H   H2476     1.0  0.74438  0.12225  0.13518  1.0000
  H   H2477     1.0  0.68827  0.12875  0.16835  1.0000
  H   H2478     1.0  0.70754  0.09231  0.18092  1.0000
  P   P101      1.0  0.71457  0.16051  0.19242  1.0000
  C   C3075     1.0  0.77809  0.02515  0.08657  1.0000
  H   H2479     1.0  0.70280  0.47778  0.19946  1.0000
  C   C3076     1.0  0.69833  0.10703  0.01138  1.0000
  H   H2480     1.0  0.75823  0.38764  0.16031  1.0000
  S   S447      1.0  0.69999  0.13393  0.08279  1.0000
  H   H2481     1.0  0.74504  0.45023  0.97605  1.0000
  H   H2482     1.0  0.72635  0.20793  0.19090  1.0000
  C   C3077     1.0  0.68778  0.14889  0.19331  1.0000
  H   H2483     1.0  0.69564  0.00163  0.14124  1.0000
  C   C3078     1.0  0.68800  0.02914  0.99800  1.0000
  C   C3079     1.0  0.67174  0.04338  0.99046  1.0000
  P   P102      1.0  0.75562  0.04510  0.12304  1.0000
  C   C3080     1.0  0.74291  0.03201  0.01296  1.0000
  C   C3081     1.0  0.83041  0.44122  0.20440  1.0000
  C   C3082     1.0  0.66042  0.03567  0.01836  1.0000
  H   H2484     1.0  0.82745  0.26754  0.99723  1.0000
  H   H2485     1.0  0.72069  0.15332  0.99229  1.0000
  C   C3083     1.0  0.73926  0.13700  0.18972  1.0000
  C   C3084     1.0  0.75150  0.13468  0.17692  1.0000
  C   C3085     1.0  0.77017  0.11608  0.17501  1.0000
  C   C3086     1.0  0.77668  0.09958  0.18581  1.0000
  C   C3087     1.0  0.76477  0.10185  0.19858  1.0000
  C   C3088     1.0  0.74612  0.12041  0.20053  1.0000
  C   C3089     1.0  0.97038  0.25589  0.04315  1.0000
  H   H2486     1.0  0.79057  0.16243  0.99471  1.0000
  H   H2487     1.0  0.66393  0.37835  0.05535  1.0000
  H   H2488     1.0  0.74646  0.14670  0.16833  1.0000
  H   H2489     1.0  0.77903  0.11394  0.16509  1.0000
  H   H2490     1.0  0.79054  0.08467  0.18425  1.0000
  C   C3090     1.0  0.80976  0.40787  0.21260  1.0000
  C   C3091     1.0  0.67581  0.46467  0.07562  1.0000
  C   C3092     1.0  0.75453  0.27558  0.99751  1.0000
  C   C3093     1.0  0.76532  0.25619  0.99138  1.0000
  C   C3094     1.0  0.77918  0.23723  0.99810  1.0000
  C   C3095     1.0  0.78253  0.23774  0.01086  1.0000
  C   C3096     1.0  0.77268  0.25764  0.01685  1.0000
  C   C3097     1.0  0.75803  0.27623  0.01024  1.0000
  P   P103      1.0  0.77705  0.25900  0.03324  1.0000
  C   C3098     1.0  0.74905  0.25584  0.04381  1.0000
  C   C3099     1.0  0.80000  0.23611  0.03887  1.0000
  C   C3100     1.0  0.82170  0.23180  0.03048  1.0000
  C   C3101     1.0  0.83936  0.21353  0.03444  1.0000
  C   C3102     1.0  0.83575  0.19997  0.04704  1.0000
  C   C3103     1.0  0.81486  0.20543  0.05585  1.0000
  C   C3104     1.0  0.79701  0.22340  0.05181  1.0000
  C   C3105     1.0  0.74137  0.23387  0.04674  1.0000
  C   C3106     1.0  0.71985  0.23103  0.05507  1.0000
  C   C3107     1.0  0.70580  0.25012  0.06044  1.0000
  C   C3108     1.0  0.71295  0.27223  0.05719  1.0000
  C   C3109     1.0  0.73444  0.27517  0.04882  1.0000
  C   C3110     1.0  0.78688  0.28595  0.03382  1.0000
  C   C3111     1.0  0.79387  0.30150  0.02221  1.0000
  C   C3112     1.0  0.80163  0.32216  0.02297  1.0000
  C   C3113     1.0  0.80309  0.32712  0.03526  1.0000
  C   C3114     1.0  0.79695  0.31131  0.04678  1.0000
  C   C3115     1.0  0.78905  0.29074  0.04606  1.0000
  H   H2491     1.0  0.74367  0.29024  0.99233  1.0000
  C   C3116     1.0  0.74197  0.44860  0.98674  1.0000
  H   H2492     1.0  0.78789  0.22230  0.99331  1.0000
  H   H2493     1.0  0.79320  0.22270  0.01584  1.0000
  H   H2494     1.0  0.74960  0.29140  0.01486  1.0000
  H   H2495     1.0  0.82469  0.24221  0.02073  1.0000
  H   H2496     1.0  0.85567  0.20979  0.02762  1.0000
  H   H2497     1.0  0.84918  0.18538  0.05001  1.0000
  H   H2498     1.0  0.81245  0.19578  0.06584  1.0000
  H   H2499     1.0  0.78103  0.22724  0.05882  1.0000
  H   H2500     1.0  0.75222  0.21884  0.04275  1.0000
  H   H2501     1.0  0.71423  0.21392  0.05756  1.0000
  H   H2502     1.0  0.68948  0.24777  0.06724  1.0000
  H   H2503     1.0  0.70195  0.28695  0.06141  1.0000
  H   H2504     1.0  0.73968  0.29243  0.04642  1.0000
  H   H2505     1.0  0.79383  0.29765  0.01255  1.0000
  H   H2506     1.0  0.80692  0.33418  0.01401  1.0000
  H   H2507     1.0  0.80948  0.34296  0.03585  1.0000
  H   H2508     1.0  0.79864  0.31494  0.05624  1.0000
  H   H2509     1.0  0.78491  0.27840  0.05503  1.0000
  C   C3117     1.0  0.89603  0.21885  0.09042  1.0000
  C   C3118     1.0  0.89080  0.23133  0.10096  1.0000
  C   C3119     1.0  0.89688  0.25375  0.09913  1.0000
  C   C3120     1.0  0.90816  0.26374  0.08675  1.0000
  C   C3121     1.0  0.91331  0.25135  0.07608  1.0000
  C   C3122     1.0  0.90695  0.22892  0.07798  1.0000
  P   P104      1.0  0.92724  0.26404  0.05989  1.0000
  C   C3123     1.0  0.90762  0.26356  0.04870  1.0000
  C   C3124     1.0  0.93144  0.29364  0.06025  1.0000
  C   C3125     1.0  0.91609  0.31356  0.05534  1.0000
  C   C3126     1.0  0.91923  0.33617  0.05618  1.0000
  C   C3127     1.0  0.75974  0.01414  0.08535  1.0000
  C   C3128     1.0  0.94264  0.22099  0.97531  1.0000
  C   C3129     1.0  0.95010  0.29679  0.06594  1.0000
  C   C3130     1.0  0.91547  0.25167  0.03784  1.0000
  C   C3131     1.0  0.89991  0.25100  0.02948  1.0000
  C   C3132     1.0  0.87652  0.26240  0.03174  1.0000
  C   C3133     1.0  0.86848  0.27397  0.04260  1.0000
  C   C3134     1.0  0.88379  0.27406  0.05123  1.0000
  C   C3135     1.0  0.95637  0.24773  0.05514  1.0000
  H   H2510     1.0  0.96664  0.20281  0.98836  1.0000
  C   C3136     1.0  0.71601  0.46983  0.03718  1.0000
  H   H2511     1.0  0.74799  0.47711  0.04178  1.0000
  C   C3137     1.0  0.76143  0.47031  0.16490  1.0000
  H   H2512     1.0  0.89145  0.20140  0.09186  1.0000
  H   H2513     1.0  0.88198  0.22364  0.11054  1.0000
  H   H2514     1.0  0.89264  0.26355  0.10727  1.0000
  H   H2515     1.0  0.91246  0.28122  0.08558  1.0000
  H   H2516     1.0  0.91049  0.21920  0.06983  1.0000
  H   H2517     1.0  0.90170  0.31197  0.05079  1.0000
  H   H2518     1.0  0.90732  0.35143  0.05228  1.0000
  C   C3138     1.0  0.67437  0.05115  0.10463  1.0000
  S   S448      1.0  0.85274  0.10024  0.98554  1.0000
  H   H2519     1.0  0.84637  0.44889  0.20266  1.0000
  H   H2520     1.0  0.93348  0.24281  0.03576  1.0000
  H   H2521     1.0  0.90608  0.24192  0.02111  1.0000
  H   H2522     1.0  0.86471  0.26243  0.02500  1.0000
  H   H2523     1.0  0.85044  0.28319  0.04424  1.0000
  H   H2524     1.0  0.87711  0.28290  0.05970  1.0000
  C   C3139     1.0  0.65656  0.03513  0.16839  1.0000
  H   H2525     1.0  0.72222  0.39133  0.17724  1.0000
  C   C3140     1.0  0.96578  0.22773  0.06353  1.0000
  C   C3141     1.0  0.84422  0.19893  0.08938  1.0000
  C   C3142     1.0  0.85327  0.20488  0.07598  1.0000
  C   C3143     1.0  0.84948  0.22835  0.06968  1.0000
  C   C3144     1.0  0.83658  0.24589  0.07678  1.0000
  C   C3145     1.0  0.82806  0.24017  0.09038  1.0000
  C   C3146     1.0  0.83191  0.21647  0.09661  1.0000
  P   P105      1.0  0.80986  0.26259  0.09928  1.0000
  C   C3147     1.0  0.79883  0.24869  0.11588  1.0000
  C   C3148     1.0  0.82533  0.28594  0.10018  1.0000
  C   C3149     1.0  0.84657  0.28965  0.09161  1.0000
  C   C3150     1.0  0.85740  0.30867  0.09196  1.0000
  C   C3151     1.0  0.84732  0.32396  0.10098  1.0000
  C   C3152     1.0  0.82628  0.32036  0.10958  1.0000
  C   C3153     1.0  0.81527  0.30151  0.10917  1.0000
  C   C3154     1.0  0.77958  0.23655  0.11828  1.0000
  C   C3155     1.0  0.77181  0.22491  0.13100  1.0000
  C   C3156     1.0  0.78317  0.22525  0.14143  1.0000
  C   C3157     1.0  0.80256  0.23698  0.13912  1.0000
  C   C3158     1.0  0.81053  0.24844  0.12638  1.0000
  C   C3159     1.0  0.78542  0.27483  0.09053  1.0000
  C   C3160     1.0  0.77685  0.29918  0.08864  1.0000
  C   C3161     1.0  0.75819  0.30843  0.08169  1.0000
  C   C3162     1.0  0.74762  0.29344  0.07680  1.0000
  C   C3163     1.0  0.75580  0.26917  0.07876  1.0000
  C   C3164     1.0  0.77490  0.25993  0.08537  1.0000
  H   H2526     1.0  0.84628  0.18061  0.09414  1.0000
  H   H2527     1.0  0.86269  0.19119  0.07041  1.0000
  H   H2528     1.0  0.85590  0.23279  0.05918  1.0000
  H   H2529     1.0  0.83290  0.26384  0.07161  1.0000
  H   H2530     1.0  0.82488  0.21121  0.10694  1.0000
  H   H2531     1.0  0.85463  0.27835  0.08443  1.0000
  H   H2532     1.0  0.87308  0.31222  0.08487  1.0000
  H   H2533     1.0  0.85513  0.33930  0.10088  1.0000
  H   H2534     1.0  0.81793  0.33289  0.11614  1.0000
  H   H2535     1.0  0.79843  0.29961  0.11556  1.0000
  H   H2536     1.0  0.77049  0.23592  0.11040  1.0000
  H   H2537     1.0  0.75688  0.21568  0.13275  1.0000
  H   H2538     1.0  0.77696  0.21636  0.15129  1.0000
  H   H2539     1.0  0.81143  0.23718  0.14720  1.0000
  H   H2540     1.0  0.82585  0.25703  0.12476  1.0000
  H   H2541     1.0  0.78419  0.31120  0.09259  1.0000
  H   H2542     1.0  0.75140  0.32717  0.08052  1.0000
  H   H2543     1.0  0.73250  0.30059  0.07194  1.0000
  H   H2544     1.0  0.74697  0.25742  0.07546  1.0000
  H   H2545     1.0  0.78106  0.24108  0.08671  1.0000
  C   C3165     1.0  0.70378  0.06631  0.04715  1.0000
  C   C3166     1.0  0.69972  0.05308  0.05980  1.0000
  C   C3167     1.0  0.71480  0.05212  0.06871  1.0000
  C   C3168     1.0  0.73415  0.06416  0.06493  1.0000
  C   C3169     1.0  0.73849  0.07734  0.05216  1.0000
  C   C3170     1.0  0.72301  0.07849  0.04335  1.0000
  P   P106      1.0  0.76262  0.09408  0.04719  1.0000
  C   C3171     1.0  0.74967  0.12457  0.04233  1.0000
  C   C3172     1.0  0.77702  0.09239  0.06117  1.0000
  C   C3173     1.0  0.76621  0.10540  0.07129  1.0000
  C   C3174     1.0  0.77766  0.10465  0.08189  1.0000
  C   C3175     1.0  0.80006  0.09123  0.08238  1.0000
  C   C3176     1.0  0.81069  0.07779  0.07255  1.0000
  C   C3177     1.0  0.79909  0.07803  0.06210  1.0000
  C   C3178     1.0  0.76196  0.14002  0.03252  1.0000
  C   C3179     1.0  0.75176  0.16361  0.02916  1.0000
  C   C3180     1.0  0.72921  0.17201  0.03555  1.0000
  C   C3181     1.0  0.71681  0.15679  0.04528  1.0000
  C   C3182     1.0  0.72694  0.13321  0.04861  1.0000
  C   C3183     1.0  0.78439  0.08329  0.03387  1.0000
  C   C3184     1.0  0.78075  0.06536  0.02777  1.0000
  C   C3185     1.0  0.79804  0.05691  0.01770  1.0000
  C   C3186     1.0  0.81906  0.06619  0.01369  1.0000
  C   C3187     1.0  0.82303  0.08361  0.01989  1.0000
  C   C3188     1.0  0.80586  0.09207  0.02994  1.0000
  H   H2546     1.0  0.69183  0.06712  0.04037  1.0000
  C   C3189     1.0  0.96055  0.21205  0.01515  1.0000
  H   H2547     1.0  0.71122  0.04232  0.07860  1.0000
  H   H2548     1.0  0.74536  0.06344  0.07207  1.0000
  H   H2549     1.0  0.72584  0.08891  0.03355  1.0000
  H   H2550     1.0  0.74917  0.11651  0.07093  1.0000
  H   H2551     1.0  0.76971  0.11546  0.08936  1.0000
  H   H2552     1.0  0.80945  0.09175  0.09018  1.0000
  H   H2553     1.0  0.82830  0.06778  0.07276  1.0000
  H   H2554     1.0  0.80781  0.06743  0.05464  1.0000
  H   H2555     1.0  0.77945  0.13420  0.02744  1.0000
  H   H2556     1.0  0.76149  0.17540  0.02166  1.0000
  H   H2557     1.0  0.72140  0.19032  0.03302  1.0000
  H   H2558     1.0  0.69944  0.16322  0.05043  1.0000
  H   H2559     1.0  0.71709  0.12184  0.05628  1.0000
  H   H2560     1.0  0.76477  0.05773  0.03072  1.0000
  H   H2561     1.0  0.79509  0.04333  0.01289  1.0000
  H   H2562     1.0  0.83235  0.05996  0.00577  1.0000
  H   H2563     1.0  0.83947  0.09064  0.01686  1.0000
  H   H2564     1.0  0.80957  0.10528  0.03478  1.0000
  H   H2565     1.0  0.94037  0.35674  0.06232  1.0000
  P   P107      1.0  0.72925  0.44170  0.03227  1.0000
  H   H2566     1.0  0.71545  0.40289  0.02271  1.0000
  H   H2567     1.0  0.79650  0.39236  0.16520  1.0000
  H   H2568     1.0  0.76082  0.00645  0.07663  1.0000
  H   H2569     1.0  0.76535  0.41547  0.98953  1.0000
  C   C3190     1.0  0.67637  0.39031  0.05087  1.0000
  H   H2570     1.0  0.80551  0.45737  0.99506  1.0000
  C   C3191     1.0  0.66879  0.16270  0.18754  1.0000
  H   H2571     1.0  0.75986  0.07583  0.98092  1.0000
  H   H2572     1.0  0.84623  0.40723  0.21368  1.0000
  C   C3192     1.0  0.78894  0.42151  0.20873  1.0000
  H   H2573     1.0  0.73964  0.41762  0.05850  1.0000
  H   H2574     1.0  0.68654  0.09681  0.07377  1.0000
  C   C3193     1.0  0.66082  0.04997  0.09530  1.0000
  C   C3194     1.0  0.80999  0.45470  0.20022  1.0000
  C   C3195     1.0  0.78930  0.44498  0.20244  1.0000
  C   C3196     1.0  0.76175  0.40037  0.19486  1.0000
  C   C3197     1.0  0.74017  0.39747  0.19202  1.0000
  C   C3198     1.0  0.73900  0.39273  0.17963  1.0000
  C   C3199     1.0  0.75935  0.39064  0.17004  1.0000
  C   C3200     1.0  0.78090  0.39334  0.17280  1.0000
  C   C3201     1.0  0.95336  0.31945  0.06665  1.0000
  H   H2575     1.0  0.76306  0.25588  0.98141  1.0000
  H   H2576     1.0  0.66994  0.18039  0.18225  1.0000
  H   H2577     1.0  0.68187  0.47721  0.22259  1.0000
  H   H2578     1.0  0.96797  0.32183  0.07088  1.0000
  H   H2579     1.0  0.84106  0.39767  0.97697  1.0000
  H   H2580     1.0  0.75164  0.36050  0.21270  1.0000
  C   C3202     1.0  0.68947  0.38887  0.03823  1.0000
  H   H2581     1.0  0.77387  0.45577  0.19895  1.0000
  H   H2582     1.0  0.76966  0.08891  0.20694  1.0000
  C   C3203     1.0  0.65949  0.11402  0.03177  1.0000
  C   C3204     1.0  0.66239  0.43273  0.09221  1.0000
  H   H2583     1.0  0.66623  0.41629  0.09884  1.0000
  C   C3205     1.0  0.68508  0.12645  0.20064  1.0000
  C   C3206     1.0  0.68227  0.02521  0.01192  1.0000
  H   H2584     1.0  0.95380  0.31456  0.01032  1.0000
  S   S449      1.0  0.84035  0.41688  0.00089  1.0000
  C   C3207     1.0  0.70556  0.40434  0.03249  1.0000
  S   S450      1.0  0.66096  0.00422  0.20128  1.0000
  C   C3208     1.0  0.75880  0.02124  0.13689  1.0000
  H   H2585     1.0  0.69468  0.01377  0.01771  1.0000
  C   C3209     1.0  0.71704  0.18565  0.17922  1.0000
  C   C3210     1.0  0.72303  0.20646  0.18134  1.0000
  C   C3211     1.0  0.68088  0.44353  0.08434  1.0000
  H   H2586     1.0  0.97311  0.17102  0.04187  1.0000
  H   H2587     1.0  0.79895  0.40072  0.18695  1.0000
  H   H2588     1.0  0.77139  0.01120  0.16816  1.0000
  H   H2589     1.0  0.75024  0.99441  0.12790  1.0000
  C   C3212     1.0  0.72454  0.22583  0.17106  1.0000
  Fe  Fe226     1.0  0.70201  0.05633  0.22015  1.0000
  C   C3213     1.0  0.95687  0.19540  0.02665  1.0000
  H   H2590     1.0  0.68716  0.37577  0.03287  1.0000
  C   C3214     1.0  0.70861  0.46400  0.20724  1.0000
  C   C3215     1.0  0.82496  0.42653  0.98729  1.0000
  C   C3216     1.0  0.80877  0.44774  0.98693  1.0000
  H   H2591     1.0  0.72329  0.46615  0.09362  1.0000
  C   C3217     1.0  0.71269  0.18459  0.16668  1.0000
  Fe  Fe227     1.0  0.73652  0.01037  0.21970  1.0000
  C   C3218     1.0  0.72010  0.22458  0.15862  1.0000
  H   H2592     1.0  0.97969  0.12258  0.03548  1.0000
  H   H2593     1.0  0.70790  0.16881  0.16486  1.0000
  C   C3219     1.0  0.80208  0.05069  0.12236  1.0000
  H   H2594     1.0  0.66919  0.10838  0.13232  1.0000
  C   C3220     1.0  0.66005  0.01701  0.14903  1.0000
  C   C3221     1.0  0.76039  0.02447  0.00279  1.0000
  C   C3222     1.0  0.71425  0.20391  0.15643  1.0000
  C   C3223     1.0  0.77688  0.03484  0.09789  1.0000
  H   H2595     1.0  0.68987  0.10619  0.10940  1.0000
  C   C3224     1.0  0.73993  0.01320  0.09535  1.0000
  H   H2596     1.0  0.68471  0.04376  0.06268  1.0000
  C   C3225     1.0  0.72323  0.46453  0.00662  1.0000
  H   H2597     1.0  0.71070  0.20282  0.14681  1.0000
  H   H2598     1.0  0.73780  0.01959  0.02177  1.0000
  C   C3226     1.0  0.75659  0.43069  0.03865  1.0000
  H   H2599     1.0  0.83896  0.05906  0.98044  1.0000
  H   H2600     1.0  0.76893  0.00621  0.00368  1.0000
  C   C3227     1.0  0.73519  0.17044  0.21202  1.0000
  C   C3228     1.0  0.76266  0.98514  0.15893  1.0000
  C   C3229     1.0  0.69496  0.01739  0.15813  1.0000
  C   C3230     1.0  0.77850  0.43350  0.03053  1.0000
  C   C3231     1.0  0.65513  0.15127  0.07646  1.0000
  C   C3232     1.0  0.76668  0.04045  0.99137  1.0000
  C   C3233     1.0  0.75618  0.41958  0.05189  1.0000
  Fe  Fe228     1.0  0.69207  0.01641  0.20698  1.0000
  C   C3234     1.0  0.74954  0.42696  0.00813  1.0000
  H   H2601     1.0  0.68770  0.06248  0.10193  1.0000
  C   C3235     1.0  0.97524  0.37243  0.01779  1.0000
  C   C3236     1.0  0.66397  0.11783  0.20199  1.0000
  C   C3237     1.0  0.68516  0.09577  0.13057  1.0000
  C   C3238     1.0  0.69686  0.09452  0.11765  1.0000
  H   H2602     1.0  0.65964  0.13445  0.15301  1.0000
  H   H2603     1.0  0.81034  0.38946  0.21698  1.0000
  C   C3239     1.0  0.67209  0.11141  0.07328  1.0000
  C   C3240     1.0  0.73165  0.05550  0.01169  1.0000
  H   H2604     1.0  0.71824  0.06077  0.01971  1.0000
  H   H2605     1.0  0.65638  0.16754  0.07939  1.0000
  C   C3241     1.0  0.67984  0.45509  0.12378  1.0000
  C   C3242     1.0  0.96866  0.28161  0.00352  1.0000
  C   C3243     1.0  0.97310  0.36220  0.03115  1.0000
  C   C3244     1.0  0.69565  0.47110  0.11908  1.0000
  C   C3245     1.0  0.68096  0.02928  0.16799  1.0000
  H   H2606     1.0  0.79310  0.45563  0.15279  1.0000
  C   C3246     1.0  0.69450  0.08129  0.14123  1.0000
  H   H2607     1.0  0.68577  0.08269  0.15128  1.0000
  C   C3247     1.0  0.73845  0.02331  0.10654  1.0000
  H   H2608     1.0  0.66357  0.06038  0.08548  1.0000
  H   H2609     1.0  0.72105  0.23966  0.15070  1.0000
  C   C3248     1.0  0.98330  0.21739  0.00992  1.0000
  C   C3249     1.0  0.71796  0.07879  0.11537  1.0000
  H   H2610     1.0  0.72714  0.07863  0.10529  1.0000
  C   C3250     1.0  0.75711  0.03380  0.10803  1.0000
  C   C3251     1.0  0.71410  0.10944  0.98218  1.0000
  C   C3252     1.0  0.67025  0.03823  0.11745  1.0000
  C   C3253     1.0  0.75481  0.99853  0.13654  1.0000
  C   C3254     1.0  0.73751  0.07160  0.00012  1.0000
  C   C3255     1.0  0.73823  0.14574  0.99440  1.0000
  C   C3256     1.0  0.73659  0.42955  0.21443  1.0000
  C   C3257     1.0  0.75469  0.16059  0.99344  1.0000
  C   C3258     1.0  0.78398  0.12665  0.99907  1.0000
  C   C3259     1.0  0.71566  0.06565  0.13900  1.0000
  H   H2611     1.0  0.77318  0.09298  0.00227  1.0000
  H   H2612     1.0  0.75699  0.09622  0.11735  1.0000
  H   H2613     1.0  0.71244  0.46732  0.12255  1.0000
  C   C3260     1.0  0.72752  0.06419  0.12605  1.0000
  H   H2614     1.0  0.80197  0.11922  0.00046  1.0000
  H   H2615     1.0  0.75179  0.45291  0.07482  1.0000
  C   C3261     1.0  0.83030  0.41780  0.21059  1.0000
  H   H2616     1.0  0.75191  0.16719  0.20546  1.0000
  H   H2617     1.0  0.95177  0.27879  0.00193  1.0000
  H   H2618     1.0  0.77950  0.44250  0.02038  1.0000
  H   H2619     1.0  0.76833  0.04275  0.14887  1.0000
  H   H2620     1.0  0.70662  0.45839  0.16513  1.0000
  H   H2621     1.0  0.68116  0.46826  0.03369  1.0000
  C   C3262     1.0  0.75509  0.06382  0.98996  1.0000
  H   H2622     1.0  0.68222  0.07823  0.00904  1.0000
  H   H2623     1.0  0.97277  0.08667  0.00085  1.0000
  C   C3263     1.0  0.82819  0.07416  0.97559  1.0000
  H   H2624     1.0  0.72296  0.05535  0.14747  1.0000
  C   C3264     1.0  0.75329  0.42894  0.99437  1.0000
  C   C3265     1.0  0.76754  0.11177  0.00009  1.0000
  H   H2625     1.0  0.94568  0.22045  0.01027  1.0000
  C   C3266     1.0  0.74447  0.12118  0.99783  1.0000
  C   C3267     1.0  0.77902  0.06217  0.12111  1.0000
  C   C3268     1.0  0.69260  0.17290  0.21696  1.0000
  C   C3269     1.0  0.76513  0.02546  0.14832  1.0000
  C   C3270     1.0  0.76694  0.00754  0.15929  1.0000
  C   C3271     1.0  0.81560  0.08843  0.11802  1.0000
  H   H2626     1.0  0.95563  0.22116  0.07291  1.0000
  C   C3272     1.0  0.77760  0.15103  0.99574  1.0000
  C   C3273     1.0  0.95940  0.21989  0.98328  1.0000
  C   C3274     1.0  0.96954  0.30163  0.00860  1.0000
  H   H2627     1.0  0.83804  0.05487  0.12181  1.0000
  P   P108      1.0  0.72336  0.10215  0.99823  1.0000
  H   H2628     1.0  0.72414  0.39942  0.19925  1.0000
  H   H2629     1.0  0.71004  0.13537  0.01761  1.0000
  C   C3275     1.0  0.69651  0.12454  0.01912  1.0000
  C   C3276     1.0  0.68073  0.09269  0.01430  1.0000
  H   H2630     1.0  0.72570  0.00463  0.09443  1.0000
  H   H2631     1.0  0.68066  0.09635  0.98852  1.0000
  C   C3277     1.0  0.65677  0.98029  0.19419  1.0000
  H   H2632     1.0  0.79140  0.04308  0.09863  1.0000
  C   C3278     1.0  0.72847  0.44710  0.20434  1.0000
  C   C3279     1.0  0.72711  0.46642  0.99286  1.0000
  H   H2633     1.0  0.78020  0.03465  0.98345  1.0000
  H   H2634     1.0  0.85036  0.29920  0.99698  1.0000
  H   H2635     1.0  0.72299  0.02246  0.11421  1.0000
  C   C3280     1.0  0.67937  0.40720  0.05778  1.0000
  H   H2636     1.0  0.71377  0.01249  0.15807  1.0000
  C   C3281     1.0  0.70852  0.42151  0.03934  1.0000
  H   H2637     1.0  0.75852  0.41159  0.01387  1.0000
  C   C3282     1.0  0.79271  0.09996  0.11678  1.0000
  H   H2638     1.0  0.84032  0.47688  0.98460  1.0000
  H   H2639     1.0  0.78907  0.11908  0.11457  1.0000
  C   C3283     1.0  0.69253  0.10447  0.98043  1.0000
  H   H2640     1.0  0.93949  0.19062  0.03035  1.0000
  C   C3284     1.0  0.96640  0.24063  0.98482  1.0000
  H   H2641     1.0  0.73679  0.12156  0.21048  1.0000
  H   H2642     1.0  0.96205  0.28172  0.06991  1.0000
  H   H2643     1.0  0.69759  0.43552  0.05757  1.0000
  H   H2644     1.0  0.67582  0.14135  0.03526  1.0000
  C   C3285     1.0  0.69667  0.46353  0.22024  1.0000
  H   H2645     1.0  0.81528  0.40604  0.05232  1.0000
  H   H2646     1.0  0.82967  0.09863  0.11678  1.0000
  H   H2647     1.0  0.96355  0.27137  0.03656  1.0000
  C   C3286     1.0  0.69539  0.42265  0.05205  1.0000
  C   C3287     1.0  0.79896  0.41310  0.04855  1.0000
  H   H2648     1.0  0.77684  0.40226  0.06704  1.0000
  C   C3288     1.0  0.82029  0.06380  0.12081  1.0000
  C   C3289     1.0  0.77728  0.41086  0.05681  1.0000
  C   C3290     1.0  0.79956  0.42444  0.03543  1.0000
  H   H2649     1.0  0.81641  0.42605  0.02898  1.0000
  H   H2650     1.0  0.80598  0.03162  0.12455  1.0000
  C   C3291     1.0  0.77452  0.08690  0.11829  1.0000
  H   H2651     1.0  0.91385  0.24815  0.99610  1.0000
  H   H2652     1.0  0.66940  0.40838  0.06763  1.0000
  H   H2653     1.0  0.69902  0.11563  0.20557  1.0000
  C   C3292     1.0  0.93781  0.33913  0.06186  1.0000
  C   C3293     1.0  0.68461  0.01133  0.14864  1.0000
  H   H2654     1.0  0.68890  0.03340  0.17556  1.0000
  C   C3294     1.0  0.69190  0.47832  0.03692  1.0000
  H   H2655     1.0  0.72895  0.24194  0.17275  1.0000
  C   C3295     1.0  0.97574  0.18442  0.03317  1.0000
  C   C3296     1.0  0.86228  0.47771  0.99845  1.0000
  C   C3297     1.0  0.73440  0.44472  0.01440  1.0000
  P   P109      1.0  0.76279  0.40834  0.21051  1.0000
  H   H2656     1.0  0.79337  0.02606  0.07877  1.0000
  H   H2657     1.0  0.68053  0.03990  0.12459  1.0000
  H   H2658     1.0  0.93683  0.20495  0.97452  1.0000
  C   C3298     1.0  0.79679  0.45666  0.97612  1.0000
  C   C3299     1.0  0.75694  0.36179  0.22180  1.0000
  C   C3300     1.0  0.98246  0.13047  0.02514  1.0000
  C   C3301     1.0  0.83099  0.09703  0.97656  1.0000
  H   H2659     1.0  0.78455  0.47309  0.97595  1.0000
  H   H2660     1.0  0.69011  0.47294  0.06943  1.0000
  C   C3302     1.0  0.74992  0.47092  0.07642  1.0000
  C   C3303     1.0  0.95722  0.26233  0.97773  1.0000
  C   C3304     1.0  0.75669  0.98061  0.14754  1.0000
  H   H2661     1.0  0.67074  0.47454  0.14900  1.0000
  C   C3305     1.0  0.65840  0.45904  0.11920  1.0000
  H   H2662     1.0  0.66157  0.47238  0.17331  1.0000
  C   C3306     1.0  0.66133  0.09633  0.02434  1.0000
  H   H2663     1.0  0.81020  0.47267  0.19505  1.0000
  C   C3307     1.0  0.82867  0.41400  0.97683  1.0000
  S   S451      1.0  0.67684  0.04732  0.97299  1.0000
  C   C3308     1.0  0.66015  0.38456  0.43478  1.0000
  H   H2664     1.0  0.78562  0.09009  0.41160  1.0000
  C   C3309     1.0  0.90652  0.04690  0.36816  1.0000
  C   C3310     1.0  0.65488  0.08439  0.43686  1.0000
  H   H2665     1.0  0.68882  0.40779  0.26146  1.0000
  H   H2666     1.0  0.73047  0.41637  0.23555  1.0000
  C   C3311     1.0  0.96898  0.01069  0.35498  1.0000
  C   C3312     1.0  0.72343  0.08232  0.30402  1.0000
  Fe  Fe229     1.0  0.76423  0.00899  0.44613  1.0000
  S   S452      1.0  0.77372  0.04170  0.45017  1.0000
  C   C3313     1.0  0.66946  0.26715  0.30681  1.0000
  C   C3314     1.0  0.81845  0.03467  0.40062  1.0000
  Fe  Fe230     1.0  0.73427  0.05471  0.45317  1.0000
  S   S453      1.0  0.71870  0.09188  0.44402  1.0000
  C   C3315     1.0  0.69972  0.39484  0.37698  1.0000
  S   S454      1.0  0.72516  0.02288  0.44782  1.0000
  S   S455      1.0  0.89877  0.00825  0.32288  1.0000
  H   H2667     1.0  0.78180  0.00901  0.34511  1.0000
  S   S456      1.0  0.87737  0.04889  0.34100  1.0000
  C   C3316     1.0  0.98163  0.99160  0.41160  1.0000
  Fe  Fe231     1.0  0.86455  0.03268  0.32676  1.0000
  S   S457      1.0  0.84796  0.05157  0.30900  1.0000
  Fe  Fe232     1.0  0.91054  0.02200  0.33859  1.0000
  S   S458      1.0  0.94698  0.03336  0.33355  1.0000
  S   S459      1.0  0.84680  0.00664  0.34243  1.0000
  C   C3317     1.0  0.81549  0.43366  0.28192  1.0000
  C   C3318     1.0  0.81538  0.47737  0.45647  1.0000
  S   S460      1.0  0.68603  0.08495  0.23291  1.0000
  Fe  Fe233     1.0  0.74790  0.15957  0.30196  1.0000
  S   S461      1.0  0.71814  0.14835  0.29559  1.0000
  S   S462      1.0  0.76620  0.13781  0.31849  1.0000
  Fe  Fe234     1.0  0.74300  0.20787  0.28397  1.0000
  S   S463      1.0  0.71347  0.19994  0.27556  1.0000
  S   S464      1.0  0.75730  0.24276  0.27758  1.0000
  Fe  Fe235     1.0  0.69971  0.18548  0.29675  1.0000
  C   C3319     1.0  0.71361  0.17988  0.23310  1.0000
  Fe  Fe236     1.0  0.73426  0.16324  0.27495  1.0000
  S   S465      1.0  0.74395  0.14153  0.25810  1.0000
  S   S466      1.0  0.72795  0.19540  0.30502  1.0000
  S   S467      1.0  0.76533  0.17255  0.28144  1.0000
  Fe  Fe237     1.0  0.72797  0.40867  0.31470  1.0000
  S   S468      1.0  0.75041  0.37818  0.32530  1.0000
  S   S469      1.0  0.69750  0.43148  0.32552  1.0000
  Fe  Fe238     1.0  0.75784  0.40331  0.28785  1.0000
  S   S470      1.0  0.78251  0.37208  0.29651  1.0000
  S   S471      1.0  0.76743  0.41526  0.26575  1.0000
  Fe  Fe239     1.0  0.74954  0.35950  0.30855  1.0000
  S   S472      1.0  0.74029  0.32213  0.31393  1.0000
  Fe  Fe240     1.0  0.78114  0.39362  0.31229  1.0000
  S   S473      1.0  0.81404  0.39558  0.32022  1.0000
  S   S474      1.0  0.72485  0.38937  0.29883  1.0000
  S   S475      1.0  0.75876  0.42539  0.30281  1.0000
  Fe  Fe241     1.0  0.86206  0.02086  0.35671  1.0000
  C   C3320     1.0  0.68074  0.41616  0.33930  1.0000
  Fe  Fe242     1.0  0.72259  0.00793  0.46958  1.0000
  H   H2668     1.0  0.77831  0.00942  0.25919  1.0000
  H   H2669     1.0  0.73807  0.01921  0.34736  1.0000
  C   C3321     1.0  0.88074  0.06783  0.38469  1.0000
  C   C3322     1.0  0.68489  0.39154  0.34199  1.0000
  H   H2670     1.0  0.83106  0.99712  0.22738  1.0000
  H   H2671     1.0  0.73525  0.13042  0.45928  1.0000
  H   H2672     1.0  0.69854  0.38176  0.33564  1.0000
  C   C3323     1.0  0.75270  0.44135  0.25722  1.0000
  C   C3324     1.0  0.73215  0.45447  0.26323  1.0000
  C   C3325     1.0  0.93512  0.99843  0.40669  1.0000
  H   H2673     1.0  0.65626  0.07152  0.25972  1.0000
  C   C3326     1.0  0.75741  0.34217  0.23196  1.0000
  C   C3327     1.0  0.76147  0.44850  0.24382  1.0000
  H   H2674     1.0  0.72518  0.44907  0.27356  1.0000
  H   H2675     1.0  0.65723  0.34680  0.26233  1.0000
  C   C3328     1.0  0.65678  0.27854  0.34775  1.0000
  H   H2676     1.0  0.77737  0.43860  0.23907  1.0000
  C   C3329     1.0  0.76430  0.34326  0.24381  1.0000
  C   C3330     1.0  0.66578  0.15842  0.32568  1.0000
  H   H2677     1.0  0.69393  0.30526  0.27394  1.0000
  P   P110      1.0  0.66566  0.18274  0.44381  1.0000
  C   C3331     1.0  0.71325  0.41807  0.44497  1.0000
  H   H2678     1.0  0.77366  0.29041  0.43178  1.0000
  C   C3332     1.0  0.78265  0.01759  0.36400  1.0000
  H   H2679     1.0  0.71376  0.18802  0.42975  1.0000
  H   H2680     1.0  0.81104  0.02375  0.24312  1.0000
  C   C3333     1.0  0.75258  0.26466  0.28782  1.0000
  C   C3334     1.0  0.76233  0.28547  0.28300  1.0000
  C   C3335     1.0  0.75896  0.30319  0.29085  1.0000
  C   C3336     1.0  0.74560  0.30034  0.30360  1.0000
  C   C3337     1.0  0.73599  0.27949  0.30843  1.0000
  C   C3338     1.0  0.73945  0.26177  0.30062  1.0000
  H   H2681     1.0  0.77265  0.28786  0.27315  1.0000
  H   H2682     1.0  0.76675  0.31898  0.28708  1.0000
  H   H2683     1.0  0.72577  0.27702  0.31828  1.0000
  H   H2684     1.0  0.73191  0.24589  0.30450  1.0000
  C   C3339     1.0  0.70241  0.10033  0.23997  1.0000
  C   C3340     1.0  0.69036  0.11525  0.24902  1.0000
  C   C3341     1.0  0.70272  0.12777  0.25479  1.0000
  C   C3342     1.0  0.72733  0.12573  0.25146  1.0000
  C   C3343     1.0  0.73934  0.11097  0.24233  1.0000
  C   C3344     1.0  0.72703  0.09818  0.23673  1.0000
  C   C3345     1.0  0.88829  0.01762  0.42749  1.0000
  H   H2685     1.0  0.69318  0.13938  0.26157  1.0000
  H   H2686     1.0  0.75836  0.10921  0.23966  1.0000
  H   H2687     1.0  0.67504  0.10253  0.36452  1.0000
  C   C3346     1.0  0.82546  0.07564  0.31158  1.0000
  C   C3347     1.0  0.81792  0.08171  0.32415  1.0000
  C   C3348     1.0  0.79992  0.10097  0.32607  1.0000
  C   C3349     1.0  0.78926  0.11423  0.31549  1.0000
  C   C3350     1.0  0.79692  0.10828  0.30286  1.0000
  C   C3351     1.0  0.81490  0.08888  0.30093  1.0000
  H   H2688     1.0  0.82599  0.07156  0.33239  1.0000
  H   H2689     1.0  0.79426  0.10543  0.33584  1.0000
  H   H2690     1.0  0.78878  0.11843  0.29465  1.0000
  H   H2691     1.0  0.82072  0.08413  0.29119  1.0000
  C   C3352     1.0  0.69192  0.09637  0.43773  1.0000
  C   C3353     1.0  0.68522  0.11760  0.42938  1.0000
  C   C3354     1.0  0.75220  0.06943  0.27078  1.0000
  H   H2692     1.0  0.73964  0.35873  0.44002  1.0000
  H   H2693     1.0  0.65858  0.38393  0.27396  1.0000
  C   C3355     1.0  0.68091  0.30833  0.35575  1.0000
  H   H2694     1.0  0.69654  0.13085  0.42664  1.0000
  H   H2695     1.0  0.82220  0.05238  0.39933  1.0000
  C   C3356     1.0  0.68793  0.17357  0.45433  1.0000
  S   S476      1.0  0.68434  0.47454  0.45877  1.0000
  C   C3357     1.0  0.76940  0.02586  0.37530  1.0000
  H   H2696     1.0  0.73123  0.39223  0.26144  1.0000
  C   C3358     1.0  0.66222  0.08282  0.39755  1.0000
  C   C3359     1.0  0.68221  0.05527  0.28732  1.0000
  H   H2697     1.0  0.79020  0.09178  0.38733  1.0000
  C   C3360     1.0  0.83760  0.46429  0.32353  1.0000
  C   C3361     1.0  0.81621  0.46507  0.31920  1.0000
  C   C3362     1.0  0.80850  0.44422  0.31840  1.0000
  C   C3363     1.0  0.82219  0.42228  0.32188  1.0000
  C   C3364     1.0  0.84317  0.42144  0.32665  1.0000
  C   C3365     1.0  0.85081  0.44233  0.32753  1.0000
  H   H2698     1.0  0.73242  0.45050  0.41537  1.0000
  H   H2699     1.0  0.79225  0.44520  0.31479  1.0000
  H   H2700     1.0  0.85383  0.40456  0.32942  1.0000
  H   H2701     1.0  0.86725  0.44143  0.33094  1.0000
  H   H2702     1.0  0.68460  0.32968  0.42806  1.0000
  C   C3366     1.0  0.66970  0.46706  0.44711  1.0000
  C   C3367     1.0  0.76231  0.07179  0.38896  1.0000
  H   H2703     1.0  0.67131  0.11718  0.25156  1.0000
  C   C3368     1.0  0.74255  0.05908  0.41120  1.0000
  C   C3369     1.0  0.67678  0.07960  0.44128  1.0000
  C   C3370     1.0  0.67203  0.04568  0.32919  1.0000
  S   S477      1.0  0.89621  0.99492  0.35515  1.0000
  H   H2704     1.0  0.71356  0.18354  0.24285  1.0000
  C   C3371     1.0  0.69245  0.17844  0.22936  1.0000
  C   C3372     1.0  0.73495  0.17589  0.22444  1.0000
  C   C3373     1.0  0.82637  0.02177  0.39018  1.0000
  C   C3374     1.0  0.97604  0.00449  0.39958  1.0000
  C   C3375     1.0  0.83731  0.42996  0.28604  1.0000
  C   C3376     1.0  0.97064  0.02561  0.34273  1.0000
  H   H2705     1.0  0.85530  0.02421  0.28294  1.0000
  H   H2706     1.0  0.67424  0.34605  0.33413  1.0000
  C   C3377     1.0  0.66628  0.18287  0.41702  1.0000
  H   H2707     1.0  0.70787  0.19038  0.38935  1.0000
  C   C3378     1.0  0.86717  0.05692  0.27402  1.0000
  H   H2708     1.0  0.80861  0.41892  0.28017  1.0000
  H   H2709     1.0  0.74065  0.07045  0.33670  1.0000
  C   C3379     1.0  0.80214  0.45627  0.28037  1.0000
  C   C3380     1.0  0.67084  0.37948  0.35269  1.0000
  C   C3381     1.0  0.73677  0.00428  0.41044  1.0000
  H   H2710     1.0  0.75505  0.06946  0.42673  1.0000
  P   P111      1.0  0.70596  0.37327  0.42119  1.0000
  C   C3382     1.0  0.71262  0.39791  0.42695  1.0000
  C   C3383     1.0  0.72785  0.34723  0.42439  1.0000
  C   C3384     1.0  0.74155  0.34491  0.43428  1.0000
  C   C3385     1.0  0.76092  0.30622  0.42971  1.0000
  C   C3386     1.0  0.74714  0.30819  0.41999  1.0000
  C   C3387     1.0  0.73057  0.32851  0.41740  1.0000
  C   C3388     1.0  0.72135  0.41667  0.41788  1.0000
  C   C3389     1.0  0.72616  0.43582  0.42237  1.0000
  C   C3390     1.0  0.72228  0.43642  0.43591  1.0000
  C   C3391     1.0  0.70838  0.39890  0.44054  1.0000
  C   C3392     1.0  0.70397  0.38181  0.40381  1.0000
  C   C3393     1.0  0.68421  0.39747  0.39997  1.0000
  C   C3394     1.0  0.74922  0.03774  0.31119  1.0000
  H   H2711     1.0  0.69573  0.44632  0.24047  1.0000
  C   C3395     1.0  0.72001  0.38014  0.38064  1.0000
  C   C3396     1.0  0.72229  0.37388  0.39398  1.0000
  C   C3397     1.0  0.81045  0.47548  0.28299  1.0000
  C   C3398     1.0  0.83572  0.99412  0.23715  1.0000
  H   H2712     1.0  0.81499  0.44282  0.45266  1.0000
  H   H2713     1.0  0.74911  0.29387  0.41455  1.0000
  H   H2714     1.0  0.71966  0.32949  0.41004  1.0000
  H   H2715     1.0  0.72426  0.41674  0.40735  1.0000
  C   C3399     1.0  0.84173  0.45978  0.43883  1.0000
  H   H2716     1.0  0.70093  0.38506  0.44770  1.0000
  H   H2717     1.0  0.71825  0.02414  0.31043  1.0000
  H   H2718     1.0  0.76464  0.32806  0.25167  1.0000
  H   H2719     1.0  0.80167  0.01257  0.36325  1.0000
  H   H2720     1.0  0.73394  0.37375  0.37307  1.0000
  H   H2721     1.0  0.73832  0.36292  0.39655  1.0000
  C   C3400     1.0  0.86230  0.11774  0.31441  1.0000
  C   C3401     1.0  0.87582  0.09912  0.30841  1.0000
  C   C3402     1.0  0.88003  0.10119  0.29465  1.0000
  C   C3403     1.0  0.87060  0.12182  0.28687  1.0000
  C   C3404     1.0  0.85647  0.14040  0.29282  1.0000
  C   C3405     1.0  0.85289  0.13844  0.30666  1.0000
  P   P112      1.0  0.84540  0.16724  0.28247  1.0000
  C   C3406     1.0  0.87104  0.18057  0.27456  1.0000
  C   C3407     1.0  0.82978  0.16165  0.27054  1.0000
  C   C3408     1.0  0.82222  0.18029  0.26081  1.0000
  C   C3409     1.0  0.80899  0.17664  0.25191  1.0000
  C   C3410     1.0  0.80284  0.15448  0.25282  1.0000
  C   C3411     1.0  0.80987  0.13597  0.26263  1.0000
  C   C3412     1.0  0.82339  0.13947  0.27143  1.0000
  C   C3413     1.0  0.88014  0.18054  0.26109  1.0000
  C   C3414     1.0  0.90041  0.19046  0.25521  1.0000
  C   C3415     1.0  0.91184  0.20020  0.26278  1.0000
  C   C3416     1.0  0.90310  0.19990  0.27625  1.0000
  C   C3417     1.0  0.88284  0.19000  0.28215  1.0000
  C   C3418     1.0  0.82415  0.18709  0.29183  1.0000
  C   C3419     1.0  0.82461  0.21146  0.28916  1.0000
  C   C3420     1.0  0.80745  0.22669  0.29617  1.0000
  C   C3421     1.0  0.78967  0.21773  0.30578  1.0000
  C   C3422     1.0  0.78877  0.19362  0.30823  1.0000
  C   C3423     1.0  0.80577  0.17841  0.30117  1.0000
  H   H2722     1.0  0.85902  0.11595  0.32509  1.0000
  H   H2723     1.0  0.88283  0.08293  0.31441  1.0000
  H   H2724     1.0  0.89045  0.08661  0.29010  1.0000
  H   H2725     1.0  0.87424  0.12326  0.27622  1.0000
  H   H2726     1.0  0.84297  0.15276  0.31154  1.0000
  H   H2727     1.0  0.82606  0.19780  0.26030  1.0000
  H   H2728     1.0  0.80280  0.19121  0.24460  1.0000
  H   H2729     1.0  0.79188  0.15185  0.24622  1.0000
  H   H2730     1.0  0.80410  0.11914  0.26369  1.0000
  H   H2731     1.0  0.82811  0.12506  0.27914  1.0000
  H   H2732     1.0  0.87184  0.17269  0.25511  1.0000
  H   H2733     1.0  0.90735  0.19046  0.24480  1.0000
  H   H2734     1.0  0.92758  0.20780  0.25822  1.0000
  H   H2735     1.0  0.91211  0.20721  0.28215  1.0000
  H   H2736     1.0  0.87640  0.18962  0.29264  1.0000
  H   H2737     1.0  0.83776  0.21888  0.28147  1.0000
  H   H2738     1.0  0.80745  0.24555  0.29389  1.0000
  H   H2739     1.0  0.77623  0.22956  0.31108  1.0000
  H   H2740     1.0  0.77464  0.18672  0.31544  1.0000
  H   H2741     1.0  0.80446  0.15986  0.30290  1.0000
  H   H2742     1.0  0.65613  0.08474  0.28049  1.0000
  C   C3424     1.0  0.69862  0.07742  0.37600  1.0000
  H   H2743     1.0  0.66696  0.12706  0.34053  1.0000
  H   H2744     1.0  0.68609  0.02024  0.39732  1.0000
  H   H2745     1.0  0.68157  0.06324  0.44777  1.0000
  H   H2746     1.0  0.67597  0.18115  0.23618  1.0000
  C   C3425     1.0  0.71347  0.18908  0.40923  1.0000
  H   H2747     1.0  0.68872  0.10810  0.28316  1.0000
  C   C3426     1.0  0.72286  0.44211  0.36477  1.0000
  C   C3427     1.0  0.73947  0.05932  0.26411  1.0000
  C   C3428     1.0  0.77475  0.05820  0.27304  1.0000
  C   C3429     1.0  0.72052  0.01781  0.40261  1.0000
  C   C3430     1.0  0.80081  0.00199  0.41455  1.0000
  C   C3431     1.0  0.75806  0.32453  0.43687  1.0000
  C   C3432     1.0  0.69330  0.27032  0.28496  1.0000
  C   C3433     1.0  0.82180  0.99871  0.39205  1.0000
  S   S478      1.0  0.66229  0.19754  0.30626  1.0000
  S   S479      1.0  0.69751  0.01841  0.22749  1.0000
  H   H2748     1.0  0.72218  0.06824  0.26213  1.0000
  C   C3434     1.0  0.80850  0.98058  0.31346  1.0000
  C   C3435     1.0  0.81167  0.01746  0.29839  1.0000
  C   C3436     1.0  0.77418  0.08194  0.40762  1.0000
  H   H2749     1.0  0.65955  0.44772  0.34553  1.0000
  C   C3437     1.0  0.86393  0.07763  0.26482  1.0000
  H   H2750     1.0  0.76473  0.07247  0.37841  1.0000
  C   C3438     1.0  0.85212  0.04035  0.27594  1.0000
  H   H2751     1.0  0.76856  0.32290  0.44452  1.0000
  C   C3439     1.0  0.68338  0.06779  0.39939  1.0000
  C   C3440     1.0  0.69413  0.39019  0.26665  1.0000
  C   C3441     1.0  0.81147  0.00650  0.28769  1.0000
  C   C3442     1.0  0.90992  0.02688  0.37780  1.0000
  H   H2752     1.0  0.70523  0.00929  0.27061  1.0000
  H   H2753     1.0  0.81641  0.06866  0.25365  1.0000
  H   H2754     1.0  0.84342  0.09759  0.25017  1.0000
  C   C3443     1.0  0.71300  0.06227  0.30521  1.0000
  C   C3444     1.0  0.82910  0.00426  0.25915  1.0000
  C   C3445     1.0  0.89181  0.06733  0.37157  1.0000
  C   C3446     1.0  0.77005  0.38366  0.23546  1.0000
  C   C3447     1.0  0.72604  0.03991  0.30898  1.0000
  C   C3448     1.0  0.83322  0.04471  0.26894  1.0000
  C   C3449     1.0  0.66303  0.46833  0.42468  1.0000
  C   C3450     1.0  0.80567  0.02491  0.41271  1.0000
  C   C3451     1.0  0.83031  0.06537  0.25954  1.0000
  H   H2755     1.0  0.68543  0.05864  0.40928  1.0000
  C   C3452     1.0  0.77143  0.02630  0.26235  1.0000
  H   H2756     1.0  0.71446  0.03369  0.36739  1.0000
  H   H2757     1.0  0.94929  0.01793  0.38770  1.0000
  H   H2758     1.0  0.66356  0.40245  0.43303  1.0000
  H   H2759     1.0  0.72934  0.05009  0.41805  1.0000
  H   H2760     1.0  0.67104  0.23006  0.42854  1.0000
  C   C3453     1.0  0.67204  0.34378  0.43191  1.0000
  C   C3454     1.0  0.81909  0.46513  0.35577  1.0000
  C   C3455     1.0  0.79621  0.16958  0.33994  1.0000
  C   C3456     1.0  0.79387  0.19362  0.34027  1.0000
  C   C3457     1.0  0.77248  0.20566  0.34607  1.0000
  C   C3458     1.0  0.75342  0.19365  0.35153  1.0000
  C   C3459     1.0  0.75549  0.16957  0.35102  1.0000
  C   C3460     1.0  0.77714  0.15760  0.34533  1.0000
  P   P113      1.0  0.73072  0.15431  0.35828  1.0000
  C   C3461     1.0  0.73024  0.14504  0.37583  1.0000
  C   C3462     1.0  0.70447  0.17447  0.35440  1.0000
  C   C3463     1.0  0.68420  0.17817  0.36401  1.0000
  C   C3464     1.0  0.66438  0.19424  0.36068  1.0000
  C   C3465     1.0  0.66471  0.20685  0.34784  1.0000
  C   C3466     1.0  0.68480  0.20327  0.33823  1.0000
  C   C3467     1.0  0.70459  0.18716  0.34149  1.0000
  C   C3468     1.0  0.71390  0.13076  0.38320  1.0000
  C   C3469     1.0  0.71445  0.12190  0.39657  1.0000
  C   C3470     1.0  0.73140  0.12715  0.40268  1.0000
  C   C3471     1.0  0.74777  0.14131  0.39543  1.0000
  C   C3472     1.0  0.74726  0.15023  0.38204  1.0000
  C   C3473     1.0  0.73332  0.12766  0.35154  1.0000
  C   C3474     1.0  0.74978  0.10782  0.35540  1.0000
  C   C3475     1.0  0.75243  0.08727  0.35006  1.0000
  C   C3476     1.0  0.73832  0.08620  0.34100  1.0000
  C   C3477     1.0  0.72148  0.10563  0.33734  1.0000
  C   C3478     1.0  0.71900  0.12629  0.34257  1.0000
  H   H2761     1.0  0.81264  0.16024  0.33529  1.0000
  H   H2762     1.0  0.80855  0.20296  0.33589  1.0000
  H   H2763     1.0  0.77061  0.22434  0.34625  1.0000
  H   H2764     1.0  0.73698  0.20323  0.35602  1.0000
  H   H2765     1.0  0.77929  0.13916  0.34476  1.0000
  H   H2766     1.0  0.68342  0.16873  0.37402  1.0000
  C   C3479     1.0  0.74964  0.46827  0.23639  1.0000
  C   C3480     1.0  0.95291  0.00795  0.39713  1.0000
  H   H2767     1.0  0.68482  0.21249  0.32815  1.0000
  H   H2768     1.0  0.71996  0.18428  0.33391  1.0000
  H   H2769     1.0  0.70084  0.12632  0.37856  1.0000
  H   H2770     1.0  0.87580  0.09029  0.26326  1.0000
  H   H2771     1.0  0.73218  0.11978  0.41298  1.0000
  H   H2772     1.0  0.76110  0.14500  0.40018  1.0000
  H   H2773     1.0  0.76042  0.16076  0.37656  1.0000
  H   H2774     1.0  0.76104  0.10853  0.36227  1.0000
  H   H2775     1.0  0.76574  0.07232  0.35274  1.0000
  H   H2776     1.0  0.91520  0.04647  0.35801  1.0000
  H   H2777     1.0  0.77477  0.39966  0.23707  1.0000
  H   H2778     1.0  0.70632  0.14125  0.33931  1.0000
  C   C3481     1.0  0.89931  0.02733  0.39103  1.0000
  C   C3482     1.0  0.88457  0.04796  0.39442  1.0000
  C   C3483     1.0  0.74912  0.03782  0.25986  1.0000
  H   H2779     1.0  0.68898  0.23744  0.29795  1.0000
  H   H2780     1.0  0.75925  0.02045  0.31395  1.0000
  C   C3484     1.0  0.73084  0.98446  0.41952  1.0000
  C   C3485     1.0  0.68196  0.40374  0.38664  1.0000
  C   C3486     1.0  0.77670  0.08292  0.39399  1.0000
  C   C3487     1.0  0.70147  0.06436  0.38854  1.0000
  C   C3488     1.0  0.83301  0.47174  0.28647  1.0000
  H   H2781     1.0  0.84792  0.44509  0.43352  1.0000
  H   H2782     1.0  0.67042  0.40483  0.40729  1.0000
  C   C3489     1.0  0.80914  0.98887  0.40420  1.0000
  H   H2783     1.0  0.65936  0.23560  0.40687  1.0000
  H   H2784     1.0  0.70957  0.29839  0.34033  1.0000
  H   H2785     1.0  0.82774  0.98858  0.38410  1.0000
  H   H2786     1.0  0.85214  0.98223  0.27218  1.0000
  C   C3490     1.0  0.84620  0.44903  0.28816  1.0000
  C   C3491     1.0  0.81069  0.00441  0.31118  1.0000
  H   H2787     1.0  0.87572  0.04872  0.40448  1.0000
  H   H2788     1.0  0.66597  0.18539  0.39626  1.0000
  C   C3492     1.0  0.66266  0.35137  0.32685  1.0000
  H   H2789     1.0  0.72542  0.45156  0.43938  1.0000
  H   H2790     1.0  0.73946  0.03019  0.25444  1.0000
  C   C3493     1.0  0.74558  0.05921  0.39756  1.0000
  H   H2791     1.0  0.77727  0.05634  0.31174  1.0000
  H   H2792     1.0  0.69796  0.39975  0.36664  1.0000
  H   H2793     1.0  0.92099  0.01104  0.37497  1.0000
  H   H2794     1.0  0.73662  0.08667  0.22989  1.0000
  H   H2795     1.0  0.74479  0.08626  0.27391  1.0000
  H   H2796     1.0  0.78445  0.06634  0.27816  1.0000
  H   H2797     1.0  0.70560  0.14390  0.44471  1.0000
  H   H2798     1.0  0.71077  0.10502  0.33016  1.0000
  H   H2799     1.0  0.87515  0.03023  0.44603  1.0000
  C   C3494     1.0  0.83735  0.44194  0.37397  1.0000
  H   H2800     1.0  0.68459  0.05558  0.33088  1.0000
  C   C3495     1.0  0.67755  0.36659  0.43016  1.0000
  H   H2801     1.0  0.90387  0.02594  0.42546  1.0000
  C   C3496     1.0  0.65301  0.18059  0.32165  1.0000
  C   C3497     1.0  0.88430  0.00458  0.41851  1.0000
  H   H2802     1.0  0.79976  0.03502  0.42067  1.0000
  C   C3498     1.0  0.67230  0.30578  0.29334  1.0000
  C   C3499     1.0  0.77070  0.36400  0.24552  1.0000
  C   C3500     1.0  0.77780  0.39935  0.40792  1.0000
  C   C3501     1.0  0.78085  0.37501  0.41221  1.0000
  C   C3502     1.0  0.78491  0.35974  0.40304  1.0000
  C   C3503     1.0  0.78649  0.36881  0.38952  1.0000
  C   C3504     1.0  0.78384  0.39328  0.38511  1.0000
  C   C3505     1.0  0.77901  0.40849  0.39445  1.0000
  P   P114      1.0  0.78939  0.40525  0.36766  1.0000
  C   C3506     1.0  0.80848  0.42679  0.36571  1.0000
  C   C3507     1.0  0.80404  0.38200  0.35846  1.0000
  C   C3508     1.0  0.82880  0.37731  0.35540  1.0000
  C   C3509     1.0  0.83997  0.35918  0.34832  1.0000
  C   C3510     1.0  0.82653  0.34562  0.34428  1.0000
  C   C3511     1.0  0.80189  0.35004  0.34740  1.0000
  C   C3512     1.0  0.79067  0.36810  0.35450  1.0000
  C   C3513     1.0  0.80624  0.44729  0.35617  1.0000
  C   C3514     1.0  0.70323  0.18684  0.42262  1.0000
  H   H2803     1.0  0.68161  0.15164  0.31938  1.0000
  H   H2804     1.0  0.69034  0.31977  0.35888  1.0000
  C   C3515     1.0  0.82472  0.42391  0.37436  1.0000
  C   C3516     1.0  0.76264  0.41982  0.36148  1.0000
  C   C3517     1.0  0.74299  0.42983  0.36987  1.0000
  C   C3518     1.0  0.84747  0.99704  0.43293  1.0000
  P   P115      1.0  0.72804  0.04365  0.39108  1.0000
  C   C3519     1.0  0.74185  0.43486  0.34288  1.0000
  C   C3520     1.0  0.76195  0.42259  0.34791  1.0000
  H   H2805     1.0  0.77486  0.41118  0.41502  1.0000
  H   H2806     1.0  0.78035  0.36804  0.42263  1.0000
  H   H2807     1.0  0.78731  0.34085  0.40640  1.0000
  H   H2808     1.0  0.79032  0.35665  0.38257  1.0000
  H   H2809     1.0  0.77720  0.42744  0.39128  1.0000
  H   H2810     1.0  0.83954  0.38791  0.35817  1.0000
  H   H2811     1.0  0.85903  0.35612  0.34561  1.0000
  H   H2812     1.0  0.83516  0.33217  0.33839  1.0000
  H   H2813     1.0  0.79146  0.34003  0.34389  1.0000
  H   H2814     1.0  0.77156  0.37157  0.35659  1.0000
  H   H2815     1.0  0.79459  0.44970  0.34904  1.0000
  C   C3521     1.0  0.66833  0.09551  0.30210  1.0000
  H   H2816     1.0  0.95322  0.00296  0.35889  1.0000
  H   H2817     1.0  0.86301  0.44609  0.29152  1.0000
  H   H2818     1.0  0.82729  0.40802  0.38159  1.0000
  H   H2819     1.0  0.74298  0.42817  0.38032  1.0000
  C   C3522     1.0  0.69276  0.99078  0.41268  1.0000
  H   H2820     1.0  0.68423  0.32873  0.31379  1.0000
  H   H2821     1.0  0.74145  0.43685  0.33241  1.0000
  H   H2822     1.0  0.77707  0.41557  0.34115  1.0000
  C   C3523     1.0  0.68397  0.35389  0.28062  1.0000
  C   C3524     1.0  0.67743  0.09259  0.37421  1.0000
  C   C3525     1.0  0.68078  0.03964  0.26387  1.0000
  H   H2823     1.0  0.66715  0.13332  0.45810  1.0000
  C   C3526     1.0  0.74484  0.03304  0.37634  1.0000
  H   H2824     1.0  0.75396  0.00913  0.40962  1.0000
  C   C3527     1.0  0.86360  0.99452  0.42126  1.0000
  H   H2825     1.0  0.84358  0.47674  0.36469  1.0000
  C   C3528     1.0  0.68437  0.25647  0.29671  1.0000
  C   C3529     1.0  0.69181  0.29614  0.34536  1.0000
  C   C3530     1.0  0.74682  0.02143  0.35508  1.0000
  C   C3531     1.0  0.77142  0.01556  0.35382  1.0000
  H   H2826     1.0  0.66629  0.41537  0.38381  1.0000
  C   C3532     1.0  0.67652  0.18536  0.40364  1.0000
  H   H2827     1.0  0.77844  0.02663  0.38322  1.0000
  C   C3533     1.0  0.82405  0.00890  0.24623  1.0000
  H   H2828     1.0  0.71263  0.07596  0.36762  1.0000
  P   P116      1.0  0.90532  0.00166  0.40343  1.0000
  C   C3534     1.0  0.68721  0.29488  0.28323  1.0000
  H   H2829     1.0  0.88133  0.05355  0.27974  1.0000
  H   H2830     1.0  0.87329  0.99430  0.38715  1.0000
  C   C3535     1.0  0.71809  0.38142  0.26664  1.0000
  C   C3536     1.0  0.69557  0.03366  0.28448  1.0000
  C   C3537     1.0  0.66706  0.06086  0.26673  1.0000
  C   C3538     1.0  0.66283  0.42865  0.34758  1.0000
  C   C3539     1.0  0.69867  0.01057  0.40355  1.0000
  H   H2831     1.0  0.67571  0.98554  0.41358  1.0000
  C   C3540     1.0  0.85163  0.00986  0.44185  1.0000
  C   C3541     1.0  0.67487  0.11278  0.29123  1.0000
  H   H2832     1.0  0.83895  0.01189  0.45085  1.0000
  C   C3542     1.0  0.84563  0.08177  0.25750  1.0000
  S   S480      1.0  0.78465  0.98902  0.42961  1.0000
  P   P117      1.0  0.81423  0.02300  0.27107  1.0000
  H   H2833     1.0  0.85963  0.98490  0.41442  1.0000
  H   H2834     1.0  0.70506  0.26195  0.27720  1.0000
  H   H2835     1.0  0.86899  0.08351  0.38728  1.0000
  S   S481      1.0  0.89193  0.47507  0.35140  1.0000
  C   C3543     1.0  0.70805  0.34544  0.28081  1.0000
  H   H2836     1.0  0.66235  0.25625  0.31582  1.0000
  C   C3544     1.0  0.78476  0.03684  0.26854  1.0000
  H   H2837     1.0  0.67382  0.36047  0.35459  1.0000
  S   S482      1.0  0.84100  0.03576  0.37494  1.0000
  Fe  Fe243     1.0  0.88208  0.98309  0.33944  1.0000
  C   C3545     1.0  0.80842  0.98279  0.29011  1.0000
  H   H2838     1.0  0.81350  0.03586  0.29682  1.0000
  H   H2839     1.0  0.71369  0.32861  0.28668  1.0000
  H   H2840     1.0  0.68829  0.27158  0.33344  1.0000
  H   H2841     1.0  0.66684  0.47513  0.41421  1.0000
  C   C3546     1.0  0.72503  0.35911  0.27376  1.0000
  C   C3547     1.0  0.72225  0.14608  0.46070  1.0000
  H   H2842     1.0  0.74355  0.35276  0.27420  1.0000
  C   C3548     1.0  0.72224  0.44448  0.35130  1.0000
  C   C3549     1.0  0.75941  0.05788  0.30990  1.0000
  C   C3550     1.0  0.67710  0.37658  0.27371  1.0000
  H   H2843     1.0  0.83441  0.47400  0.41240  1.0000
  H   H2844     1.0  0.73176  0.19150  0.40620  1.0000
  C   C3551     1.0  0.70009  0.18841  0.39974  1.0000
  C   C3552     1.0  0.74641  0.08013  0.30640  1.0000
  C   C3553     1.0  0.75698  0.07021  0.41618  1.0000
  H   H2845     1.0  0.75396  0.09586  0.30565  1.0000
  H   H2846     1.0  0.71388  0.09977  0.30147  1.0000
  C   C3554     1.0  0.67396  0.47604  0.43355  1.0000
  H   H2847     1.0  0.75602  0.47265  0.22597  1.0000
  C   C3555     1.0  0.67977  0.28118  0.34141  1.0000
  H   H2848     1.0  0.68062  0.03400  0.25465  1.0000
  H   H2849     1.0  0.81247  0.01266  0.31923  1.0000
  C   C3556     1.0  0.84715  0.98569  0.26250  1.0000
  S   S483      1.0  0.75882  0.99086  0.23518  1.0000
  H   H2850     1.0  0.78526  0.45853  0.27719  1.0000
  H   H2851     1.0  0.88878  0.08263  0.36400  1.0000
  C   C3557     1.0  0.83421  0.46264  0.36481  1.0000
  H   H2852     1.0  0.70668  0.02274  0.29115  1.0000
  H   H2853     1.0  0.70193  0.11067  0.40217  1.0000
  H   H2854     1.0  0.70758  0.44951  0.37130  1.0000
  H   H2855     1.0  0.70651  0.45361  0.34737  1.0000
  C   C3558     1.0  0.87202  0.02018  0.43912  1.0000
  C   C3559     1.0  0.65753  0.14455  0.33766  1.0000
  C   C3560     1.0  0.67953  0.18353  0.42665  1.0000
  H   H2856     1.0  0.70931  0.41920  0.45542  1.0000
  C   C3561     1.0  0.65382  0.45084  0.45164  1.0000
  C   C3562     1.0  0.73352  0.02983  0.36639  1.0000
  H   H2857     1.0  0.84940  0.44013  0.38086  1.0000
  P   P118      1.0  0.68284  0.06511  0.30256  1.0000
  C   C3563     1.0  0.82322  0.45848  0.44959  1.0000
  C   C3564     1.0  0.70533  0.15376  0.45243  1.0000
  S   S484      1.0  0.76076  0.99102  0.46748  1.0000
  H   H2858     1.0  0.75247  0.32606  0.23063  1.0000
  C   C3565     1.0  0.66825  0.34156  0.31529  1.0000
  H   H2859     1.0  0.65876  0.13822  0.41811  1.0000
  H   H2860     1.0  0.77601  0.36505  0.25470  1.0000
  C   C3566     1.0  0.65774  0.30609  0.36196  1.0000
  C   C3567     1.0  0.69473  0.02585  0.27284  1.0000
  H   H2861     1.0  0.84715  0.41225  0.28779  1.0000
  H   H2862     1.0  0.67479  0.20111  0.46627  1.0000
  C   C3568     1.0  0.68795  0.18580  0.46455  1.0000
  H   H2863     1.0  0.66290  0.03162  0.34989  1.0000
  H   H2864     1.0  0.66907  0.14960  0.28249  1.0000
  C   C3569     1.0  0.72038  0.47447  0.25577  1.0000
  P   P119      1.0  0.66187  0.33711  0.29040  1.0000
  C   C3570     1.0  0.65642  0.23187  0.43663  1.0000
  C   C3571     1.0  0.65972  0.03220  0.33999  1.0000
  H   H2865     1.0  0.65831  0.26675  0.38304  1.0000
  C   C3572     1.0  0.66767  0.04683  0.31635  1.0000
  C   C3573     1.0  0.94095  0.98546  0.41875  1.0000
  C   C3574     1.0  0.72216  0.15830  0.47085  1.0000
  C   C3575     1.0  0.66371  0.12201  0.42460  1.0000
  C   C3576     1.0  0.66746  0.06851  0.27846  1.0000
  H   H2866     1.0  0.83156  0.98918  0.43503  1.0000
  C   C3577     1.0  0.66376  0.13625  0.29077  1.0000
  H   H2867     1.0  0.80126  0.47622  0.46493  1.0000
  H   H2868     1.0  0.71967  0.47232  0.30641  1.0000
  H   H2869     1.0  0.91236  0.97921  0.30012  1.0000
  C   C3578     1.0  0.65917  0.09511  0.38498  1.0000
  H   H2870     1.0  0.75134  0.17649  0.22754  1.0000
  C   C3579     1.0  0.70449  0.44607  0.23033  1.0000
  C   C3580     1.0  0.96409  0.98213  0.42119  1.0000
  H   H2871     1.0  0.98403  0.47697  0.31236  1.0000
  C   C3581     1.0  0.65373  0.34887  0.30560  1.0000
  Fe  Fe244     1.0  0.76812  0.02484  0.47172  1.0000
  C   C3582     1.0  0.66336  0.29173  0.30514  1.0000
  C   C3583     1.0  0.72442  0.42918  0.22748  1.0000
  H   H2872     1.0  0.89389  0.47797  0.23447  1.0000
  C   C3584     1.0  0.70506  0.17819  0.47275  1.0000
  C   C3585     1.0  0.76330  0.38272  0.22347  1.0000
  Fe  Fe245     1.0  0.71585  0.02454  0.70494  1.0000
  S   S485      1.0  0.75097  0.02832  0.70890  1.0000
  H   H2873     1.0  0.81087  0.08302  0.70443  1.0000
  Fe  Fe246     1.0  0.73853  0.99920  0.68107  1.0000
  S   S486      1.0  0.77524  0.00083  0.68377  1.0000
  Fe  Fe247     1.0  0.76179  0.99070  0.70562  1.0000
  Fe  Fe248     1.0  0.76108  0.03809  0.68688  1.0000
  S   S487      1.0  0.77386  0.07148  0.67508  1.0000
  H   H2874     1.0  0.66264  0.98081  0.71222  1.0000
  S   S488      1.0  0.72483  0.03711  0.68321  1.0000
  H   H2875     1.0  0.70498  0.18760  0.48066  1.0000
  C   C3586     1.0  0.94449  0.28584  0.65636  1.0000
  H   H2876     1.0  0.69522  0.04560  0.49873  1.0000
  H   H2877     1.0  0.78200  0.14178  0.59989  1.0000
  Fe  Fe249     1.0  0.87929  0.14152  0.64946  1.0000
  S   S489      1.0  0.90275  0.13439  0.63039  1.0000
  S   S490      1.0  0.87145  0.10965  0.66516  1.0000
  Fe  Fe250     1.0  0.87552  0.19496  0.64090  1.0000
  S   S491      1.0  0.89791  0.19166  0.62107  1.0000
  S   S492      1.0  0.85855  0.23008  0.64746  1.0000
  Fe  Fe251     1.0  0.87768  0.16311  0.62056  1.0000
  S   S493      1.0  0.86606  0.16084  0.60145  1.0000
  Fe  Fe252     1.0  0.92134  0.16310  0.63244  1.0000
  S   S494      1.0  0.96047  0.16173  0.62458  1.0000
  S   S495      1.0  0.85285  0.16878  0.63950  1.0000
  S   S496      1.0  0.90021  0.16803  0.65240  1.0000
  Fe  Fe253     1.0  0.87191  0.39917  0.65088  1.0000
  S   S497      1.0  0.88006  0.38981  0.63040  1.0000
  S   S498      1.0  0.83392  0.41540  0.65802  1.0000
  Fe  Fe254     1.0  0.92264  0.38269  0.65516  1.0000
  S   S499      1.0  0.93456  0.37236  0.63525  1.0000
  S   S500      1.0  0.94957  0.37711  0.66856  1.0000
  Fe  Fe255     1.0  0.91236  0.40626  0.62789  1.0000
  S   S501      1.0  0.92766  0.43081  0.61006  1.0000
  Fe  Fe256     1.0  0.90147  0.35623  0.63932  1.0000
  S   S502      1.0  0.90907  0.32108  0.63184  1.0000
  S   S503      1.0  0.90295  0.41804  0.64765  1.0000
  S   S504      1.0  0.89084  0.36421  0.66005  1.0000
  S   S505      1.0  0.79677  0.01858  0.48466  1.0000
  Fe  Fe257     1.0  0.90456  0.03225  0.54437  1.0000
  S   S506      1.0  0.87803  0.06530  0.54693  1.0000
  S   S507      1.0  0.94183  0.03657  0.53360  1.0000
  Fe  Fe258     1.0  0.86895  0.00028  0.55981  1.0000
  S   S508      1.0  0.84080  0.03108  0.56387  1.0000
  H   H2878     1.0  0.79158  0.04489  0.58248  1.0000
  Fe  Fe259     1.0  0.85184  0.04568  0.54230  1.0000
  S   S509      1.0  0.82230  0.06252  0.53027  1.0000
  Fe  Fe260     1.0  0.86953  0.04751  0.56802  1.0000
  S   S510      1.0  0.86781  0.05980  0.58753  1.0000
  S   S511      1.0  0.87902  0.01407  0.53810  1.0000
  S   S512      1.0  0.89704  0.01540  0.56558  1.0000
  C   C3587     1.0  0.72009  0.99196  0.57103  1.0000
  H   H2879     1.0  0.73527  0.15224  0.47728  1.0000
  C   C3588     1.0  0.80570  0.01929  0.65285  1.0000
  H   H2880     1.0  0.98172  0.34757  0.60689  1.0000
  C   C3589     1.0  0.97491  0.08362  0.62681  1.0000
  C   C3590     1.0  0.73663  0.42373  0.70651  1.0000
  H   H2881     1.0  0.95080  0.00436  0.55786  1.0000
  C   C3591     1.0  0.80321  0.03165  0.49720  1.0000
  C   C3592     1.0  0.82451  0.02266  0.50203  1.0000
  C   C3593     1.0  0.83031  0.03157  0.51229  1.0000
  C   C3594     1.0  0.81506  0.05001  0.51773  1.0000
  C   C3595     1.0  0.79375  0.05916  0.51288  1.0000
  C   C3596     1.0  0.78778  0.05000  0.50271  1.0000
  C   C3597     1.0  0.68043  0.98358  0.57936  1.0000
  H   H2882     1.0  0.84679  0.02439  0.51583  1.0000
  H   H2883     1.0  0.78182  0.07343  0.51700  1.0000
  H   H2884     1.0  0.77130  0.05708  0.49915  1.0000
  S   S513      1.0  0.68246  0.03614  0.71898  1.0000
  C   C3598     1.0  0.96964  0.09021  0.63937  1.0000
  C   C3599     1.0  0.86885  0.13282  0.59686  1.0000
  C   C3600     1.0  0.87499  0.11220  0.60559  1.0000
  C   C3601     1.0  0.87494  0.09010  0.60240  1.0000
  C   C3602     1.0  0.86947  0.08821  0.59027  1.0000
  C   C3603     1.0  0.86448  0.10878  0.58117  1.0000
  C   C3604     1.0  0.86388  0.13104  0.58454  1.0000
  H   H2885     1.0  0.87902  0.11328  0.61503  1.0000
  H   H2886     1.0  0.87899  0.07432  0.60944  1.0000
  H   H2887     1.0  0.86030  0.10758  0.57176  1.0000
  H   H2888     1.0  0.85920  0.14693  0.57767  1.0000
  C   C3605     1.0  0.87337  0.25489  0.64370  1.0000
  C   C3606     1.0  0.89565  0.25449  0.63570  1.0000
  C   C3607     1.0  0.90634  0.27488  0.63235  1.0000
  C   C3608     1.0  0.89517  0.29573  0.63712  1.0000
  C   C3609     1.0  0.87324  0.29597  0.64545  1.0000
  C   C3610     1.0  0.86232  0.27568  0.64863  1.0000
  H   H2889     1.0  0.90440  0.23861  0.63188  1.0000
  H   H2890     1.0  0.92326  0.27465  0.62588  1.0000
  H   H2891     1.0  0.86451  0.31186  0.64925  1.0000
  H   H2892     1.0  0.84515  0.27611  0.65489  1.0000
  H   H2893     1.0  0.94763  0.01838  0.59647  1.0000
  C   C3611     1.0  0.69891  0.16821  0.70713  1.0000
  C   C3612     1.0  0.98262  0.16123  0.63390  1.0000
  H   H2894     1.0  0.88067  0.47744  0.59476  1.0000
  C   C3613     1.0  0.82583  0.37930  0.70193  1.0000
  H   H2895     1.0  0.96134  0.15328  0.65305  1.0000
  H   H2896     1.0  0.87759  0.04740  0.64106  1.0000
  C   C3614     1.0  0.89646  0.44560  0.57196  1.0000
  C   C3615     1.0  0.88573  0.43195  0.58334  1.0000
  C   C3616     1.0  0.89539  0.42683  0.59503  1.0000
  C   C3617     1.0  0.91596  0.43527  0.59535  1.0000
  C   C3618     1.0  0.91701  0.45402  0.57228  1.0000
  C   C3619     1.0  0.76488  0.16413  0.68690  1.0000
  H   H2897     1.0  0.86956  0.42592  0.58321  1.0000
  H   H2898     1.0  0.88671  0.41672  0.60380  1.0000
  H   H2899     1.0  0.77660  0.14383  0.67104  1.0000
  H   H2900     1.0  0.82007  0.14339  0.61109  1.0000
  C   C3620     1.0  0.92154  0.17166  0.58533  1.0000
  C   C3621     1.0  0.94478  0.36997  0.57546  1.0000
  H   H2901     1.0  0.67864  0.12135  0.70237  1.0000
  C   C3622     1.0  0.84364  0.44000  0.67576  1.0000
  C   C3623     1.0  0.82644  0.43450  0.66993  1.0000
  C   C3624     1.0  0.80268  0.44463  0.67348  1.0000
  H   H2902     1.0  0.84262  0.37485  0.70539  1.0000
  H   H2903     1.0  0.86194  0.43220  0.67319  1.0000
  C   C3625     1.0  0.97622  0.29032  0.61914  1.0000
  H   H2904     1.0  0.89103  0.46225  0.66252  1.0000
  H   H2905     1.0  0.92222  0.19141  0.56560  1.0000
  H   H2906     1.0  0.69808  0.13041  0.65536  1.0000
  C   C3626     1.0  0.92191  0.44408  0.67066  1.0000
  H   H2907     1.0  0.76190  0.44290  0.64527  1.0000
  H   H2908     1.0  0.98294  0.26989  0.58529  1.0000
  C   C3627     1.0  0.77886  0.15874  0.67499  1.0000
  C   C3628     1.0  0.70645  0.13334  0.66307  1.0000
  H   H2909     1.0  0.78925  0.44028  0.66912  1.0000
  H   H2910     1.0  0.82800  0.01399  0.66751  1.0000
  C   C3629     1.0  0.80156  0.08089  0.67235  1.0000
  C   C3630     1.0  0.80441  0.10225  0.66382  1.0000
  C   C3631     1.0  0.82562  0.11128  0.66162  1.0000
  C   C3632     1.0  0.84439  0.09887  0.66786  1.0000
  C   C3633     1.0  0.84169  0.07728  0.67631  1.0000
  C   C3634     1.0  0.82036  0.06824  0.67853  1.0000
  H   H2911     1.0  0.79005  0.11189  0.65891  1.0000
  H   H2912     1.0  0.82754  0.12775  0.65500  1.0000
  H   H2913     1.0  0.85618  0.06754  0.68115  1.0000
  H   H2914     1.0  0.81837  0.05172  0.68511  1.0000
  H   H2915     1.0  0.72292  0.04875  0.64310  1.0000
  H   H2916     1.0  0.96001  0.41356  0.64595  1.0000
  C   C3635     1.0  0.92972  0.08226  0.64209  1.0000
  C   C3636     1.0  0.68129  0.08398  0.70977  1.0000
  C   C3637     1.0  0.96652  0.02882  0.54194  1.0000
  H   H2917     1.0  0.69537  0.07911  0.70187  1.0000
  C   C3638     1.0  0.79618  0.46033  0.68265  1.0000
  C   C3639     1.0  0.67179  0.10790  0.71007  1.0000
  H   H2918     1.0  0.96789  0.32796  0.67288  1.0000
  C   C3640     1.0  0.81865  0.99502  0.63567  1.0000
  H   H2919     1.0  0.85685  0.98237  0.65774  1.0000
  C   C3641     1.0  0.85778  0.00011  0.60748  1.0000
  H   H2920     1.0  0.98394  0.12840  0.53935  1.0000
  C   C3642     1.0  0.82544  0.00858  0.65867  1.0000
  H   H2921     1.0  0.78582  0.05629  0.71987  1.0000
  H   H2922     1.0  0.92541  0.46453  0.56353  1.0000
  H   H2923     1.0  0.97302  0.16001  0.59207  1.0000
  S   S514      1.0  0.73253  0.99056  0.66182  1.0000
  P   P120      1.0  0.73674  0.01119  0.54501  1.0000
  C   C3643     1.0  0.77021  0.00923  0.61680  1.0000
  C   C3644     1.0  0.72423  0.02237  0.53013  1.0000
  C   C3645     1.0  0.71721  0.00665  0.52378  1.0000
  H   H2924     1.0  0.74870  0.04763  0.59136  1.0000
  H   H2925     1.0  0.76393  0.99886  0.62623  1.0000
  C   C3646     1.0  0.71107  0.05481  0.51343  1.0000
  C   C3647     1.0  0.72157  0.04648  0.52471  1.0000
  H   H2926     1.0  0.73506  0.02445  0.61329  1.0000
  H   H2927     1.0  0.94896  0.19603  0.60043  1.0000
  C   C3648     1.0  0.72149  0.41404  0.70104  1.0000
  H   H2928     1.0  0.94005  0.37998  0.60676  1.0000
  H   H2929     1.0  0.78965  0.47044  0.63446  1.0000
  C   C3649     1.0  0.74522  0.03451  0.55102  1.0000
  C   C3650     1.0  0.76908  0.03559  0.55068  1.0000
  C   C3651     1.0  0.77512  0.05329  0.55588  1.0000
  C   C3652     1.0  0.75755  0.07009  0.56136  1.0000
  C   C3653     1.0  0.73378  0.06908  0.56179  1.0000
  C   C3654     1.0  0.72761  0.05131  0.55668  1.0000
  S   S515      1.0  0.72612  0.98625  0.70272  1.0000
  H   H2930     1.0  0.72257  0.39511  0.70224  1.0000
  H   H2931     1.0  0.89055  0.01123  0.59718  1.0000
  C   C3655     1.0  0.74337  0.46455  0.65971  1.0000
  H   H2932     1.0  0.68653  0.00628  0.54663  1.0000
  H   H2933     1.0  0.96884  0.12296  0.60768  1.0000
  C   C3656     1.0  0.93873  0.13031  0.58695  1.0000
  H   H2934     1.0  0.70918  0.07338  0.50920  1.0000
  H   H2935     1.0  0.72776  0.05886  0.52904  1.0000
  H   H2936     1.0  0.77480  0.01071  0.52214  1.0000
  H   H2937     1.0  0.89170  0.47531  0.62685  1.0000
  C   C3657     1.0  0.92760  0.14970  0.59300  1.0000
  H   H2938     1.0  0.95258  0.23951  0.62800  1.0000
  C   C3658     1.0  0.78112  0.47691  0.56398  1.0000
  H   H2939     1.0  0.78317  0.02295  0.54642  1.0000
  H   H2940     1.0  0.79357  0.05411  0.55547  1.0000
  H   H2941     1.0  0.76246  0.08392  0.56519  1.0000
  H   H2942     1.0  0.72013  0.08211  0.56603  1.0000
  H   H2943     1.0  0.70912  0.05065  0.55714  1.0000
  H   H2944     1.0  0.92527  0.33060  0.67410  1.0000
  C   C3659     1.0  0.82484  0.37730  0.68900  1.0000
  C   C3660     1.0  0.75661  0.08354  0.61978  1.0000
  H   H2945     1.0  0.94320  0.11348  0.59312  1.0000
  C   C3661     1.0  0.97750  0.29868  0.66212  1.0000
  H   H2946     1.0  0.70150  0.00292  0.50749  1.0000
  P   P121      1.0  0.79721  0.10182  0.62011  1.0000
  C   C3662     1.0  0.78273  0.39170  0.69269  1.0000
  C   C3663     1.0  0.77320  0.08557  0.62729  1.0000
  H   H2947     1.0  0.81814  0.06997  0.60076  1.0000
  H   H2948     1.0  0.65304  0.03674  0.49730  1.0000
  C   C3664     1.0  0.80367  0.11105  0.57467  1.0000
  H   H2949     1.0  0.75616  0.16078  0.64857  1.0000
  C   C3665     1.0  0.86256  0.05778  0.63690  1.0000
  H   H2950     1.0  0.75769  0.09189  0.60952  1.0000
  C   C3666     1.0  0.93733  0.31737  0.66911  1.0000
  H   H2951     1.0  0.82152  0.46825  0.64691  1.0000
  H   H2952     1.0  0.73744  0.99233  0.57296  1.0000
  H   H2953     1.0  0.91213  0.18637  0.59011  1.0000
  C   C3667     1.0  0.93093  0.05429  0.59123  1.0000
  H   H2954     1.0  0.95150  0.08531  0.52321  1.0000
  H   H2955     1.0  0.78664  0.02092  0.63719  1.0000
  C   C3668     1.0  0.70738  0.15629  0.66451  1.0000
  H   H2956     1.0  0.78229  0.19022  0.63764  1.0000
  H   H2957     1.0  0.90992  0.30426  0.66315  1.0000
  C   C3669     1.0  0.81253  0.08951  0.58183  1.0000
  C   C3670     1.0  0.72810  0.14078  0.68313  1.0000
  H   H2958     1.0  0.68869  0.46467  0.68788  1.0000
  H   H2959     1.0  0.81420  0.18131  0.61885  1.0000
  P   P122      1.0  0.75709  0.40473  0.71642  1.0000
  C   C3671     1.0  0.73843  0.07045  0.62549  1.0000
  C   C3672     1.0  0.97020  0.21848  0.60479  1.0000
  H   H2960     1.0  0.77787  0.46805  0.68525  1.0000
  C   C3673     1.0  0.71830  0.16000  0.67444  1.0000
  C   C3674     1.0  0.95225  0.22656  0.58514  1.0000
  H   H2961     1.0  0.78364  0.07610  0.64656  1.0000
  C   C3675     1.0  0.71476  0.99946  0.55821  1.0000
  H   H2962     1.0  0.85057  0.45953  0.68953  1.0000
  C   C3676     1.0  0.70340  0.03915  0.50745  1.0000
  C   C3677     1.0  0.97518  0.38989  0.66174  1.0000
  S   S516      1.0  0.72964  0.04087  0.47505  1.0000
  H   H2963     1.0  0.90926  0.10263  0.52427  1.0000
  C   C3678     1.0  0.79614  0.17226  0.66823  1.0000
  H   H2964     1.0  0.72412  0.10825  0.71473  1.0000
  C   C3679     1.0  0.93571  0.37426  0.59849  1.0000
  C   C3680     1.0  0.97244  0.31483  0.61817  1.0000
  C   C3681     1.0  0.91868  0.10453  0.53179  1.0000
  C   C3682     1.0  0.92413  0.36043  0.57696  1.0000
  C   C3683     1.0  0.90867  0.35857  0.58916  1.0000
  C   C3684     1.0  0.91503  0.36479  0.60003  1.0000
  P   P123      1.0  0.88107  0.34806  0.59078  1.0000
  C   C3685     1.0  0.85994  0.36022  0.60389  1.0000
  C   C3686     1.0  0.86995  0.35883  0.57536  1.0000
  C   C3687     1.0  0.87290  0.38152  0.56841  1.0000
  C   C3688     1.0  0.86424  0.39026  0.55659  1.0000
  C   C3689     1.0  0.85263  0.37640  0.55151  1.0000
  C   C3690     1.0  0.84975  0.35375  0.55826  1.0000
  C   C3691     1.0  0.85838  0.34496  0.57013  1.0000
  C   C3692     1.0  0.85693  0.34720  0.61677  1.0000
  C   C3693     1.0  0.84078  0.35656  0.62695  1.0000
  C   C3694     1.0  0.82778  0.37917  0.62443  1.0000
  C   C3695     1.0  0.83080  0.39235  0.61168  1.0000
  C   C3696     1.0  0.84673  0.38291  0.60144  1.0000
  C   C3697     1.0  0.88521  0.31623  0.59502  1.0000
  C   C3698     1.0  0.90790  0.30298  0.59541  1.0000
  C   C3699     1.0  0.91070  0.27855  0.59958  1.0000
  C   C3700     1.0  0.89099  0.26715  0.60340  1.0000
  C   C3701     1.0  0.86837  0.28020  0.60318  1.0000
  C   C3702     1.0  0.86546  0.30465  0.59904  1.0000
  H   H2965     1.0  0.92337  0.14768  0.60365  1.0000
  H   H2966     1.0  0.81768  0.99241  0.56726  1.0000
  C   C3703     1.0  0.80211  0.02063  0.59940  1.0000
  H   H2967     1.0  0.91993  0.35513  0.56851  1.0000
  H   H2968     1.0  0.90388  0.36269  0.60963  1.0000
  H   H2969     1.0  0.88197  0.39257  0.57209  1.0000
  H   H2970     1.0  0.86659  0.40787  0.55139  1.0000
  H   H2971     1.0  0.84592  0.38325  0.54233  1.0000
  H   H2972     1.0  0.84081  0.34299  0.55428  1.0000
  H   H2973     1.0  0.85601  0.32737  0.57510  1.0000
  H   H2974     1.0  0.86730  0.32994  0.61907  1.0000
  H   H2975     1.0  0.83888  0.34650  0.63688  1.0000
  H   H2976     1.0  0.81584  0.38668  0.63243  1.0000
  H   H2977     1.0  0.82103  0.41004  0.60977  1.0000
  H   H2978     1.0  0.84880  0.39350  0.59170  1.0000
  H   H2979     1.0  0.92339  0.31148  0.59295  1.0000
  H   H2980     1.0  0.92807  0.26853  0.60040  1.0000
  H   H2981     1.0  0.89318  0.24830  0.60698  1.0000
  H   H2982     1.0  0.85307  0.27141  0.60660  1.0000
  H   H2983     1.0  0.84775  0.31461  0.59934  1.0000
  H   H2984     1.0  0.86281  0.45088  0.64084  1.0000
  C   C3704     1.0  0.94390  0.13284  0.57312  1.0000
  C   C3705     1.0  0.84412  0.98195  0.61063  1.0000
  C   C3706     1.0  0.69170  0.99968  0.55620  1.0000
  C   C3707     1.0  0.94711  0.08951  0.64697  1.0000
  C   C3708     1.0  0.95706  0.07717  0.62177  1.0000
  H   H2985     1.0  0.75739  0.18856  0.70082  1.0000
  C   C3709     1.0  0.78359  0.39400  0.70565  1.0000
  H   H2986     1.0  0.73470  0.10252  0.68796  1.0000
  H   H2987     1.0  0.79310  0.03284  0.65730  1.0000
  H   H2988     1.0  0.91852  0.09043  0.58358  1.0000
  C   C3710     1.0  0.71790  0.46291  0.69779  1.0000
  C   C3711     1.0  0.96200  0.24728  0.58091  1.0000
  C   C3712     1.0  0.72703  0.11779  0.68162  1.0000
  C   C3713     1.0  0.85697  0.08188  0.63722  1.0000
  H   H2989     1.0  0.95549  0.42945  0.67671  1.0000
  H   H2990     1.0  0.69966  0.17120  0.65792  1.0000
  H   H2991     1.0  0.92083  0.07158  0.62546  1.0000
  C   C3714     1.0  0.88038  0.99690  0.59991  1.0000
  C   C3715     1.0  0.95540  0.08013  0.57571  1.0000
  H   H2992     1.0  0.91322  0.42986  0.67667  1.0000
  H   H2993     1.0  0.69225  0.42117  0.69044  1.0000
  H   H2994     1.0  0.71962  0.98793  0.52765  1.0000
  C   C3716     1.0  0.73672  0.05928  0.63869  1.0000
  H   H2995     1.0  0.82153  0.07510  0.57671  1.0000
  P   P124      1.0  0.81514  0.98634  0.62069  1.0000
  H   H2996     1.0  0.76177  0.12278  0.64094  1.0000
  P   P125      1.0  0.74303  0.14594  0.69552  1.0000
  C   C3717     1.0  0.97145  0.03915  0.58284  1.0000
  C   C3718     1.0  0.97421  0.06118  0.57517  1.0000
  S   S517      1.0  0.88419  0.45157  0.55738  1.0000
  C   C3719     1.0  0.65329  0.11448  0.72017  1.0000
  H   H2997     1.0  0.80558  0.11323  0.56399  1.0000
  C   C3720     1.0  0.96162  0.31567  0.66853  1.0000
  H   H2998     1.0  0.94300  0.09488  0.65660  1.0000
  C   C3721     1.0  0.92709  0.17443  0.57155  1.0000
  C   C3722     1.0  0.70679  0.01504  0.51248  1.0000
  C   C3723     1.0  0.78170  0.11080  0.70083  1.0000
  C   C3724     1.0  0.75377  0.02370  0.60947  1.0000
  H   H2999     1.0  0.90887  0.12472  0.56090  1.0000
  C   C3725     1.0  0.80327  0.38325  0.68445  1.0000
  C   C3726     1.0  0.75292  0.06159  0.64624  1.0000
  C   C3727     1.0  0.96661  0.23297  0.63376  1.0000
  H   H3000     1.0  0.71592  0.09625  0.67045  1.0000
  C   C3728     1.0  0.96881  0.28398  0.65584  1.0000
  C   C3729     1.0  0.79085  0.12708  0.59501  1.0000
  C   C3730     1.0  0.67206  0.06643  0.71946  1.0000
  C   C3731     1.0  0.84166  0.99084  0.65315  1.0000
  C   C3732     1.0  0.73053  0.16117  0.71988  1.0000
  C   C3733     1.0  0.74314  0.10311  0.71265  1.0000
  C   C3734     1.0  0.75715  0.11810  0.70363  1.0000
  C   C3735     1.0  0.81081  0.08676  0.59555  1.0000
  H   H3001     1.0  0.77710  0.98411  0.57431  1.0000
  C   C3736     1.0  0.79272  0.12981  0.58127  1.0000
  H   H3002     1.0  0.76640  0.39665  0.68880  1.0000
  C   C3737     1.0  0.70238  0.45319  0.69278  1.0000
  H   H3003     1.0  0.88797  0.12220  0.54320  1.0000
  H   H3004     1.0  0.72576  0.06878  0.61966  1.0000
  H   H3005     1.0  0.80269  0.38207  0.67433  1.0000
  H   H3006     1.0  0.71911  0.17787  0.67538  1.0000
  C   C3738     1.0  0.80215  0.01246  0.64145  1.0000
  C   C3739     1.0  0.96090  0.22275  0.64701  1.0000
  C   C3740     1.0  0.94987  0.03568  0.59087  1.0000
  H   H3007     1.0  0.97370  0.20675  0.61383  1.0000
  C   C3741     1.0  0.95039  0.37719  0.58619  1.0000
  C   C3742     1.0  0.76232  0.98950  0.54079  1.0000
  H   H3008     1.0  0.78796  0.21218  0.68879  1.0000
  H   H3009     1.0  0.94268  0.22127  0.65133  1.0000
  C   C3743     1.0  0.72266  0.15962  0.70832  1.0000
  H   H3010     1.0  0.95983  0.32316  0.62566  1.0000
  C   C3744     1.0  0.79947  0.19146  0.67322  1.0000
  H   H3011     1.0  0.91391  0.05138  0.59703  1.0000
  H   H3012     1.0  0.75152  0.05306  0.65650  1.0000
  C   C3745     1.0  0.80526  0.38740  0.71028  1.0000
  C   C3746     1.0  0.85715  0.46934  0.63723  1.0000
  H   H3013     1.0  0.66523  0.18537  0.71620  1.0000
  C   C3747     1.0  0.97556  0.25380  0.58873  1.0000
  H   H3014     1.0  0.80717  0.16769  0.65918  1.0000
  H   H3015     1.0  0.85327  0.02849  0.63091  1.0000
  H   H3016     1.0  0.81306  0.20182  0.66800  1.0000
  H   H3017     1.0  0.94279  0.45521  0.58405  1.0000
  H   H3018     1.0  0.84084  0.37158  0.68239  1.0000
  C   C3748     1.0  0.93361  0.07640  0.58361  1.0000
  H   H3019     1.0  0.78588  0.14657  0.57572  1.0000
  C   C3749     1.0  0.91869  0.11700  0.55245  1.0000
  C   C3750     1.0  0.78537  0.19722  0.68497  1.0000
  C   C3751     1.0  0.94291  0.10788  0.55167  1.0000
  H   H3020     1.0  0.81828  0.05171  0.62203  1.0000
  C   C3752     1.0  0.77112  0.07461  0.64058  1.0000
  H   H3021     1.0  0.93779  0.27466  0.65142  1.0000
  C   C3753     1.0  0.70435  0.42874  0.69427  1.0000
  C   C3754     1.0  0.80033  0.10562  0.60226  1.0000
  C   C3755     1.0  0.77308  0.13549  0.63585  1.0000
  C   C3756     1.0  0.97862  0.15636  0.64773  1.0000
  C   C3757     1.0  0.80246  0.16870  0.62353  1.0000
  C   C3758     1.0  0.82915  0.06049  0.62600  1.0000
  C   C3759     1.0  0.71634  0.11412  0.67160  1.0000
  C   C3760     1.0  0.77788  0.07373  0.71562  1.0000
  C   C3761     1.0  0.92688  0.44862  0.58389  1.0000
  C   C3762     1.0  0.83753  0.09535  0.63191  1.0000
  C   C3763     1.0  0.78456  0.17364  0.63412  1.0000
  C   C3764     1.0  0.80573  0.14718  0.61911  1.0000
  H   H3022     1.0  0.83379  0.11393  0.63239  1.0000
  H   H3023     1.0  0.86770  0.09025  0.64157  1.0000
  H   H3024     1.0  0.67288  0.98129  0.52608  1.0000
  C   C3765     1.0  0.76809  0.18366  0.69179  1.0000
  P   P126      1.0  0.95792  0.10808  0.56504  1.0000
  C   C3766     1.0  0.82343  0.08483  0.62618  1.0000
  C   C3767     1.0  0.90671  0.11553  0.54246  1.0000
  C   C3768     1.0  0.92874  0.30252  0.66300  1.0000
  C   C3769     1.0  0.76985  0.15707  0.64026  1.0000
  C   C3770     1.0  0.84879  0.04714  0.63119  1.0000
  C   C3771     1.0  0.83713  0.45550  0.68502  1.0000
  C   C3772     1.0  0.95637  0.21218  0.59708  1.0000
  H   H3025     1.0  0.94159  0.22158  0.57916  1.0000
  H   H3026     1.0  0.79301  0.12173  0.69381  1.0000
  C   C3773     1.0  0.79113  0.13036  0.62525  1.0000
  H   H3027     1.0  0.74869  0.15432  0.72109  1.0000
  H   H3028     1.0  0.69192  0.16650  0.69864  1.0000
  C   C3774     1.0  0.95455  0.09611  0.54118  1.0000
  C   C3775     1.0  0.76072  0.45913  0.64896  1.0000
  H   H3029     1.0  0.83664  0.00855  0.49785  1.0000
  H   H3030     1.0  0.74647  0.45642  0.70857  1.0000
  C   C3776     1.0  0.97951  0.23957  0.60083  1.0000
  H   H3031     1.0  0.96597  0.38526  0.58498  1.0000
  C   C3777     1.0  0.96635  0.01235  0.55363  1.0000
  H   H3032     1.0  0.79223  0.43581  0.71316  1.0000
  C   C3778     1.0  0.76144  0.03672  0.59714  1.0000
  C   C3779     1.0  0.73499  0.44833  0.70460  1.0000
  C   C3780     1.0  0.93458  0.07640  0.62942  1.0000
  H   H3033     1.0  0.80635  0.38872  0.72029  1.0000
  C   C3781     1.0  0.93844  0.15513  0.56546  1.0000
  C   C3782     1.0  0.79453  0.00753  0.61182  1.0000
  H   H3034     1.0  0.74985  0.46753  0.56000  1.0000
  C   C3783     1.0  0.78559  0.03522  0.59214  1.0000
  H   H3035     1.0  0.94257  0.15746  0.55476  1.0000
  C   C3784     1.0  0.94577  0.44388  0.67071  1.0000
  H   H3036     1.0  0.78746  0.45931  0.56881  1.0000
  C   C3785     1.0  0.94257  0.09485  0.53116  1.0000
  C   C3786     1.0  0.97536  0.40798  0.65075  1.0000
  C   C3787     1.0  0.79198  0.08873  0.70687  1.0000
  C   C3788     1.0  0.67464  0.99189  0.56675  1.0000
  H   H3037     1.0  0.98087  0.27121  0.65049  1.0000
  H   H3038     1.0  0.96052  0.07265  0.61194  1.0000
  H   H3039     1.0  0.95615  0.37227  0.56590  1.0000
  C   C3789     1.0  0.77815  0.99438  0.52896  1.0000
  S   S518      1.0  0.68969  0.99429  0.48216  1.0000
  C   C3790     1.0  0.81343  0.46582  0.68848  1.0000
  H   H3040     1.0  0.85075  0.01701  0.61054  1.0000
  H   H3041     1.0  0.97272  0.08740  0.54089  1.0000
  H   H3042     1.0  0.82062  0.01919  0.59505  1.0000
  H   H3043     1.0  0.73107  0.45253  0.66437  1.0000
  H   H3044     1.0  0.91222  0.08202  0.64799  1.0000
  H   H3045     1.0  0.96612  0.28025  0.62736  1.0000
  C   C3791     1.0  0.83831  0.98408  0.64169  1.0000
  C   C3792     1.0  0.70315  0.98371  0.58150  1.0000
  H   H3046     1.0  0.81093  0.98226  0.51682  1.0000
  H   H3047     1.0  0.95895  0.46556  0.60647  1.0000
  H   H3048     1.0  0.97450  0.20528  0.66475  1.0000
  C   C3793     1.0  0.90951  0.46222  0.66261  1.0000
  C   C3794     1.0  0.77663  0.47463  0.64296  1.0000
  H   H3049     1.0  0.97594  0.46085  0.66277  1.0000
  C   C3795     1.0  0.97876  0.21388  0.65459  1.0000
  H   H3050     1.0  0.82277  0.99307  0.71839  1.0000
  C   C3796     1.0  0.95734  0.46174  0.66269  1.0000
  H   H3051     1.0  0.95893  0.25837  0.57161  1.0000
  H   H3052     1.0  0.65685  0.99251  0.56517  1.0000
  H   H3053     1.0  0.98273  0.09603  0.64334  1.0000
  C   C3797     1.0  0.98470  0.32859  0.60755  1.0000
  C   C3798     1.0  0.75347  0.08099  0.71856  1.0000
  H   H3054     1.0  0.94693  0.47146  0.62958  1.0000
  H   H3055     1.0  0.84729  0.02468  0.71458  1.0000
  C   C3799     1.0  0.68357  0.17885  0.71714  1.0000
  H   H3056     1.0  0.98584  0.02450  0.58213  1.0000
  C   C3800     1.0  0.79876  0.97838  0.52595  1.0000
  Fe  Fe261     1.0  0.71245  0.03814  0.96007  1.0000
  S   S519      1.0  0.72264  0.06878  0.94473  1.0000
  C   C3801     1.0  0.76414  0.42131  0.72747  1.0000
  Fe  Fe262     1.0  0.75646  0.00536  0.94919  1.0000
  S   S520      1.0  0.76924  0.03427  0.93350  1.0000
  H   H3057     1.0  0.67545  0.03015  0.83453  1.0000
  Fe  Fe263     1.0  0.75937  0.05676  0.94956  1.0000
  S   S521      1.0  0.77796  0.08665  0.95168  1.0000
  Fe  Fe264     1.0  0.73137  0.04357  0.93032  1.0000
  S   S522      1.0  0.72268  0.05271  0.90940  1.0000
  S   S523      1.0  0.74859  0.02717  0.96564  1.0000
  S   S524      1.0  0.71906  0.01347  0.94527  1.0000
  C   C3802     1.0  0.81366  0.03450  0.74418  1.0000
  H   H3058     1.0  0.84188  0.05073  0.73128  1.0000
  C   C3803     1.0  0.71205  0.98824  0.75296  1.0000
  C   C3804     1.0  0.67445  0.09080  0.76792  1.0000
  H   H3059     1.0  0.73664  0.41152  0.74373  1.0000
  C   C3805     1.0  0.72535  0.99127  0.80807  1.0000
  C   C3806     1.0  0.78685  0.44896  0.73136  1.0000
  H   H3060     1.0  0.69272  0.99408  0.84784  1.0000
  S   S525      1.0  0.65520  0.40717  0.75025  1.0000
  H   H3061     1.0  0.68890  0.36656  0.74036  1.0000
  C   C3807     1.0  0.89017  0.98411  0.90266  1.0000
  C   C3808     1.0  0.78214  0.43516  0.72309  1.0000
  C   C3809     1.0  0.80026  0.44398  0.96574  1.0000
  C   C3810     1.0  0.79112  0.99449  0.77344  1.0000
  H   H3062     1.0  0.69657  0.12224  0.94716  1.0000
  H   H3063     1.0  0.87340  0.45957  0.94687  1.0000
  C   C3811     1.0  0.72949  0.11854  0.97098  1.0000
  H   H3064     1.0  0.73436  0.43967  0.79677  1.0000
  C   C3812     1.0  0.74231  0.06683  0.78107  1.0000
  C   C3813     1.0  0.71036  0.45452  0.78286  1.0000
  C   C3814     1.0  0.65376  0.07303  0.72965  1.0000
  C   C3815     1.0  0.74033  0.99553  0.90161  1.0000
  H   H3065     1.0  0.81906  0.13403  0.97061  1.0000
  C   C3816     1.0  0.79821  0.08990  0.96160  1.0000
  C   C3817     1.0  0.74932  0.08403  0.75788  1.0000
  H   H3066     1.0  0.69725  0.42751  0.74518  1.0000
  H   H3067     1.0  0.68095  0.12871  0.80384  1.0000
  C   C3818     1.0  0.71313  0.01159  0.85686  1.0000
  C   C3819     1.0  0.75662  0.35727  0.72778  1.0000
  C   C3820     1.0  0.66076  0.02826  0.91260  1.0000
  P   P127      1.0  0.72576  0.98481  0.86675  1.0000
  C   C3821     1.0  0.79914  0.01728  0.74608  1.0000
  H   H3068     1.0  0.74734  0.09913  0.75006  1.0000
  H   H3069     1.0  0.79290  0.99118  0.92399  1.0000
  C   C3822     1.0  0.67969  0.98223  0.87995  1.0000
  H   H3070     1.0  0.76809  0.00626  0.86448  1.0000
  S   S526      1.0  0.78462  0.45369  0.95225  1.0000
  C   C3823     1.0  0.69711  0.04495  0.90577  1.0000
  C   C3824     1.0  0.68112  0.03379  0.91568  1.0000
  C   C3825     1.0  0.66179  0.43478  0.74113  1.0000
  C   C3826     1.0  0.69263  0.05018  0.89269  1.0000
  H   H3071     1.0  0.68426  0.02968  0.92577  1.0000
  H   H3072     1.0  0.92476  0.98355  0.89071  1.0000
  H   H3073     1.0  0.70490  0.05877  0.88496  1.0000
  C   C3827     1.0  0.69377  0.08602  0.74570  1.0000
  H   H3074     1.0  0.79959  0.02263  0.78131  1.0000
  H   H3075     1.0  0.69312  0.45327  0.81149  1.0000
  H   H3076     1.0  0.68428  0.06900  0.83634  1.0000
  C   C3828     1.0  0.68955  0.42629  0.82855  1.0000
  H   H3077     1.0  0.81165  0.04581  0.75145  1.0000
  C   C3829     1.0  0.72723  0.40069  0.77691  1.0000
  C   C3830     1.0  0.66176  0.44631  0.78614  1.0000
  H   H3078     1.0  0.66878  0.04904  0.87955  1.0000
  C   C3831     1.0  0.73999  0.99215  0.87888  1.0000
  C   C3832     1.0  0.76048  0.00264  0.87485  1.0000
  C   C3833     1.0  0.77087  0.00926  0.88415  1.0000
  C   C3834     1.0  0.76088  0.00553  0.89754  1.0000
  H   H3079     1.0  0.66655  0.43956  0.76620  1.0000
  H   H3080     1.0  0.69113  0.47333  0.76717  1.0000
  C   C3835     1.0  0.74554  0.33802  0.73429  1.0000
  H   H3081     1.0  0.68473  0.39625  0.84386  1.0000
  C   C3836     1.0  0.75505  0.43620  0.74827  1.0000
  C   C3837     1.0  0.75332  0.04471  0.77798  1.0000
  H   H3082     1.0  0.91952  0.24367  0.96275  1.0000
  H   H3083     1.0  0.84256  0.46295  0.93318  1.0000
  C   C3838     1.0  0.66804  0.07592  0.80096  1.0000
  H   H3084     1.0  0.71832  0.00918  0.73364  1.0000
  H   H3085     1.0  0.67702  0.00130  0.87877  1.0000
  H   H3086     1.0  0.75404  0.02952  0.78581  1.0000
  H   H3087     1.0  0.78643  0.01764  0.88097  1.0000
  H   H3088     1.0  0.76849  0.01116  0.90476  1.0000
  C   C3839     1.0  0.87676  0.01606  0.91544  1.0000
  C   C3840     1.0  0.82157  0.01522  0.94882  1.0000
  H   H3089     1.0  0.73155  0.10353  0.77340  1.0000
  C   C3841     1.0  0.68761  0.03117  0.84086  1.0000
  C   C3842     1.0  0.74031  0.08647  0.77103  1.0000
  H   H3090     1.0  0.72808  0.35370  0.76234  1.0000
  H   H3091     1.0  0.68657  0.38527  0.80443  1.0000
  C   C3843     1.0  0.89816  0.02452  0.91027  1.0000
  C   C3844     1.0  0.71734  0.03376  0.85809  1.0000
  C   C3845     1.0  0.70272  0.40802  0.77987  1.0000
  H   H3092     1.0  0.71247  0.32636  0.74362  1.0000
  P   P128      1.0  0.67461  0.05464  0.78987  1.0000
  C   C3846     1.0  0.68425  0.06756  0.77284  1.0000
  H   H3093     1.0  0.66195  0.10149  0.77435  1.0000
  C   C3847     1.0  0.87295  0.99573  0.91155  1.0000
  C   C3848     1.0  0.68683  0.40281  0.83332  1.0000
  H   H3094     1.0  0.90172  0.03998  0.91314  1.0000
  C   C3849     1.0  0.72438  0.00317  0.74304  1.0000
  C   C3850     1.0  0.73024  0.45355  0.78864  1.0000
  C   C3851     1.0  0.69869  0.05360  0.76393  1.0000
  C   C3852     1.0  0.70322  0.06282  0.75041  1.0000
  C   C3853     1.0  0.67849  0.09641  0.79778  1.0000
  C   C3854     1.0  0.67466  0.47751  0.72590  1.0000
  C   C3855     1.0  0.65459  0.44730  0.77404  1.0000
  C   C3856     1.0  0.69608  0.03038  0.79616  1.0000
  C   C3857     1.0  0.69868  0.00819  0.79245  1.0000
  C   C3858     1.0  0.81300  0.99868  0.95941  1.0000
  C   C3859     1.0  0.71508  0.17170  0.72990  1.0000
  C   C3860     1.0  0.72302  0.01325  0.81179  1.0000
  C   C3861     1.0  0.70835  0.03269  0.80594  1.0000
  H   H3095     1.0  0.68463  0.36607  0.76779  1.0000
  C   C3862     1.0  0.93301  0.24275  0.96863  1.0000
  C   C3863     1.0  0.73633  0.38124  0.77055  1.0000
  C   C3864     1.0  0.70784  0.36388  0.73687  1.0000
  P   P129      1.0  0.77673  0.01377  0.76062  1.0000
  C   C3865     1.0  0.82021  0.00480  0.72552  1.0000
  H   H3096     1.0  0.76032  0.46982  0.78841  1.0000
  H   H3097     1.0  0.69671  0.09289  0.73520  1.0000
  H   H3098     1.0  0.87960  0.05870  0.96287  1.0000
  C   C3866     1.0  0.87681  0.08978  0.93195  1.0000
  H   H3099     1.0  0.70577  0.03541  0.76726  1.0000
  C   C3867     1.0  0.69243  0.05301  0.84193  1.0000
  H   H3100     1.0  0.93190  0.01939  0.89743  1.0000
  C   C3868     1.0  0.70125  0.11910  0.95693  1.0000
  H   H3101     1.0  0.68880  0.00569  0.78529  1.0000
  C   C3869     1.0  0.72113  0.34129  0.73872  1.0000
  H   H3102     1.0  0.73939  0.40984  0.77960  1.0000
  C   C3870     1.0  0.72102  0.36876  0.76725  1.0000
  H   H3103     1.0  0.70624  0.04930  0.80936  1.0000
  H   H3104     1.0  0.75366  0.02207  0.73748  1.0000
  C   C3871     1.0  0.69103  0.46122  0.73252  1.0000
  H   H3105     1.0  0.75527  0.37581  0.76819  1.0000
  H   H3106     1.0  0.73516  0.06875  0.79123  1.0000
  H   H3107     1.0  0.71335  0.05180  0.74345  1.0000
  C   C3872     1.0  0.74036  0.98680  0.76713  1.0000
  C   C3873     1.0  0.80309  0.00198  0.73690  1.0000
  H   H3108     1.0  0.70872  0.46483  0.73171  1.0000
  C   C3874     1.0  0.69661  0.37562  0.77039  1.0000
  H   H3109     1.0  0.79052  0.12787  0.95751  1.0000
  H   H3110     1.0  0.72788  0.03554  0.86505  1.0000
  H   H3111     1.0  0.93251  0.28031  0.96486  1.0000
  P   P130      1.0  0.69129  0.43245  0.78871  1.0000
  H   H3112     1.0  0.70814  0.40043  0.72899  1.0000
  H   H3113     1.0  0.65552  0.43345  0.86953  1.0000
  C   C3875     1.0  0.91538  0.01285  0.90136  1.0000
  H   H3114     1.0  0.86720  0.02910  0.95325  1.0000
  C   C3876     1.0  0.69150  0.43503  0.81500  1.0000
  C   C3877     1.0  0.69772  0.01058  0.84837  1.0000
  H   H3115     1.0  0.87918  0.10692  0.92615  1.0000
  C   C3878     1.0  0.80091  0.11276  0.96261  1.0000
  C   C3879     1.0  0.75261  0.00217  0.75730  1.0000
  H   H3116     1.0  0.88517  0.09765  0.94956  1.0000
  H   H3117     1.0  0.72124  0.17301  0.73876  1.0000
  C   C3880     1.0  0.76059  0.06202  0.75479  1.0000
  C   C3881     1.0  0.69058  0.42049  0.80609  1.0000
  C   C3882     1.0  0.67943  0.10002  0.75446  1.0000
  C   C3883     1.0  0.74454  0.01019  0.74520  1.0000
  C   C3884     1.0  0.86973  0.07312  0.92638  1.0000
  C   C3885     1.0  0.86586  0.05116  0.93399  1.0000
  C   C3886     1.0  0.86998  0.04584  0.94711  1.0000
  P   P131      1.0  0.85439  0.03069  0.92712  1.0000
  C   C3887     1.0  0.84313  0.00909  0.94061  1.0000
  C   C3888     1.0  0.82996  0.04691  0.91910  1.0000
  C   C3889     1.0  0.81653  0.06737  0.92351  1.0000
  C   C3890     1.0  0.79765  0.08000  0.91739  1.0000
  C   C3891     1.0  0.79177  0.07220  0.90693  1.0000
  C   C3892     1.0  0.80487  0.05180  0.90252  1.0000
  C   C3893     1.0  0.82387  0.03918  0.90857  1.0000
  H   H3118     1.0  0.68374  0.36992  0.82826  1.0000
  H   H3119     1.0  0.66987  0.10467  0.96659  1.0000
  H   H3120     1.0  0.71012  0.07134  0.85181  1.0000
  C   C3894     1.0  0.94037  0.26338  0.96980  1.0000
  H   H3121     1.0  0.77548  0.35429  0.72429  1.0000
  H   H3122     1.0  0.79613  0.00319  0.96554  1.0000
  C   C3895     1.0  0.88028  0.08456  0.94510  1.0000
  C   C3896     1.0  0.80059  0.00379  0.78217  1.0000
  H   H3123     1.0  0.86662  0.07760  0.91626  1.0000
  C   C3897     1.0  0.83399  0.02255  0.72341  1.0000
  C   C3898     1.0  0.68460  0.43998  0.74004  1.0000
  H   H3124     1.0  0.73530  0.12988  0.94989  1.0000
  H   H3125     1.0  0.73206  0.01505  0.81950  1.0000
  C   C3899     1.0  0.68790  0.39685  0.81097  1.0000
  C   C3900     1.0  0.76309  0.04229  0.76484  1.0000
  H   H3126     1.0  0.67128  0.11769  0.75068  1.0000
  H   H3127     1.0  0.82019  0.07340  0.93188  1.0000
  H   H3128     1.0  0.78705  0.09538  0.92113  1.0000
  H   H3129     1.0  0.77658  0.08153  0.90252  1.0000
  H   H3130     1.0  0.79995  0.04552  0.89460  1.0000
  H   H3131     1.0  0.83342  0.02330  0.90509  1.0000
  C   C3901     1.0  0.72299  0.12352  0.95847  1.0000
  H   H3132     1.0  0.69042  0.10002  0.78857  1.0000
  C   C3902     1.0  0.67217  0.04469  0.88960  1.0000
  H   H3133     1.0  0.81914  0.41275  0.95815  1.0000
  C   C3903     1.0  0.84073  0.47517  0.93994  1.0000
  C   C3904     1.0  0.68619  0.38804  0.82453  1.0000
  H   H3134     1.0  0.74629  0.98018  0.77650  1.0000
  C   C3905     1.0  0.68745  0.39499  0.77681  1.0000
  C   C3906     1.0  0.70710  0.05432  0.85061  1.0000
  H   H3135     1.0  0.66845  0.39958  0.77939  1.0000
  H   H3136     1.0  0.81134  0.03272  0.94708  1.0000
  H   H3137     1.0  0.68930  0.43794  0.83541  1.0000
  H   H3138     1.0  0.76709  0.06038  0.74455  1.0000
  C   C3907     1.0  0.75072  0.42181  0.74017  1.0000
  H   H3139     1.0  0.81048  0.05292  0.96734  1.0000
  C   C3908     1.0  0.87711  0.06254  0.95262  1.0000
  C   C3909     1.0  0.71310  0.98872  0.79847  1.0000
  C   C3910     1.0  0.65600  0.03384  0.89960  1.0000
  H   H3140     1.0  0.75586  0.32050  0.73576  1.0000
  C   C3911     1.0  0.81171  0.98871  0.79208  1.0000
  H   H3141     1.0  0.85676  0.98861  0.91552  1.0000
  C   C3912     1.0  0.72979  0.98905  0.89234  1.0000
  H   H3142     1.0  0.74243  0.06920  0.72509  1.0000
  C   C3913     1.0  0.91139  0.99267  0.89756  1.0000
  C   C3914     1.0  0.85796  0.47316  0.94773  1.0000
  C   C3915     1.0  0.74509  0.47050  0.78389  1.0000
  H   H3143     1.0  0.74403  0.43738  0.75781  1.0000
  C   C3916     1.0  0.85634  0.98646  0.94348  1.0000
  H   H3144     1.0  0.67952  0.18879  0.73626  1.0000
  H   H3145     1.0  0.80788  0.47574  0.91279  1.0000
  H   H3146     1.0  0.73204  0.99372  0.91192  1.0000
  C   C3917     1.0  0.68616  0.10933  0.96788  1.0000
  C   C3918     1.0  0.81630  0.42266  0.96615  1.0000
  C   C3919     1.0  0.65861  0.10808  0.81866  1.0000
  H   H3147     1.0  0.81890  0.99588  0.79887  1.0000
  C   C3920     1.0  0.77321  0.44962  0.74392  1.0000
  C   C3921     1.0  0.83086  0.03727  0.73280  1.0000
  H   H3148     1.0  0.80058  0.45983  0.72782  1.0000
  H   H3149     1.0  0.71335  0.98230  0.89572  1.0000
  H   H3150     1.0  0.77635  0.46103  0.75010  1.0000
  C   C3922     1.0  0.70591  0.47241  0.77207  1.0000
  C   C3923     1.0  0.81195  0.07059  0.96819  1.0000
  H   H3151     1.0  0.74689  0.12122  0.97176  1.0000
  H   H3152     1.0  0.69663  0.98258  0.75118  1.0000
  C   C3924     1.0  0.69160  0.18062  0.72851  1.0000
  C   C3925     1.0  0.67346  0.11259  0.80651  1.0000
  H   H3153     1.0  0.87348  0.98146  0.93770  1.0000
  C   C3926     1.0  0.74328  0.37995  0.72559  1.0000
  C   C3927     1.0  0.71887  0.38314  0.73044  1.0000
  C   C3928     1.0  0.81708  0.11634  0.97007  1.0000
  H   H3154     1.0  0.79288  0.98788  0.73852  1.0000
  C   C3929     1.0  0.72023  0.97978  0.76493  1.0000
  C   C3930     1.0  0.65392  0.07111  0.81342  1.0000
  H   H3155     1.0  0.65434  0.12071  0.82539  1.0000
  H   H3156     1.0  0.69163  0.54686  0.98408  1.0000
  H   H3157     1.0  0.67769  0.90853  0.13822  1.0000
  H   H3158     1.0  0.66408  0.69059  0.14717  1.0000
  C   C3931     1.0  0.84046  0.81071  0.20980  1.0000
  C   C3932     1.0  0.75149  0.54011  0.98836  1.0000
  H   H3159     1.0  0.67893  0.56616  0.00406  1.0000
  Fe  Fe265     1.0  0.76262  0.51292  0.18641  1.0000
  S   S527      1.0  0.72385  0.52507  0.19267  1.0000
  C   C3933     1.0  0.65407  0.48781  0.16694  1.0000
  Fe  Fe266     1.0  0.73394  0.56125  0.18893  1.0000
  S   S528      1.0  0.71908  0.59440  0.17578  1.0000
  C   C3934     1.0  0.79957  0.53075  0.97721  1.0000
  S   S529      1.0  0.77274  0.54926  0.18193  1.0000
  C   C3935     1.0  0.79649  0.70417  0.20552  1.0000
  C   C3936     1.0  0.76637  0.52108  0.99434  1.0000
  H   H3160     1.0  0.77637  0.48036  0.05968  1.0000
  S   S530      1.0  0.77135  0.50765  0.20690  1.0000
  H   H3161     1.0  0.74798  0.62103  0.18727  1.0000
  H   H3162     1.0  0.74147  0.66721  0.17279  1.0000
  S   S531      1.0  0.67722  0.50620  0.97741  1.0000
  C   C3937     1.0  0.81508  0.57691  0.21696  1.0000
  H   H3163     1.0  0.78279  0.50467  0.12315  1.0000
  C   C3938     1.0  0.71685  0.64796  0.21783  1.0000
  H   H3164     1.0  0.66727  0.60405  0.08379  1.0000
  H   H3165     1.0  0.81976  0.57358  0.97562  1.0000
  C   C3939     1.0  0.84776  0.51210  0.98317  1.0000
  H   H3166     1.0  0.74365  0.53513  0.08236  1.0000
  S   S532      1.0  0.77700  0.48620  0.17223  1.0000
  C   C3940     1.0  0.77934  0.61195  0.17353  1.0000
  C   C3941     1.0  0.67063  0.59447  0.18248  1.0000
  C   C3942     1.0  0.68923  0.60393  0.17376  1.0000
  C   C3943     1.0  0.68405  0.62266  0.16354  1.0000
  H   H3167     1.0  0.85891  0.54453  0.98444  1.0000
  H   H3168     1.0  0.67440  0.58007  0.19041  1.0000
  H   H3169     1.0  0.69833  0.63004  0.15674  1.0000
  C   C3944     1.0  0.67525  0.58640  0.08763  1.0000
  C   C3945     1.0  0.76374  0.48642  0.06788  1.0000
  C   C3946     1.0  0.65706  0.96574  0.12646  1.0000
  H   H3170     1.0  0.76202  0.50464  0.10497  1.0000
  H   H3171     1.0  0.71568  0.69976  0.16134  1.0000
  C   C3947     1.0  0.80661  0.93788  0.22047  1.0000
  C   C3948     1.0  0.97791  0.81500  0.98876  1.0000
  H   H3172     1.0  0.77203  0.59895  0.17028  1.0000
  C   C3949     1.0  0.75173  0.50788  0.11443  1.0000
  C   C3950     1.0  0.71026  0.72033  0.19010  1.0000
  P   P132      1.0  0.91220  0.80127  0.20816  1.0000
  C   C3951     1.0  0.87249  0.83022  0.21904  1.0000
  C   C3952     1.0  0.76365  0.50787  0.12473  1.0000
  C   C3953     1.0  0.66461  0.94154  0.12673  1.0000
  C   C3954     1.0  0.93179  0.82726  0.16883  1.0000
  C   C3955     1.0  0.80395  0.69288  0.21740  1.0000
  C   C3956     1.0  0.75094  0.51153  0.13716  1.0000
  C   C3957     1.0  0.74517  0.51720  0.08074  1.0000
  C   C3958     1.0  0.65828  0.61261  0.12904  1.0000
  H   H3173     1.0  0.92397  0.79425  0.18027  1.0000
  C   C3959     1.0  0.73655  0.68257  0.19057  1.0000
  C   C3960     1.0  0.86468  0.80213  0.20708  1.0000
  H   H3174     1.0  0.66356  0.51028  0.09794  1.0000
  C   C3961     1.0  0.71889  0.50503  0.04523  1.0000
  H   H3175     1.0  0.87074  0.78830  0.20115  1.0000
  C   C3962     1.0  0.90352  0.75480  0.21417  1.0000
  C   C3963     1.0  0.89871  0.59431  0.22132  1.0000
  C   C3964     1.0  0.66835  0.49520  0.10526  1.0000
  H   H3176     1.0  0.76906  0.91901  0.20567  1.0000
  H   H3177     1.0  0.77874  0.96467  0.21339  1.0000
  C   C3965     1.0  0.94643  0.73683  0.19956  1.0000
  C   C3966     1.0  0.66256  0.72635  0.21929  1.0000
  H   H3178     1.0  0.88730  0.76112  0.22040  1.0000
  H   H3179     1.0  0.96700  0.80924  0.99808  1.0000
  H   H3180     1.0  0.70581  0.63655  0.19060  1.0000
  H   H3181     1.0  0.91717  0.85107  0.20200  1.0000
  H   H3182     1.0  0.68179  0.59636  0.10503  1.0000
  H   H3183     1.0  0.96445  0.79465  0.97786  1.0000
  C   C3967     1.0  0.78847  0.95752  0.22143  1.0000
  C   C3968     1.0  0.66914  0.56553  0.14080  1.0000
  H   H3184     1.0  0.70156  0.57488  0.14333  1.0000
  C   C3969     1.0  0.67364  0.95987  0.19332  1.0000
  C   C3970     1.0  0.85965  0.52589  0.98825  1.0000
  C   C3971     1.0  0.70698  0.71958  0.17736  1.0000
  H   H3185     1.0  0.72926  0.51539  0.04850  1.0000
  H   H3186     1.0  0.96328  0.72976  0.19414  1.0000
  C   C3972     1.0  0.73132  0.50163  0.08942  1.0000
  C   C3973     1.0  0.65870  0.70264  0.15421  1.0000
  C   C3974     1.0  0.83230  0.82916  0.21703  1.0000
  H   H3187     1.0  0.70787  0.66542  0.21454  1.0000
  C   C3975     1.0  0.73298  0.68187  0.17779  1.0000
  C   C3976     1.0  0.88082  0.81143  0.21199  1.0000
  H   H3188     1.0  0.67082  0.57144  0.07131  1.0000
  C   C3977     1.0  0.80230  0.61601  0.16811  1.0000
  C   C3978     1.0  0.81146  0.63313  0.17214  1.0000
  C   C3979     1.0  0.79763  0.64625  0.18155  1.0000
  H   H3189     1.0  0.81297  0.60584  0.16081  1.0000
  H   H3190     1.0  0.82933  0.63617  0.16801  1.0000
  H   H3191     1.0  0.80510  0.65944  0.18448  1.0000
  H   H3192     1.0  0.76024  0.51136  0.14514  1.0000
  H   H3193     1.0  0.68364  0.67663  0.18541  1.0000
  H   H3194     1.0  0.93773  0.86250  0.15981  1.0000
  C   C3980     1.0  0.78243  0.66123  0.21823  1.0000
  H   H3195     1.0  0.68166  0.92484  0.18831  1.0000
  C   C3981     1.0  0.69493  0.51340  0.04483  1.0000
  H   H3196     1.0  0.88679  0.59809  0.21421  1.0000
  S   S533      1.0  0.73879  0.55941  0.20988  1.0000
  C   C3982     1.0  0.71835  0.70039  0.17120  1.0000
  H   H3197     1.0  0.73288  0.54353  0.99255  1.0000
  C   C3983     1.0  0.67337  0.93750  0.14871  1.0000
  C   C3984     1.0  0.67266  0.92741  0.13786  1.0000
  C   C3985     1.0  0.93305  0.85074  0.16899  1.0000
  H   H3198     1.0  0.82972  0.62987  0.20050  1.0000
  C   C3986     1.0  0.67509  0.66354  0.19249  1.0000
  C   C3987     1.0  0.76131  0.50960  0.07002  1.0000
  H   H3199     1.0  0.81088  0.59702  0.19779  1.0000
  C   C3988     1.0  0.83653  0.61456  0.22010  1.0000
  H   H3200     1.0  0.76389  0.97135  0.16750  1.0000
  H   H3201     1.0  0.92836  0.87748  0.18112  1.0000
  C   C3989     1.0  0.68799  0.54533  0.08551  1.0000
  H   H3202     1.0  0.69019  0.95852  0.19667  1.0000
  C   C3990     1.0  0.68517  0.58098  0.13947  1.0000
  H   H3203     1.0  0.68670  0.53032  0.04763  1.0000
  C   C3991     1.0  0.72497  0.70192  0.19669  1.0000
  C   C3992     1.0  0.67952  0.53949  0.99242  1.0000
  C   C3993     1.0  0.76566  0.62465  0.18314  1.0000
  C   C3994     1.0  0.77464  0.64201  0.18718  1.0000
  C   C3995     1.0  0.67222  0.55044  0.00372  1.0000
  H   H3204     1.0  0.65395  0.63093  0.12462  1.0000
  H   H3205     1.0  0.68684  0.60598  0.20668  1.0000
  H   H3206     1.0  0.67897  0.92640  0.15750  1.0000
  C   C3996     1.0  0.69001  0.49135  0.10978  1.0000
  H   H3207     1.0  0.67020  0.69435  0.21126  1.0000
  C   C3997     1.0  0.92169  0.84406  0.19283  1.0000
  C   C3998     1.0  0.67972  0.60451  0.13361  1.0000
  C   C3999     1.0  0.92120  0.82022  0.19281  1.0000
  C   C4000     1.0  0.74004  0.64006  0.21188  1.0000
  H   H3208     1.0  0.76898  0.61066  0.21208  1.0000
  C   C4001     1.0  0.65481  0.51009  0.00271  1.0000
  C   C4002     1.0  0.76047  0.55426  0.97673  1.0000
  H   H3209     1.0  0.77209  0.52160  0.06342  1.0000
  C   C4003     1.0  0.66575  0.96167  0.14853  1.0000
  H   H3210     1.0  0.66541  0.96877  0.15735  1.0000
  H   H3211     1.0  0.80142  0.50159  0.99361  1.0000
  H   H3212     1.0  0.75926  0.50977  0.00317  1.0000
  S   S534      1.0  0.85124  0.63795  0.22106  1.0000
  H   H3213     1.0  0.68975  0.53132  0.07985  1.0000
  C   C4004     1.0  0.67738  0.56805  0.08059  1.0000
  H   H3214     1.0  0.72757  0.70289  0.20651  1.0000
  H   H3215     1.0  0.69524  0.51728  0.13098  1.0000
  C   C4005     1.0  0.65867  0.72674  0.14985  1.0000
  C   C4006     1.0  0.92564  0.81211  0.18067  1.0000
  H   H3216     1.0  0.71149  0.47862  0.01101  1.0000
  P   P133      1.0  0.71099  0.51146  0.10344  1.0000
  H   H3217     1.0  0.69192  0.61660  0.13282  1.0000
  C   C4007     1.0  0.82780  0.61509  0.20846  1.0000
  P   P134      1.0  0.75622  0.65928  0.19903  1.0000
  H   H3218     1.0  0.70152  0.73533  0.19481  1.0000
  Fe  Fe267     1.0  0.73318  0.52172  0.21298  1.0000
  H   H3219     1.0  0.75340  0.96319  0.14726  1.0000
  H   H3220     1.0  0.95353  0.77238  0.19511  1.0000
  C   C4008     1.0  0.66054  0.63212  0.16211  1.0000
  C   C4009     1.0  0.72691  0.51155  0.11653  1.0000
  H   H3221     1.0  0.69566  0.73389  0.17223  1.0000
  Fe  Fe268     1.0  0.77701  0.54549  0.20326  1.0000
  C   C4010     1.0  0.84917  0.48794  0.98839  1.0000
  C   C4011     1.0  0.77471  0.67250  0.20633  1.0000
  H   H3222     1.0  0.89701  0.71897  0.21909  1.0000
  H   H3223     1.0  0.80228  0.72062  0.20053  1.0000
  H   H3224     1.0  0.82803  0.80320  0.20620  1.0000
  S   S535      1.0  0.80367  0.55189  0.21510  1.0000
  C   C4012     1.0  0.69631  0.54073  0.09760  1.0000
  C   C4013     1.0  0.68146  0.49999  0.04074  1.0000
  C   C4014     1.0  0.79032  0.51645  0.98882  1.0000
  C   C4015     1.0  0.73376  0.47849  0.08713  1.0000
  C   C4016     1.0  0.81705  0.59651  0.20690  1.0000
  H   H3225     1.0  0.70042  0.55651  0.11388  1.0000
  C   C4017     1.0  0.91889  0.77029  0.20699  1.0000
  C   C4018     1.0  0.66870  0.94074  0.18858  1.0000
  H   H3226     1.0  0.88203  0.52629  0.00217  1.0000
  H   H3227     1.0  0.71653  0.51712  0.14913  1.0000
  C   C4019     1.0  0.68777  0.64093  0.19551  1.0000
  C   C4020     1.0  0.71431  0.51486  0.12911  1.0000
  C   C4021     1.0  0.72627  0.51489  0.13937  1.0000
  C   C4022     1.0  0.69397  0.55930  0.10464  1.0000
  H   H3228     1.0  0.65688  0.64656  0.15423  1.0000
  H   H3229     1.0  0.77667  0.70284  0.19065  1.0000
  C   C4023     1.0  0.68351  0.58203  0.09963  1.0000
  H   H3230     1.0  0.81563  0.70040  0.22160  1.0000
  C   C4024     1.0  0.78194  0.69404  0.19998  1.0000
  H   H3231     1.0  0.93534  0.82088  0.15950  1.0000
  H   H3232     1.0  0.93494  0.70297  0.20600  1.0000
  H   H3233     1.0  0.88437  0.48350  0.01117  1.0000
  C   C4025     1.0  0.67050  0.51945  0.99179  1.0000
  C   C4026     1.0  0.92784  0.85916  0.18098  1.0000
  H   H3234     1.0  0.81083  0.92998  0.21163  1.0000
  C   C4027     1.0  0.94483  0.81707  0.21924  1.0000
  C   C4028     1.0  0.67701  0.62364  0.20457  1.0000
  C   C4029     1.0  0.93054  0.72172  0.20626  1.0000
  C   C4030     1.0  0.97648  0.80678  0.97737  1.0000
  H   H3235     1.0  0.65409  0.50963  0.13436  1.0000
  H   H3236     1.0  0.95309  0.82357  0.20932  1.0000
  C   C4031     1.0  0.94076  0.76100  0.20005  1.0000
  H   H3237     1.0  0.66346  0.73346  0.13940  1.0000
  C   C4032     1.0  0.90914  0.73071  0.21360  1.0000
  C   C4033     1.0  0.87280  0.51561  0.99832  1.0000
  H   H3238     1.0  0.67352  0.54761  0.14575  1.0000
  H   H3239     1.0  0.81358  0.83603  0.21904  1.0000
  H   H3240     1.0  0.66287  0.50648  0.04048  1.0000
  C   C4034     1.0  0.65917  0.48901  0.15323  1.0000
  C   C4035     1.0  0.84836  0.83908  0.22148  1.0000
  C   C4036     1.0  0.75109  0.61719  0.21644  1.0000
  C   C4037     1.0  0.75557  0.92290  0.21403  1.0000
  C   C4038     1.0  0.65345  0.62895  0.21056  1.0000
  C   C4039     1.0  0.65862  0.71110  0.21157  1.0000
  C   C4040     1.0  0.65578  0.54155  0.01443  1.0000
  C   C4041     1.0  0.72944  0.48332  0.04141  1.0000
  H   H3241     1.0  0.73336  0.94876  0.20219  1.0000
  C   C4042     1.0  0.73554  0.93974  0.21208  1.0000
  H   H3242     1.0  0.66341  0.93356  0.11846  1.0000
  C   C4043     1.0  0.91340  0.61037  0.22125  1.0000
  C   C4044     1.0  0.87412  0.49152  0.00341  1.0000
  H   H3243     1.0  0.70295  0.95835  0.22137  1.0000
  C   C4045     1.0  0.65774  0.97610  0.13733  1.0000
  H   H3244     1.0  0.72678  0.48205  0.17523  1.0000
  C   C4046     1.0  0.92575  0.80473  0.22150  1.0000
  H   H3245     1.0  0.88461  0.83837  0.22248  1.0000
  H   H3246     1.0  0.91248  0.62676  0.21426  1.0000
  H   H3247     1.0  0.71856  0.48175  0.98691  1.0000
  C   C4047     1.0  0.71843  0.94516  0.22290  1.0000
  Fe  Fe269     1.0  0.74908  0.52649  0.44044  1.0000
  C   C4048     1.0  0.96866  0.87463  0.25477  1.0000
  S   S536      1.0  0.70932  0.53553  0.44416  1.0000
  H   H3248     1.0  0.88313  0.52353  0.38946  1.0000
  Fe  Fe270     1.0  0.87330  0.50126  0.36482  1.0000
  H   H3249     1.0  0.96848  0.97207  0.43050  1.0000
  Fe  Fe271     1.0  0.88125  0.54320  0.34297  1.0000
  C   C4049     1.0  0.94460  0.73818  0.23768  1.0000
  S   S537      1.0  0.88081  0.58213  0.33626  1.0000
  C   C4050     1.0  0.97496  0.95239  0.35539  1.0000
  C   C4051     1.0  0.89601  0.53054  0.27912  1.0000
  S   S538      1.0  0.85099  0.52315  0.35025  1.0000
  S   S539      1.0  0.90175  0.52400  0.35894  1.0000
  Fe  Fe272     1.0  0.86940  0.89687  0.27336  1.0000
  S   S540      1.0  0.88514  0.90884  0.25215  1.0000
  S   S541      1.0  0.85711  0.92746  0.28486  1.0000
  Fe  Fe273     1.0  0.87159  0.84630  0.26834  1.0000
  S   S542      1.0  0.88702  0.85549  0.24698  1.0000
  S   S543      1.0  0.86791  0.80807  0.27721  1.0000
  Fe  Fe274     1.0  0.91015  0.87465  0.25420  1.0000
  S   S544      1.0  0.94882  0.87133  0.24496  1.0000
  Fe  Fe275     1.0  0.86041  0.88882  0.24710  1.0000
  C   C4052     1.0  0.81393  0.55154  0.43361  1.0000
  S   S545      1.0  0.89632  0.86375  0.27575  1.0000
  S   S546      1.0  0.84301  0.87846  0.26811  1.0000
  Fe  Fe276     1.0  0.85515  0.64576  0.26841  1.0000
  S   S547      1.0  0.87802  0.62112  0.25549  1.0000
  S   S548      1.0  0.83253  0.62881  0.28649  1.0000
  Fe  Fe277     1.0  0.86910  0.68978  0.24985  1.0000
  S   S549      1.0  0.89338  0.66799  0.23549  1.0000
  S   S550      1.0  0.86327  0.72991  0.24368  1.0000
  Fe  Fe278     1.0  0.86403  0.64637  0.23865  1.0000
  C   C4053     1.0  0.94945  0.94133  0.33828  1.0000
  Fe  Fe279     1.0  0.90514  0.64459  0.25363  1.0000
  S   S551      1.0  0.94195  0.62633  0.25729  1.0000
  S   S552      1.0  0.83918  0.66973  0.25175  1.0000
  S   S553      1.0  0.88291  0.66771  0.26777  1.0000
  H   H3250     1.0  0.89465  0.92124  0.38382  1.0000
  H   H3251     1.0  0.77451  0.89896  0.22807  1.0000
  H   H3252     1.0  0.98567  0.62643  0.31619  1.0000
  H   H3253     1.0  0.79857  0.49366  0.42584  1.0000
  H   H3254     1.0  0.92536  0.91784  0.39762  1.0000
  C   C4054     1.0  0.72909  0.48147  0.24228  1.0000
  H   H3255     1.0  0.80625  0.95117  0.30461  1.0000
  H   H3256     1.0  0.84047  0.48594  0.28823  1.0000
  H   H3257     1.0  0.74403  0.97793  0.26759  1.0000
  C   C4055     1.0  0.65689  0.57929  0.44481  1.0000
  C   C4056     1.0  0.96564  0.64234  0.25443  1.0000
  C   C4057     1.0  0.96453  0.66478  0.24668  1.0000
  C   C4058     1.0  0.92891  0.96727  0.29852  1.0000
  H   H3258     1.0  0.94863  0.67301  0.24274  1.0000
  C   C4059     1.0  0.96614  0.94795  0.30542  1.0000
  C   C4060     1.0  0.98255  0.51508  0.23756  1.0000
  C   C4061     1.0  0.81357  0.93854  0.24234  1.0000
  C   C4062     1.0  0.79563  0.95823  0.24324  1.0000
  C   C4063     1.0  0.78264  0.96747  0.23295  1.0000
  H   H3259     1.0  0.82314  0.93138  0.25046  1.0000
  Fe  Fe280     1.0  0.71039  0.50016  0.45732  1.0000
  C   C4064     1.0  0.86818  0.93184  0.29857  1.0000
  C   C4065     1.0  0.86467  0.95479  0.30141  1.0000
  C   C4066     1.0  0.87049  0.95895  0.31301  1.0000
  C   C4067     1.0  0.88014  0.94018  0.32188  1.0000
  C   C4068     1.0  0.88444  0.91725  0.31888  1.0000
  C   C4069     1.0  0.87855  0.91308  0.30723  1.0000
  C   C4070     1.0  0.97163  0.93646  0.29437  1.0000
  C   C4071     1.0  0.90254  0.57235  0.28568  1.0000
  H   H3260     1.0  0.89196  0.90264  0.32568  1.0000
  H   H3261     1.0  0.88131  0.89531  0.30518  1.0000
  C   C4072     1.0  0.86612  0.78661  0.26782  1.0000
  C   C4073     1.0  0.86946  0.76259  0.27352  1.0000
  C   C4074     1.0  0.86830  0.74503  0.26636  1.0000
  C   C4075     1.0  0.86367  0.75132  0.25342  1.0000
  C   C4076     1.0  0.85968  0.77538  0.24785  1.0000
  C   C4077     1.0  0.86116  0.79293  0.25494  1.0000
  H   H3262     1.0  0.87304  0.75754  0.28353  1.0000
  H   H3263     1.0  0.87094  0.72665  0.27087  1.0000
  H   H3264     1.0  0.85582  0.78051  0.23791  1.0000
  H   H3265     1.0  0.85850  0.81132  0.25044  1.0000
  C   C4078     1.0  0.86893  0.59345  0.32174  1.0000
  C   C4079     1.0  0.87804  0.61189  0.31266  1.0000
  C   C4080     1.0  0.86758  0.62220  0.30148  1.0000
  C   C4081     1.0  0.84759  0.61451  0.29956  1.0000
  C   C4082     1.0  0.83876  0.59581  0.30854  1.0000
  C   C4083     1.0  0.84968  0.58499  0.31948  1.0000
  H   H3266     1.0  0.89298  0.61843  0.31438  1.0000
  H   H3267     1.0  0.87441  0.63668  0.29463  1.0000
  H   H3268     1.0  0.82332  0.58987  0.30706  1.0000
  H   H3269     1.0  0.84276  0.57066  0.32643  1.0000
  H   H3270     1.0  0.79579  0.50231  0.23476  1.0000
  C   C4084     1.0  0.96076  0.87796  0.26788  1.0000
  C   C4085     1.0  0.76513  0.51185  0.30705  1.0000
  C   C4086     1.0  0.80426  0.50135  0.41567  1.0000
  C   C4087     1.0  0.82459  0.49032  0.40809  1.0000
  C   C4088     1.0  0.83250  0.50038  0.39497  1.0000
  H   H3271     1.0  0.65978  0.59408  0.42412  1.0000
  C   C4089     1.0  0.81487  0.58743  0.39051  1.0000
  C   C4090     1.0  0.83804  0.57577  0.38763  1.0000
  C   C4091     1.0  0.84705  0.57077  0.37490  1.0000
  C   C4092     1.0  0.83280  0.57716  0.36513  1.0000
  C   C4093     1.0  0.80960  0.58907  0.36789  1.0000
  C   C4094     1.0  0.80070  0.59421  0.38068  1.0000
  P   P135      1.0  0.79152  0.59686  0.35508  1.0000
  C   C4095     1.0  0.76178  0.60879  0.36205  1.0000
  C   C4096     1.0  0.80243  0.61920  0.34187  1.0000
  C   C4097     1.0  0.82441  0.62597  0.34118  1.0000
  C   C4098     1.0  0.83270  0.64284  0.33069  1.0000
  C   C4099     1.0  0.81925  0.65299  0.32078  1.0000
  C   C4100     1.0  0.79721  0.64669  0.32151  1.0000
  C   C4101     1.0  0.78866  0.63011  0.33209  1.0000
  C   C4102     1.0  0.75612  0.63279  0.36317  1.0000
  C   C4103     1.0  0.73338  0.64217  0.36890  1.0000
  C   C4104     1.0  0.71618  0.62765  0.37363  1.0000
  C   C4105     1.0  0.72171  0.60373  0.37263  1.0000
  C   C4106     1.0  0.74442  0.59430  0.36687  1.0000
  C   C4107     1.0  0.79145  0.57014  0.34897  1.0000
  C   C4108     1.0  0.79360  0.57005  0.33537  1.0000
  C   C4109     1.0  0.79406  0.54915  0.33079  1.0000
  C   C4110     1.0  0.79202  0.52821  0.33974  1.0000
  C   C4111     1.0  0.78966  0.52814  0.35331  1.0000
  C   C4112     1.0  0.78961  0.54894  0.35789  1.0000
  H   H3272     1.0  0.80770  0.59078  0.40045  1.0000
  H   H3273     1.0  0.84889  0.57035  0.39529  1.0000
  H   H3274     1.0  0.86498  0.56167  0.37262  1.0000
  H   H3275     1.0  0.83988  0.57293  0.35535  1.0000
  H   H3276     1.0  0.78275  0.60294  0.38324  1.0000
  H   H3277     1.0  0.83556  0.61803  0.34847  1.0000
  H   H3278     1.0  0.85002  0.64738  0.32999  1.0000
  H   H3279     1.0  0.82617  0.66529  0.31236  1.0000
  H   H3280     1.0  0.78705  0.65427  0.31366  1.0000
  H   H3281     1.0  0.77160  0.62530  0.33245  1.0000
  H   H3282     1.0  0.76934  0.64423  0.35973  1.0000
  H   H3283     1.0  0.72915  0.66069  0.36974  1.0000
  H   H3284     1.0  0.69861  0.63489  0.37815  1.0000
  H   H3285     1.0  0.70845  0.59240  0.37642  1.0000
  H   H3286     1.0  0.74827  0.57570  0.36635  1.0000
  H   H3287     1.0  0.79546  0.58587  0.32820  1.0000
  C   C4113     1.0  0.92953  0.58453  0.23956  1.0000
  H   H3288     1.0  0.95533  0.54215  0.23062  1.0000
  H   H3289     1.0  0.78838  0.51188  0.36029  1.0000
  H   H3290     1.0  0.78819  0.54846  0.36841  1.0000
  S   S554      1.0  0.84044  0.90251  0.22995  1.0000
  H   H3291     1.0  0.86454  0.57423  0.43011  1.0000
  C   C4114     1.0  0.78510  0.50808  0.24362  1.0000
  C   C4115     1.0  0.76734  0.50096  0.29598  1.0000
  C   C4116     1.0  0.77968  0.50977  0.26704  1.0000
  C   C4117     1.0  0.91399  0.93456  0.39539  1.0000
  P   P136      1.0  0.79158  0.50409  0.28220  1.0000
  C   C4118     1.0  0.96654  0.54649  0.28379  1.0000
  H   H3292     1.0  0.78000  0.57221  0.43092  1.0000
  C   C4119     1.0  0.94912  0.65832  0.29526  1.0000
  H   H3293     1.0  0.74648  0.52999  0.27489  1.0000
  H   H3294     1.0  0.96842  0.54886  0.27312  1.0000
  H   H3295     1.0  0.66716  0.87798  0.25660  1.0000
  C   C4120     1.0  0.95159  0.94885  0.35988  1.0000
  H   H3296     1.0  0.92106  0.95686  0.28151  1.0000
  C   C4121     1.0  0.80684  0.52810  0.28246  1.0000
  C   C4122     1.0  0.80653  0.54786  0.27226  1.0000
  C   C4123     1.0  0.81840  0.56628  0.27238  1.0000
  C   C4124     1.0  0.83055  0.56530  0.28269  1.0000
  C   C4125     1.0  0.83055  0.54606  0.29301  1.0000
  C   C4126     1.0  0.81883  0.52757  0.29289  1.0000
  H   H3297     1.0  0.84221  0.85392  0.22668  1.0000
  C   C4127     1.0  0.75049  0.48704  0.29576  1.0000
  H   H3298     1.0  0.83542  0.52448  0.25219  1.0000
  H   H3299     1.0  0.68605  0.48855  0.42985  1.0000
  H   H3300     1.0  0.96683  0.83242  0.22825  1.0000
  S   S555      1.0  0.76614  0.53756  0.41906  1.0000
  H   H3301     1.0  0.93628  0.81060  0.31443  1.0000
  C   C4128     1.0  0.94389  0.52528  0.25073  1.0000
  C   C4129     1.0  0.91388  0.56885  0.24017  1.0000
  C   C4130     1.0  0.87166  0.52486  0.45132  1.0000
  H   H3302     1.0  0.93006  0.64365  0.28419  1.0000
  C   C4131     1.0  0.89021  0.53412  0.29227  1.0000
  H   H3303     1.0  0.79723  0.54922  0.26414  1.0000
  H   H3304     1.0  0.81813  0.58145  0.26449  1.0000
  H   H3305     1.0  0.83979  0.57957  0.28273  1.0000
  H   H3306     1.0  0.83960  0.54548  0.30116  1.0000
  H   H3307     1.0  0.81913  0.51292  0.30102  1.0000
  H   H3308     1.0  0.86712  0.97669  0.31517  1.0000
  H   H3309     1.0  0.82517  0.52887  0.37915  1.0000
  C   C4132     1.0  0.90860  0.56873  0.27255  1.0000
  H   H3310     1.0  0.80318  0.66244  0.23279  1.0000
  C   C4133     1.0  0.96747  0.61134  0.30475  1.0000
  H   H3311     1.0  0.92554  0.52291  0.38953  1.0000
  C   C4134     1.0  0.86993  0.53126  0.25282  1.0000
  H   H3312     1.0  0.77788  0.64430  0.22319  1.0000
  H   H3313     1.0  0.67344  0.58389  0.44570  1.0000
  H   H3314     1.0  0.88887  0.55793  0.30568  1.0000
  C   C4135     1.0  0.96884  0.77748  0.27139  1.0000
  C   C4136     1.0  0.70879  0.97782  0.42073  1.0000
  H   H3315     1.0  0.94668  0.50968  0.31161  1.0000
  C   C4137     1.0  0.97760  0.56913  0.35124  1.0000
  H   H3316     1.0  0.98161  0.57719  0.28343  1.0000
  S   S556      1.0  0.89944  0.52018  0.32820  1.0000
  H   H3317     1.0  0.77493  0.89219  0.27477  1.0000
  C   C4138     1.0  0.73077  0.49372  0.31767  1.0000
  C   C4139     1.0  0.93893  0.94306  0.35136  1.0000
  H   H3318     1.0  0.85070  0.49030  0.24061  1.0000
  C   C4140     1.0  0.94855  0.81911  0.28148  1.0000
  C   C4141     1.0  0.93433  0.80292  0.28098  1.0000
  C   C4142     1.0  0.94440  0.78214  0.27599  1.0000
  H   H3319     1.0  0.92088  0.94002  0.35484  1.0000
  C   C4143     1.0  0.83779  0.55194  0.43370  1.0000
  C   C4144     1.0  0.97692  0.87996  0.27564  1.0000
  H   H3320     1.0  0.68289  0.88638  0.29354  1.0000
  C   C4145     1.0  0.86290  0.49964  0.24318  1.0000
  C   C4146     1.0  0.96021  0.74251  0.25664  1.0000
  C   C4147     1.0  0.96070  0.74668  0.24293  1.0000
  H   H3321     1.0  0.88298  0.52077  0.29996  1.0000
  C   C4148     1.0  0.92783  0.72560  0.24602  1.0000
  C   C4149     1.0  0.92725  0.72134  0.25967  1.0000
  C   C4150     1.0  0.94332  0.72979  0.26499  1.0000
  C   C4151     1.0  0.92884  0.60547  0.23035  1.0000
  Fe  Fe281     1.0  0.71357  0.54982  0.46178  1.0000
  C   C4152     1.0  0.85894  0.97117  0.25337  1.0000
  H   H3322     1.0  0.82564  0.85619  0.24942  1.0000
  H   H3323     1.0  0.91603  0.79447  0.25519  1.0000
  S   S557      1.0  0.71358  0.50610  0.23289  1.0000
  H   H3324     1.0  0.71684  0.49059  0.32607  1.0000
  H   H3325     1.0  0.94071  0.83543  0.28509  1.0000
  H   H3326     1.0  0.91535  0.80674  0.28417  1.0000
  H   H3327     1.0  0.93286  0.77025  0.27543  1.0000
  C   C4153     1.0  0.97257  0.94593  0.33353  1.0000
  C   C4154     1.0  0.79893  0.53200  0.39678  1.0000
  C   C4155     1.0  0.92438  0.80049  0.24518  1.0000
  H   H3328     1.0  0.79640  0.89263  0.24952  1.0000
  H   H3329     1.0  0.94222  0.87904  0.27203  1.0000
  C   C4156     1.0  0.73237  0.48341  0.30657  1.0000
  C   C4157     1.0  0.94512  0.96412  0.30711  1.0000
  H   H3330     1.0  0.91558  0.58255  0.26528  1.0000
  H   H3331     1.0  0.91432  0.71145  0.26611  1.0000
  H   H3332     1.0  0.94271  0.72623  0.27559  1.0000
  C   C4158     1.0  0.85427  0.51886  0.24975  1.0000
  C   C4159     1.0  0.70490  0.63310  0.22808  1.0000
  H   H3333     1.0  0.74565  0.51625  0.32645  1.0000
  C   C4160     1.0  0.91670  0.95426  0.40021  1.0000
  H   H3334     1.0  0.94524  0.74127  0.22712  1.0000
  C   C4161     1.0  0.96964  0.57704  0.32871  1.0000
  S   S558      1.0  0.88615  0.94496  0.33695  1.0000
  H   H3335     1.0  0.70419  0.96262  0.42791  1.0000
  H   H3336     1.0  0.94226  0.67643  0.29145  1.0000
  H   H3337     1.0  0.94744  0.56577  0.36672  1.0000
  C   C4162     1.0  0.97276  0.49338  0.25962  1.0000
  H   H3338     1.0  0.93766  0.50301  0.26985  1.0000
  C   C4163     1.0  0.95022  0.50701  0.26094  1.0000
  C   C4164     1.0  0.93748  0.57385  0.34740  1.0000
  H   H3339     1.0  0.73343  0.95276  0.25448  1.0000
  H   H3340     1.0  0.82251  0.56129  0.23644  1.0000
  C   C4165     1.0  0.88201  0.95798  0.38477  1.0000
  H   H3341     1.0  0.81083  0.49159  0.25594  1.0000
  C   C4166     1.0  0.97369  0.63000  0.30913  1.0000
  H   H3342     1.0  0.93946  0.93637  0.33194  1.0000
  H   H3343     1.0  0.74334  0.97431  0.42571  1.0000
  H   H3344     1.0  0.97070  0.88239  0.28581  1.0000
  H   H3345     1.0  0.93022  0.95238  0.40617  1.0000
  C   C4167     1.0  0.84606  0.57363  0.43043  1.0000
  H   H3346     1.0  0.95074  0.51510  0.28727  1.0000
  C   C4168     1.0  0.95356  0.56928  0.35614  1.0000
  C   C4169     1.0  0.97065  0.82111  0.30974  1.0000
  C   C4170     1.0  0.72129  0.93369  0.23568  1.0000
  C   C4171     1.0  0.71612  0.61041  0.23258  1.0000
  C   C4172     1.0  0.95540  0.93966  0.28579  1.0000
  C   C4173     1.0  0.90546  0.54774  0.26912  1.0000
  H   H3347     1.0  0.85701  0.96947  0.29473  1.0000
  H   H3348     1.0  0.80561  0.48185  0.31631  1.0000
  C   C4174     1.0  0.84404  0.49938  0.44154  1.0000
  H   H3349     1.0  0.94331  0.95055  0.36994  1.0000
  C   C4175     1.0  0.67907  0.88214  0.26215  1.0000
  H   H3350     1.0  0.84107  0.59429  0.23922  1.0000
  C   C4176     1.0  0.90209  0.97602  0.39729  1.0000
  C   C4177     1.0  0.87260  0.52426  0.41031  1.0000
  C   C4178     1.0  0.95408  0.52456  0.30545  1.0000
  H   H3351     1.0  0.95950  0.93030  0.27747  1.0000
  H   H3352     1.0  0.88659  0.56215  0.23071  1.0000
  C   C4179     1.0  0.95297  0.82180  0.22994  1.0000
  H   H3353     1.0  0.87252  0.95667  0.25622  1.0000
  C   C4180     1.0  0.75858  0.91152  0.22682  1.0000
  S   S559      1.0  0.85927  0.48701  0.38626  1.0000
  H   H3354     1.0  0.74026  0.85122  0.25737  1.0000
  C   C4181     1.0  0.79143  0.52238  0.41004  1.0000
  C   C4182     1.0  0.98305  0.79351  0.27240  1.0000
  H   H3355     1.0  0.76988  0.81506  0.25702  1.0000
  S   S560      1.0  0.75326  0.54395  0.45693  1.0000
  C   C4183     1.0  0.81941  0.52112  0.38927  1.0000
  H   H3356     1.0  0.83696  0.61137  0.42535  1.0000
  H   H3357     1.0  0.78622  0.91801  0.28737  1.0000
  C   C4184     1.0  0.92036  0.52381  0.41042  1.0000
  H   H3358     1.0  0.93997  0.61813  0.23043  1.0000
  C   C4185     1.0  0.89346  0.55504  0.29553  1.0000
  H   H3359     1.0  0.79639  0.54913  0.32027  1.0000
  H   H3360     1.0  0.78891  0.54809  0.39235  1.0000
  C   C4186     1.0  0.97022  0.50556  0.36047  1.0000
  H   H3361     1.0  0.81259  0.81732  0.25320  1.0000
  C   C4187     1.0  0.75035  0.95913  0.26935  1.0000
  C   C4188     1.0  0.76283  0.52166  0.24296  1.0000
  Fe  Fe282     1.0  0.91881  0.49979  0.34450  1.0000
  C   C4189     1.0  0.96097  0.54082  0.31135  1.0000
  H   H3362     1.0  0.91527  0.71909  0.24195  1.0000
  C   C4190     1.0  0.79844  0.57264  0.43090  1.0000
  C   C4191     1.0  0.96422  0.78070  0.31316  1.0000
  H   H3363     1.0  0.73140  0.53937  0.25370  1.0000
  C   C4192     1.0  0.90299  0.50522  0.24263  1.0000
  P   P137      1.0  0.91433  0.54197  0.25228  1.0000
  C   C4193     1.0  0.97041  0.56027  0.30351  1.0000
  H   H3364     1.0  0.70581  0.88824  0.24508  1.0000
  H   H3365     1.0  0.79271  0.51201  0.33612  1.0000
  C   C4194     1.0  0.75734  0.52358  0.26627  1.0000
  P   P138      1.0  0.85836  0.52509  0.43717  1.0000
  H   H3366     1.0  0.70688  0.59884  0.24049  1.0000
  H   H3367     1.0  0.85181  0.55832  0.45610  1.0000
  H   H3368     1.0  0.93889  0.52366  0.41043  1.0000
  H   H3369     1.0  0.75631  0.52612  0.23366  1.0000
  C   C4195     1.0  0.89441  0.52458  0.24923  1.0000
  C   C4196     1.0  0.88003  0.52417  0.42224  1.0000
  H   H3370     1.0  0.97091  0.89892  0.31642  1.0000
  C   C4197     1.0  0.74137  0.91670  0.23776  1.0000
  C   C4198     1.0  0.95659  0.52752  0.29171  1.0000
  P   P139      1.0  0.74463  0.90154  0.25432  1.0000
  C   C4199     1.0  0.75339  0.92045  0.26352  1.0000
  C   C4200     1.0  0.71638  0.89380  0.26274  1.0000
  C   C4201     1.0  0.70978  0.89297  0.27646  1.0000
  C   C4202     1.0  0.68791  0.88692  0.28295  1.0000
  H   H3371     1.0  0.94486  0.60267  0.29292  1.0000
  C   C4203     1.0  0.89866  0.57383  0.23081  1.0000
  C   C4204     1.0  0.70095  0.88811  0.25565  1.0000
  C   C4205     1.0  0.76810  0.91087  0.27301  1.0000
  C   C4206     1.0  0.77426  0.92543  0.28037  1.0000
  C   C4207     1.0  0.76529  0.94952  0.27859  1.0000
  Fe  Fe283     1.0  0.87071  0.49820  0.33648  1.0000
  C   C4208     1.0  0.74449  0.94470  0.26181  1.0000
  C   C4209     1.0  0.76605  0.87476  0.25360  1.0000
  C   C4210     1.0  0.79032  0.87583  0.25117  1.0000
  C   C4211     1.0  0.80698  0.85519  0.25105  1.0000
  C   C4212     1.0  0.79962  0.83331  0.25317  1.0000
  C   C4213     1.0  0.77553  0.83207  0.25535  1.0000
  C   C4214     1.0  0.75878  0.85269  0.25557  1.0000
  C   C4215     1.0  0.79352  0.50211  0.25562  1.0000
  H   H3372     1.0  0.95221  0.76805  0.31516  1.0000
  C   C4216     1.0  0.74703  0.50808  0.31788  1.0000
  H   H3373     1.0  0.70776  0.93807  0.24393  1.0000
  H   H3374     1.0  0.92175  0.49991  0.23955  1.0000
  H   H3375     1.0  0.72150  0.89694  0.28219  1.0000
  H   H3376     1.0  0.86863  0.95950  0.37871  1.0000
  H   H3377     1.0  0.94202  0.58087  0.24633  1.0000
  C   C4217     1.0  0.94545  0.57781  0.33374  1.0000
  H   H3378     1.0  0.81751  0.48088  0.34839  1.0000
  H   H3379     1.0  0.90481  0.58869  0.28821  1.0000
  H   H3380     1.0  0.95232  0.50403  0.36531  1.0000
  C   C4218     1.0  0.97293  0.81431  0.27729  1.0000
  C   C4219     1.0  0.93387  0.95477  0.28799  1.0000
  C   C4220     1.0  0.96457  0.65338  0.30438  1.0000
  C   C4221     1.0  0.83052  0.59468  0.42770  1.0000
  H   H3381     1.0  0.79452  0.61046  0.42599  1.0000
  C   C4222     1.0  0.88897  0.52387  0.39858  1.0000
  C   C4223     1.0  0.73929  0.60256  0.22684  1.0000
  C   C4224     1.0  0.74886  0.52923  0.25428  1.0000
  C   C4225     1.0  0.97379  0.56262  0.28967  1.0000
  H   H3382     1.0  0.94806  0.81859  0.25113  1.0000
  H   H3383     1.0  0.80713  0.53511  0.43548  1.0000
  H   H3384     1.0  0.97353  0.75635  0.23625  1.0000
  H   H3385     1.0  0.94110  0.97402  0.31517  1.0000
  C   C4226     1.0  0.97783  0.50098  0.34755  1.0000
  H   H3386     1.0  0.91021  0.52480  0.43116  1.0000
  H   H3387     1.0  0.91882  0.57413  0.35120  1.0000
  C   C4227     1.0  0.96010  0.52893  0.23890  1.0000
  C   C4228     1.0  0.80665  0.59419  0.42805  1.0000
  H   H3388     1.0  0.89322  0.51422  0.27683  1.0000
  C   C4229     1.0  0.95523  0.80468  0.31275  1.0000
  H   H3389     1.0  0.79182  0.96627  0.25201  1.0000
  H   H3390     1.0  0.77726  0.52315  0.30750  1.0000
  H   H3391     1.0  0.86297  0.54647  0.25765  1.0000
  C   C4230     1.0  0.95111  0.61647  0.29600  1.0000
  C   C4231     1.0  0.89668  0.93644  0.38764  1.0000
  S   S561      1.0  0.95895  0.49155  0.33903  1.0000
  C   C4232     1.0  0.81897  0.92814  0.23100  1.0000
  C   C4233     1.0  0.94227  0.63987  0.29116  1.0000
  S   S562      1.0  0.69617  0.58609  0.46652  1.0000
  H   H3392     1.0  0.95897  0.53799  0.32203  1.0000
  H   H3393     1.0  0.93273  0.58112  0.32710  1.0000
  Fe  Fe284     1.0  0.75134  0.50865  0.46981  1.0000
  H   H3394     1.0  0.70442  0.48448  0.26042  1.0000
  H   H3395     1.0  0.74816  0.58500  0.23034  1.0000
  C   C4234     1.0  0.88725  0.49275  0.23968  1.0000
  H   H3396     1.0  0.98011  0.51428  0.37743  1.0000
  H   H3397     1.0  0.81981  0.51198  0.45818  1.0000
  H   H3398     1.0  0.89252  0.49024  0.45029  1.0000
  C   C4235     1.0  0.86496  0.54328  0.45872  1.0000
  S   S563      1.0  0.84782  0.49115  0.32285  1.0000
  C   C4236     1.0  0.82585  0.49767  0.45256  1.0000
  C   C4237     1.0  0.91285  0.52351  0.39863  1.0000
  H   H3399     1.0  0.65555  0.87699  0.28082  1.0000
  C   C4238     1.0  0.82378  0.57638  0.22863  1.0000
  H   H3400     1.0  0.96953  0.66768  0.30776  1.0000
  C   C4239     1.0  0.79682  0.67150  0.22376  1.0000
  C   C4240     1.0  0.91629  0.79570  0.23451  1.0000
  H   H3401     1.0  0.86175  0.96336  0.23384  1.0000
  H   H3402     1.0  0.80557  0.97106  0.40556  1.0000
  H   H3403     1.0  0.67697  0.72126  0.22487  1.0000
  H   H3404     1.0  0.85414  0.52444  0.41011  1.0000
  H   H3405     1.0  0.90224  0.78541  0.23641  1.0000
  C   C4241     1.0  0.94247  0.81388  0.24289  1.0000
  H   H3406     1.0  0.68688  0.63913  0.23249  1.0000
  P   P140      1.0  0.98186  0.75205  0.26352  1.0000
  S   S564      1.0  0.75017  0.49026  0.45289  1.0000
  C   C4242     1.0  0.67253  0.88159  0.27579  1.0000
  H   H3407     1.0  0.96362  0.83978  0.30896  1.0000
  C   C4243     1.0  0.87466  0.54203  0.47003  1.0000
  C   C4244     1.0  0.88768  0.50496  0.45562  1.0000
  C   C4245     1.0  0.85303  0.97512  0.24076  1.0000
  H   H3408     1.0  0.77016  0.96079  0.28424  1.0000
  C   C4246     1.0  0.83427  0.59512  0.23025  1.0000
  C   C4247     1.0  0.90402  0.52426  0.42220  1.0000
  P   P141      1.0  0.97964  0.58127  0.31101  1.0000
  H   H3409     1.0  0.98497  0.95656  0.36200  1.0000
  H   H3410     1.0  0.97753  0.47938  0.26758  1.0000
  C   C4248     1.0  0.98546  0.95088  0.34229  1.0000
  C   C4249     1.0  0.80703  0.96987  0.30295  1.0000
  H   H3411     1.0  0.80876  0.97019  0.32326  1.0000
  H   H3412     1.0  0.98344  0.69355  0.23751  1.0000
  H   H3413     1.0  0.75123  0.47889  0.28727  1.0000
  C   C4250     1.0  0.98430  0.67636  0.24371  1.0000
  H   H3414     1.0  0.80825  0.97391  0.28203  1.0000
  C   C4251     1.0  0.89712  0.50368  0.46703  1.0000
  H   H3415     1.0  0.98396  0.82695  0.27762  1.0000
  C   C4252     1.0  0.98563  0.57318  0.33760  1.0000
  H   H3416     1.0  0.86654  0.48068  0.42649  1.0000
  C   C4253     1.0  0.88471  0.97769  0.38955  1.0000
  H   H3417     1.0  0.92766  0.97767  0.42621  1.0000
  C   C4254     1.0  0.85218  0.48013  0.43482  1.0000
  H   H3418     1.0  0.90914  0.48814  0.47046  1.0000
  H   H3419     1.0  0.97827  0.59145  0.22515  1.0000
  H   H3420     1.0  0.72841  0.62345  0.56375  1.0000
  Fe  Fe285     1.0  0.72844  0.88852  0.62499  1.0000
  S   S565      1.0  0.76227  0.88099  0.61075  1.0000
  S   S566      1.0  0.72925  0.89146  0.64632  1.0000
  Fe  Fe286     1.0  0.69790  0.88954  0.60400  1.0000
  S   S567      1.0  0.72933  0.88331  0.58820  1.0000
  Fe  Fe287     1.0  0.74417  0.85598  0.60411  1.0000
  S   S568      1.0  0.76420  0.82078  0.59907  1.0000
  Fe  Fe288     1.0  0.74456  0.90879  0.59623  1.0000
  S   S569      1.0  0.75791  0.94173  0.58439  1.0000
  S   S570      1.0  0.71186  0.86090  0.61964  1.0000
  S   S571      1.0  0.71157  0.91750  0.61076  1.0000
  Fe  Fe289     1.0  0.72621  0.64343  0.61196  1.0000
  S   S572      1.0  0.75367  0.66521  0.61206  1.0000
  S   S573      1.0  0.71872  0.61106  0.62723  1.0000
  Fe  Fe290     1.0  0.71247  0.67238  0.58580  1.0000
  S   S574      1.0  0.73921  0.69600  0.58404  1.0000
  C   C4255     1.0  0.77576  0.49532  0.64795  1.0000
  Fe  Fe291     1.0  0.76365  0.66278  0.59035  1.0000
  S   S575      1.0  0.80107  0.65582  0.57916  1.0000
  Fe  Fe292     1.0  0.72664  0.69636  0.60566  1.0000
  S   S576      1.0  0.71379  0.72992  0.61446  1.0000
  S   S577      1.0  0.73780  0.63913  0.59058  1.0000
  S   S578      1.0  0.69820  0.67458  0.60718  1.0000
  C   C4256     1.0  0.88949  0.97560  0.59535  1.0000
  Fe  Fe293     1.0  0.74369  0.55690  0.69899  1.0000
  S   S579      1.0  0.77392  0.54377  0.71021  1.0000
  S   S580      1.0  0.74570  0.59149  0.68472  1.0000
  Fe  Fe294     1.0  0.77120  0.50799  0.70645  1.0000
  H   H3421     1.0  0.84340  0.94626  0.60807  1.0000
  H   H3422     1.0  0.81054  0.49149  0.56657  1.0000
  S   S581      1.0  0.74262  0.52163  0.69409  1.0000
  C   C4257     1.0  0.70283  0.78847  0.56958  1.0000
  C   C4258     1.0  0.80131  0.52735  0.48484  1.0000
  H   H3423     1.0  0.79426  0.53629  0.47604  1.0000
  Fe  Fe295     1.0  0.85843  0.53767  0.55155  1.0000
  S   S582      1.0  0.87539  0.55540  0.53187  1.0000
  S   S583      1.0  0.82901  0.55144  0.56707  1.0000
  H   H3424     1.0  0.95775  0.60095  0.60698  1.0000
  S   S584      1.0  0.90284  0.50285  0.52652  1.0000
  Fe  Fe296     1.0  0.90916  0.53139  0.53638  1.0000
  S   S585      1.0  0.94376  0.54651  0.53130  1.0000
  Fe  Fe297     1.0  0.86770  0.52562  0.52356  1.0000
  S   S586      1.0  0.85212  0.53559  0.50437  1.0000
  S   S587      1.0  0.89248  0.51606  0.55676  1.0000
  S   S588      1.0  0.84861  0.50962  0.54300  1.0000
  H   H3425     1.0  0.71493  0.63654  0.47384  1.0000
  C   C4259     1.0  0.96716  0.54251  0.54049  1.0000
  C   C4260     1.0  0.96840  0.52607  0.55216  1.0000
  H   H3426     1.0  0.95466  0.51534  0.55592  1.0000
  C   C4261     1.0  0.79323  0.50679  0.49201  1.0000
  C   C4262     1.0  0.92104  0.48000  0.65449  1.0000
  C   C4263     1.0  0.81999  0.50454  0.50766  1.0000
  C   C4264     1.0  0.82869  0.52462  0.50024  1.0000
  C   C4265     1.0  0.81897  0.53611  0.48891  1.0000
  C   C4266     1.0  0.94862  0.56024  0.58418  1.0000
  H   H3427     1.0  0.73040  0.68980  0.50759  1.0000
  H   H3428     1.0  0.70449  0.60349  0.58352  1.0000
  H   H3429     1.0  0.89572  0.55669  0.66811  1.0000
  C   C4267     1.0  0.68361  0.66866  0.65196  1.0000
  H   H3430     1.0  0.69101  0.74284  0.52856  1.0000
  S   S589      1.0  0.68215  0.50405  0.71578  1.0000
  C   C4268     1.0  0.68096  0.79407  0.67547  1.0000
  H   H3431     1.0  0.68256  0.57170  0.52217  1.0000
  C   C4269     1.0  0.78992  0.92513  0.50089  1.0000
  C   C4270     1.0  0.74104  0.62337  0.71440  1.0000
  C   C4271     1.0  0.83628  0.60062  0.60881  1.0000
  C   C4272     1.0  0.67340  0.62164  0.52551  1.0000
  C   C4273     1.0  0.78744  0.94682  0.58070  1.0000
  C   C4274     1.0  0.67277  0.74899  0.58937  1.0000
  H   H3432     1.0  0.66870  0.69089  0.54638  1.0000
  H   H3433     1.0  0.74618  0.81196  0.54221  1.0000
  H   H3434     1.0  0.68639  0.77989  0.51220  1.0000
  C   C4275     1.0  0.75784  0.94018  0.52242  1.0000
  S   S590      1.0  0.71169  0.51530  0.47541  1.0000
  H   H3435     1.0  0.78760  0.91633  0.65053  1.0000
  C   C4276     1.0  0.73025  0.66232  0.53835  1.0000
  C   C4277     1.0  0.80965  0.62690  0.57572  1.0000
  C   C4278     1.0  0.79735  0.60909  0.58297  1.0000
  C   C4279     1.0  0.80369  0.58623  0.58009  1.0000
  C   C4280     1.0  0.82261  0.58066  0.57011  1.0000
  C   C4281     1.0  0.83553  0.59824  0.56302  1.0000
  C   C4282     1.0  0.82895  0.62142  0.56579  1.0000
  H   H3436     1.0  0.78310  0.61280  0.59097  1.0000
  H   H3437     1.0  0.79381  0.57279  0.58563  1.0000
  H   H3438     1.0  0.85034  0.59405  0.55537  1.0000
  H   H3439     1.0  0.83865  0.63514  0.56019  1.0000
  H   H3440     1.0  0.98174  0.53857  0.50722  1.0000
  C   C4283     1.0  0.75821  0.63805  0.52421  1.0000
  C   C4284     1.0  0.73810  0.56845  0.55555  1.0000
  H   H3441     1.0  0.66751  0.79280  0.67005  1.0000
  H   H3442     1.0  0.94642  0.54962  0.57730  1.0000
  C   C4285     1.0  0.72727  0.60548  0.64297  1.0000
  C   C4286     1.0  0.73711  0.62189  0.64723  1.0000
  C   C4287     1.0  0.74248  0.61741  0.66010  1.0000
  C   C4288     1.0  0.73855  0.59632  0.66870  1.0000
  C   C4289     1.0  0.72900  0.57977  0.66439  1.0000
  C   C4290     1.0  0.72319  0.58446  0.65162  1.0000
  H   H3443     1.0  0.74007  0.63824  0.64072  1.0000
  H   H3444     1.0  0.74978  0.63030  0.66339  1.0000
  H   H3445     1.0  0.72588  0.56350  0.67094  1.0000
  H   H3446     1.0  0.71535  0.57181  0.64845  1.0000
  H   H3447     1.0  0.80355  0.91075  0.58612  1.0000
  C   C4291     1.0  0.95516  0.58919  0.60085  1.0000
  H   H3448     1.0  0.67418  0.87726  0.57643  1.0000
  C   C4292     1.0  0.67412  0.96385  0.71249  1.0000
  C   C4293     1.0  0.74997  0.79563  0.60332  1.0000
  C   C4294     1.0  0.72578  0.79742  0.60829  1.0000
  C   C4295     1.0  0.71489  0.77721  0.61133  1.0000
  C   C4296     1.0  0.72797  0.75505  0.60935  1.0000
  C   C4297     1.0  0.75216  0.75322  0.60434  1.0000
  C   C4298     1.0  0.76312  0.77343  0.60141  1.0000
  H   H3449     1.0  0.71541  0.81440  0.60972  1.0000
  H   H3450     1.0  0.69620  0.77876  0.61515  1.0000
  H   H3451     1.0  0.76247  0.73620  0.60290  1.0000
  H   H3452     1.0  0.78184  0.77188  0.59755  1.0000
  C   C4299     1.0  0.67994  0.67183  0.67501  1.0000
  C   C4300     1.0  0.67798  0.64780  0.67881  1.0000
  C   C4301     1.0  0.72762  0.94011  0.64140  1.0000
  C   C4302     1.0  0.73031  0.91913  0.65050  1.0000
  C   C4303     1.0  0.73420  0.92009  0.66319  1.0000
  C   C4304     1.0  0.73534  0.94172  0.66675  1.0000
  C   C4305     1.0  0.78603  0.93048  0.61759  1.0000
  H   H3453     1.0  0.72484  0.93971  0.63157  1.0000
  H   H3454     1.0  0.73651  0.90404  0.67026  1.0000
  C   C4306     1.0  0.90765  0.55484  0.65885  1.0000
  H   H3455     1.0  0.67311  0.91457  0.55310  1.0000
  C   C4307     1.0  0.73330  0.70867  0.67109  1.0000
  C   C4308     1.0  0.73686  0.69709  0.66025  1.0000
  C   C4309     1.0  0.73366  0.71004  0.64782  1.0000
  C   C4310     1.0  0.72689  0.73451  0.64624  1.0000
  C   C4311     1.0  0.72326  0.74636  0.65702  1.0000
  C   C4312     1.0  0.72657  0.73322  0.66950  1.0000
  P   P142      1.0  0.71442  0.77813  0.65463  1.0000
  C   C4313     1.0  0.70504  0.78793  0.67043  1.0000
  C   C4314     1.0  0.73875  0.79297  0.64571  1.0000
  C   C4315     1.0  0.75717  0.78187  0.63707  1.0000
  C   C4316     1.0  0.77552  0.79379  0.63003  1.0000
  C   C4317     1.0  0.77559  0.81692  0.63146  1.0000
  C   C4318     1.0  0.75740  0.82811  0.64004  1.0000
  C   C4319     1.0  0.73904  0.81625  0.64711  1.0000
  C   C4320     1.0  0.72202  0.78977  0.67775  1.0000
  C   C4321     1.0  0.71500  0.79776  0.68988  1.0000
  C   C4322     1.0  0.96555  0.47896  0.60982  1.0000
  C   C4323     1.0  0.72248  0.61119  0.72066  1.0000
  H   H3456     1.0  0.91809  0.48338  0.60021  1.0000
  C   C4324     1.0  0.69024  0.78675  0.64538  1.0000
  C   C4325     1.0  0.67592  0.77051  0.64481  1.0000
  H   H3457     1.0  0.67762  0.86859  0.68677  1.0000
  C   C4326     1.0  0.76730  0.96825  0.54940  1.0000
  C   C4327     1.0  0.67933  0.58710  0.69540  1.0000
  C   C4328     1.0  0.68526  0.81008  0.63887  1.0000
  H   H3458     1.0  0.73585  0.69862  0.68072  1.0000
  H   H3459     1.0  0.79807  0.57776  0.67451  1.0000
  H   H3460     1.0  0.73630  0.70120  0.63935  1.0000
  H   H3461     1.0  0.72442  0.74429  0.63657  1.0000
  H   H3462     1.0  0.72394  0.74175  0.67803  1.0000
  H   H3463     1.0  0.75731  0.76430  0.63539  1.0000
  H   H3464     1.0  0.78920  0.78546  0.62300  1.0000
  H   H3465     1.0  0.78937  0.82638  0.62560  1.0000
  H   H3466     1.0  0.75723  0.84622  0.64095  1.0000
  H   H3467     1.0  0.72482  0.82556  0.65342  1.0000
  H   H3468     1.0  0.74070  0.78510  0.67403  1.0000
  H   H3469     1.0  0.72819  0.79930  0.69543  1.0000
  C   C4329     1.0  0.85345  0.96055  0.60604  1.0000
  C   C4330     1.0  0.66339  0.57159  0.48826  1.0000
  H   H3470     1.0  0.67809  0.93585  0.57033  1.0000
  H   H3471     1.0  0.67904  0.75249  0.64986  1.0000
  H   H3472     1.0  0.75717  0.97509  0.51066  1.0000
  H   H3473     1.0  0.75913  0.86673  0.69396  1.0000
  H   H3474     1.0  0.71811  0.94000  0.57270  1.0000
  H   H3475     1.0  0.69568  0.82303  0.63934  1.0000
  C   C4331     1.0  0.72185  0.87793  0.70088  1.0000
  C   C4332     1.0  0.67254  0.68295  0.51646  1.0000
  H   H3476     1.0  0.71857  0.75167  0.57040  1.0000
  C   C4333     1.0  0.80249  0.49564  0.50352  1.0000
  C   C4334     1.0  0.76534  0.52240  0.55094  1.0000
  C   C4335     1.0  0.80184  0.54172  0.67182  1.0000
  P   P143      1.0  0.75470  0.55184  0.54290  1.0000
  C   C4336     1.0  0.77974  0.56571  0.53399  1.0000
  C   C4337     1.0  0.73624  0.54929  0.53150  1.0000
  C   C4338     1.0  0.74455  0.53341  0.52252  1.0000
  C   C4339     1.0  0.73083  0.53175  0.51338  1.0000
  C   C4340     1.0  0.79348  0.57421  0.54096  1.0000
  C   C4341     1.0  0.81356  0.58375  0.53431  1.0000
  C   C4342     1.0  0.81986  0.58543  0.52062  1.0000
  C   C4343     1.0  0.80595  0.57772  0.51354  1.0000
  C   C4344     1.0  0.78613  0.56771  0.52017  1.0000
  H   H3477     1.0  0.65942  0.65700  0.58704  1.0000
  C   C4345     1.0  0.65308  0.66245  0.57771  1.0000
  H   H3478     1.0  0.73548  0.50744  0.54892  1.0000
  H   H3479     1.0  0.76188  0.52258  0.52240  1.0000
  H   H3480     1.0  0.78908  0.57298  0.55162  1.0000
  H   H3481     1.0  0.82448  0.58945  0.53983  1.0000
  H   H3482     1.0  0.83583  0.59215  0.51550  1.0000
  H   H3483     1.0  0.81123  0.57846  0.50295  1.0000
  H   H3484     1.0  0.77641  0.56117  0.51439  1.0000
  H   H3485     1.0  0.72310  0.53883  0.56786  1.0000
  C   C4346     1.0  0.85966  0.57961  0.62542  1.0000
  C   C4347     1.0  0.83868  0.59343  0.62208  1.0000
  C   C4348     1.0  0.85491  0.59422  0.59885  1.0000
  C   C4349     1.0  0.87643  0.58121  0.60207  1.0000
  C   C4350     1.0  0.87841  0.57339  0.61545  1.0000
  P   P144      1.0  0.89954  0.57050  0.58939  1.0000
  C   C4351     1.0  0.89709  0.58779  0.57327  1.0000
  C   C4352     1.0  0.92885  0.57219  0.59162  1.0000
  C   C4353     1.0  0.93227  0.58719  0.59969  1.0000
  C   C4354     1.0  0.89144  0.61248  0.57175  1.0000
  C   C4355     1.0  0.89074  0.62605  0.55917  1.0000
  C   C4356     1.0  0.89621  0.61510  0.54801  1.0000
  C   C4357     1.0  0.90246  0.59061  0.54943  1.0000
  C   C4358     1.0  0.90294  0.57695  0.56200  1.0000
  C   C4359     1.0  0.89506  0.54077  0.59015  1.0000
  C   C4360     1.0  0.91104  0.52122  0.59489  1.0000
  C   C4361     1.0  0.90586  0.49845  0.59650  1.0000
  C   C4362     1.0  0.88468  0.49507  0.59353  1.0000
  C   C4363     1.0  0.86859  0.51446  0.58902  1.0000
  C   C4364     1.0  0.87376  0.53722  0.58734  1.0000
  H   H3486     1.0  0.86119  0.57343  0.63573  1.0000
  H   H3487     1.0  0.82411  0.59830  0.62976  1.0000
  H   H3488     1.0  0.89425  0.56200  0.61814  1.0000
  H   H3489     1.0  0.91731  0.59783  0.60477  1.0000
  H   H3490     1.0  0.88754  0.62130  0.58026  1.0000
  H   H3491     1.0  0.88593  0.64505  0.55807  1.0000
  H   H3492     1.0  0.89578  0.62556  0.53825  1.0000
  H   H3493     1.0  0.90715  0.58220  0.54075  1.0000
  H   H3494     1.0  0.90830  0.55804  0.56284  1.0000
  H   H3495     1.0  0.92720  0.52336  0.59765  1.0000
  H   H3496     1.0  0.67076  0.49032  0.48488  1.0000
  H   H3497     1.0  0.68561  0.81032  0.70415  1.0000
  H   H3498     1.0  0.85226  0.51189  0.58659  1.0000
  H   H3499     1.0  0.86105  0.55212  0.58393  1.0000
  C   C4365     1.0  0.68136  0.64487  0.65566  1.0000
  C   C4366     1.0  0.65560  0.93753  0.49414  1.0000
  H   H3500     1.0  0.79233  0.93661  0.55351  1.0000
  H   H3501     1.0  0.73706  0.59984  0.51752  1.0000
  S   S591      1.0  0.65925  0.89567  0.60197  1.0000
  H   H3502     1.0  0.78627  0.94507  0.69331  1.0000
  H   H3503     1.0  0.70119  0.91357  0.51517  1.0000
  H   H3504     1.0  0.73477  0.56818  0.61563  1.0000
  H   H3505     1.0  0.86918  0.55603  0.47590  1.0000
  C   C4367     1.0  0.73269  0.60825  0.50794  1.0000
  H   H3506     1.0  0.75699  0.62038  0.71865  1.0000
  C   C4368     1.0  0.72435  0.55729  0.56678  1.0000
  C   C4369     1.0  0.67875  0.63438  0.66900  1.0000
  C   C4370     1.0  0.75777  0.50101  0.65847  1.0000
  S   S592      1.0  0.86332  0.96239  0.56780  1.0000
  C   C4371     1.0  0.70856  0.54565  0.51324  1.0000
  C   C4372     1.0  0.66676  0.67438  0.56685  1.0000
  C   C4373     1.0  0.71363  0.56289  0.53147  1.0000
  H   H3507     1.0  0.78933  0.56826  0.63636  1.0000
  H   H3508     1.0  0.78023  0.92454  0.60983  1.0000
  C   C4374     1.0  0.67268  0.59051  0.47984  1.0000
  C   C4375     1.0  0.87604  0.95745  0.59843  1.0000
  C   C4376     1.0  0.66487  0.72899  0.59736  1.0000
  C   C4377     1.0  0.66330  0.60692  0.69886  1.0000
  H   H3509     1.0  0.65540  0.80699  0.69139  1.0000
  H   H3510     1.0  0.66989  0.62836  0.47537  1.0000
  H   H3511     1.0  0.73854  0.94223  0.67646  1.0000
  C   C4378     1.0  0.73218  0.60570  0.48524  1.0000
  C   C4379     1.0  0.74357  0.77277  0.57201  1.0000
  H   H3512     1.0  0.75547  0.96396  0.55850  1.0000
  C   C4380     1.0  0.84190  0.51681  0.62778  1.0000
  H   H3513     1.0  0.68795  0.60494  0.72001  1.0000
  H   H3514     1.0  0.67809  0.96420  0.69154  1.0000
  H   H3515     1.0  0.67825  0.81859  0.51968  1.0000
  C   C4381     1.0  0.73224  0.96271  0.65772  1.0000
  S   S593      1.0  0.80638  0.48497  0.70033  1.0000
  C   C4382     1.0  0.80661  0.92861  0.58220  1.0000
  C   C4383     1.0  0.69723  0.67678  0.51480  1.0000
  P   P145      1.0  0.67461  0.78409  0.56702  1.0000
  H   H3516     1.0  0.76455  0.79794  0.57377  1.0000
  C   C4384     1.0  0.68471  0.76077  0.54524  1.0000
  C   C4385     1.0  0.68739  0.75980  0.53178  1.0000
  C   C4386     1.0  0.68493  0.78062  0.52258  1.0000
  H   H3517     1.0  0.71201  0.85046  0.67200  1.0000
  C   C4387     1.0  0.98110  0.49244  0.60103  1.0000
  H   H3518     1.0  0.79047  0.59447  0.65177  1.0000
  C   C4388     1.0  0.77112  0.65212  0.54137  1.0000
  H   H3519     1.0  0.73606  0.59552  0.47726  1.0000
  S   S594      1.0  0.78393  0.96489  0.71939  1.0000
  H   H3520     1.0  0.71036  0.90777  0.48459  1.0000
  C   C4389     1.0  0.66684  0.81691  0.63154  1.0000
  P   P146      1.0  0.79509  0.51615  0.63959  1.0000
  H   H3521     1.0  0.81985  0.61093  0.60617  1.0000
  C   C4390     1.0  0.74484  0.82931  0.53612  1.0000
  C   C4391     1.0  0.73437  0.83358  0.52484  1.0000
  C   C4392     1.0  0.73252  0.85594  0.51700  1.0000
  C   C4393     1.0  0.74111  0.87404  0.52047  1.0000
  C   C4394     1.0  0.75143  0.87004  0.53189  1.0000
  C   C4395     1.0  0.75325  0.84746  0.53969  1.0000
  P   P147      1.0  0.75885  0.89464  0.53735  1.0000
  C   C4396     1.0  0.78228  0.88537  0.54711  1.0000
  C   C4397     1.0  0.76734  0.91612  0.52298  1.0000
  C   C4398     1.0  0.78338  0.90872  0.51210  1.0000
  C   C4399     1.0  0.73760  0.85663  0.68250  1.0000
  C   C4400     1.0  0.73485  0.64880  0.52821  1.0000
  H   H3522     1.0  0.82524  0.55183  0.48317  1.0000
  C   C4401     1.0  0.76020  0.92259  0.70184  1.0000
  C   C4402     1.0  0.80466  0.89199  0.54238  1.0000
  C   C4403     1.0  0.82178  0.88669  0.55058  1.0000
  C   C4404     1.0  0.81676  0.87466  0.56351  1.0000
  C   C4405     1.0  0.79464  0.86780  0.56826  1.0000
  C   C4406     1.0  0.77747  0.87321  0.56012  1.0000
  C   C4407     1.0  0.73315  0.90774  0.54774  1.0000
  C   C4408     1.0  0.73576  0.92057  0.55715  1.0000
  C   C4409     1.0  0.69534  0.86777  0.68859  1.0000
  C   C4410     1.0  0.70007  0.63039  0.70312  1.0000
  H   H3523     1.0  0.80235  0.91939  0.49252  1.0000
  C   C4411     1.0  0.98372  0.51245  0.61863  1.0000
  C   C4412     1.0  0.65313  0.66004  0.71705  1.0000
  C   C4413     1.0  0.96770  0.49931  0.62747  1.0000
  H   H3524     1.0  0.72413  0.85936  0.50831  1.0000
  H   H3525     1.0  0.73925  0.89128  0.51432  1.0000
  H   H3526     1.0  0.76091  0.84374  0.54857  1.0000
  H   H3527     1.0  0.79087  0.89025  0.51231  1.0000
  C   C4414     1.0  0.69334  0.92857  0.56379  1.0000
  C   C4415     1.0  0.72914  0.81452  0.57133  1.0000
  C   C4416     1.0  0.71887  0.64248  0.69687  1.0000
  H   H3528     1.0  0.69746  0.58863  0.69104  1.0000
  H   H3529     1.0  0.80886  0.90176  0.53252  1.0000
  H   H3530     1.0  0.83887  0.89224  0.54698  1.0000
  H   H3531     1.0  0.82993  0.87084  0.56990  1.0000
  H   H3532     1.0  0.79065  0.85856  0.57833  1.0000
  H   H3533     1.0  0.76021  0.86835  0.56413  1.0000
  H   H3534     1.0  0.75310  0.92213  0.55860  1.0000
  H   H3535     1.0  0.88277  0.94129  0.59445  1.0000
  H   H3536     1.0  0.71821  0.65408  0.68748  1.0000
  H   H3537     1.0  0.80459  0.95292  0.64570  1.0000
  H   H3538     1.0  0.79090  0.52807  0.59197  1.0000
  P   P148      1.0  0.95935  0.50382  0.64449  1.0000
  H   H3539     1.0  0.87822  0.51790  0.61892  1.0000
  C   C4417     1.0  0.72031  0.62890  0.48331  1.0000
  H   H3540     1.0  0.69321  0.82639  0.56856  1.0000
  H   H3541     1.0  0.85216  0.59908  0.58867  1.0000
  C   C4418     1.0  0.93837  0.54989  0.63498  1.0000
  C   C4419     1.0  0.69990  0.56106  0.52233  1.0000
  Fe  Fe298     1.0  0.71754  0.51631  0.71360  1.0000
  C   C4420     1.0  0.92344  0.53385  0.65766  1.0000
  H   H3542     1.0  0.74915  0.60170  0.54579  1.0000
  H   H3543     1.0  0.83620  0.53525  0.62403  1.0000
  C   C4421     1.0  0.79277  0.56058  0.64622  1.0000
  H   H3544     1.0  0.79746  0.96093  0.60470  1.0000
  C   C4422     1.0  0.73905  0.59254  0.55441  1.0000
  H   H3545     1.0  0.84470  0.91945  0.57943  1.0000
  C   C4423     1.0  0.66583  0.75740  0.57698  1.0000
  C   C4424     1.0  0.72721  0.60498  0.56455  1.0000
  H   H3546     1.0  0.70666  0.57515  0.53832  1.0000
  C   C4425     1.0  0.72092  0.63166  0.50609  1.0000
  C   C4426     1.0  0.78312  0.92786  0.69873  1.0000
  C   C4427     1.0  0.78815  0.95249  0.54649  1.0000
  C   C4428     1.0  0.79377  0.57553  0.65486  1.0000
  C   C4429     1.0  0.68675  0.92532  0.51984  1.0000
  H   H3547     1.0  0.68696  0.74439  0.55218  1.0000
  C   C4430     1.0  0.78300  0.53029  0.62492  1.0000
  C   C4431     1.0  0.71218  0.56991  0.57681  1.0000
  C   C4432     1.0  0.71373  0.59371  0.57572  1.0000
  H   H3548     1.0  0.91123  0.49370  0.64816  1.0000
  H   H3549     1.0  0.75395  0.64784  0.69750  1.0000
  C   C4433     1.0  0.81481  0.97472  0.57159  1.0000
  C   C4434     1.0  0.78360  0.91766  0.63043  1.0000
  C   C4435     1.0  0.79034  0.92587  0.64049  1.0000
  C   C4436     1.0  0.82988  0.93356  0.57836  1.0000
  C   C4437     1.0  0.73925  0.63897  0.70251  1.0000
  H   H3550     1.0  0.73758  0.51980  0.50631  1.0000
  P   P149      1.0  0.71090  0.64687  0.52011  1.0000
  C   C4438     1.0  0.71131  0.69419  0.50896  1.0000
  H   H3551     1.0  0.73206  0.83189  0.57197  1.0000
  H   H3552     1.0  0.70165  0.56122  0.58547  1.0000
  P   P150      1.0  0.67331  0.63504  0.69621  1.0000
  C   C4439     1.0  0.70169  0.94568  0.48294  1.0000
  H   H3553     1.0  0.80955  0.51101  0.61158  1.0000
  H   H3554     1.0  0.74560  0.94647  0.53066  1.0000
  C   C4440     1.0  0.76431  0.95650  0.51113  1.0000
  C   C4441     1.0  0.65749  0.77737  0.63746  1.0000
  C   C4442     1.0  0.79565  0.95123  0.61473  1.0000
  C   C4443     1.0  0.79994  0.94670  0.63769  1.0000
  C   C4444     1.0  0.86575  0.50703  0.62486  1.0000
  H   H3555     1.0  0.74202  0.67808  0.66145  1.0000
  C   C4445     1.0  0.67401  0.80212  0.68759  1.0000
  C   C4446     1.0  0.73846  0.59541  0.49753  1.0000
  C   C4447     1.0  0.80295  0.95935  0.62472  1.0000
  C   C4448     1.0  0.70700  0.81120  0.56970  1.0000
  H   H3556     1.0  0.74425  0.67366  0.55309  1.0000
  P   P151      1.0  0.72629  0.89355  0.71317  1.0000
  C   C4449     1.0  0.67346  0.91830  0.49208  1.0000
  C   C4450     1.0  0.67216  0.56508  0.69765  1.0000
  C   C4451     1.0  0.76150  0.54898  0.60259  1.0000
  C   C4452     1.0  0.90732  0.57343  0.64817  1.0000
  H   H3557     1.0  0.67084  0.55371  0.48685  1.0000
  C   C4453     1.0  0.66699  0.61890  0.55290  1.0000
  H   H3558     1.0  0.94997  0.54842  0.62563  1.0000
  H   H3559     1.0  0.89516  0.58976  0.64914  1.0000
  C   C4454     1.0  0.68388  0.96488  0.48523  1.0000
  C   C4455     1.0  0.67615  0.72339  0.50660  1.0000
  C   C4456     1.0  0.78043  0.94902  0.50042  1.0000
  H   H3560     1.0  0.68476  0.54979  0.69510  1.0000
  H   H3561     1.0  0.74729  0.57727  0.49901  1.0000
  S   S595      1.0  0.66793  0.88881  0.49695  1.0000
  C   C4457     1.0  0.68881  0.63102  0.53098  1.0000
  C   C4458     1.0  0.82553  0.50285  0.63550  1.0000
  H   H3562     1.0  0.72793  0.49025  0.67239  1.0000
  C   C4459     1.0  0.74819  0.66366  0.54503  1.0000
  H   H3563     1.0  0.78497  0.65306  0.54665  1.0000
  H   H3564     1.0  0.67377  0.82046  0.54344  1.0000
  H   H3565     1.0  0.72762  0.81957  0.52218  1.0000
  C   C4460     1.0  0.92275  0.57100  0.63629  1.0000
  C   C4461     1.0  0.79337  0.52363  0.61262  1.0000
  H   H3566     1.0  0.81944  0.91591  0.70102  1.0000
  H   H3567     1.0  0.71267  0.67180  0.54117  1.0000
  S   S596      1.0  0.77210  0.49401  0.48688  1.0000
  C   C4462     1.0  0.79598  0.53607  0.65044  1.0000
  C   C4463     1.0  0.78263  0.53295  0.60150  1.0000
  C   C4464     1.0  0.83404  0.95663  0.57295  1.0000
  C   C4465     1.0  0.72852  0.96174  0.64501  1.0000
  C   C4466     1.0  0.72133  0.76931  0.57062  1.0000
  C   C4467     1.0  0.70077  0.71744  0.50491  1.0000
  H   H3568     1.0  0.75342  0.55655  0.59391  1.0000
  H   H3569     1.0  0.77591  0.90169  0.63266  1.0000
  H   H3570     1.0  0.70484  0.65958  0.49204  1.0000
  C   C4468     1.0  0.93886  0.53111  0.64569  1.0000
  H   H3571     1.0  0.69805  0.54455  0.50604  1.0000
  C   C4469     1.0  0.75106  0.55561  0.61480  1.0000
  C   C4470     1.0  0.77620  0.63971  0.53080  1.0000
  C   C4471     1.0  0.71467  0.64189  0.49368  1.0000
  C   C4472     1.0  0.67886  0.78263  0.54963  1.0000
  H   H3572     1.0  0.71168  0.73084  0.50048  1.0000
  C   C4473     1.0  0.76160  0.54610  0.62596  1.0000
  H   H3573     1.0  0.79416  0.63141  0.52771  1.0000
  H   H3574     1.0  0.76283  0.62854  0.51599  1.0000
  H   H3575     1.0  0.66406  0.61849  0.56349  1.0000
  H   H3576     1.0  0.68207  0.63440  0.64811  1.0000
  H   H3577     1.0  0.82026  0.94559  0.53261  1.0000
  C   C4474     1.0  0.69645  0.92252  0.48630  1.0000
  C   C4475     1.0  0.71591  0.93088  0.56514  1.0000
  C   C4476     1.0  0.74121  0.86685  0.69275  1.0000
  H   H3578     1.0  0.70525  0.92641  0.69195  1.0000
  H   H3579     1.0  0.92366  0.51978  0.66615  1.0000
  H   H3580     1.0  0.70779  0.89526  0.53952  1.0000
  H   H3581     1.0  0.96887  0.53206  0.66262  1.0000
  C   C4477     1.0  0.71471  0.85741  0.68031  1.0000
  C   C4478     1.0  0.71039  0.90545  0.54646  1.0000
  H   H3582     1.0  0.74598  0.93585  0.69861  1.0000
  Fe  Fe299     1.0  0.88389  0.48921  0.54681  1.0000
  C   C4479     1.0  0.79812  0.56612  0.66768  1.0000
  H   H3583     1.0  0.69629  0.63712  0.54935  1.0000
  H   H3584     1.0  0.67748  0.61583  0.67151  1.0000
  H   H3585     1.0  0.66294  0.90012  0.52440  1.0000
  C   C4480     1.0  0.74747  0.79536  0.57236  1.0000
  H   H3586     1.0  0.67511  0.62303  0.51489  1.0000
  C   C4481     1.0  0.75582  0.90068  0.70927  1.0000
  H   H3587     1.0  0.71953  0.94866  0.47874  1.0000
  C   C4482     1.0  0.69059  0.91621  0.55428  1.0000
  H   H3588     1.0  0.79677  0.53120  0.55546  1.0000
  C   C4483     1.0  0.70521  0.92067  0.71306  1.0000
  C   C4484     1.0  0.67748  0.80346  0.54028  1.0000
  C   C4485     1.0  0.79773  0.88940  0.71031  1.0000
  C   C4486     1.0  0.87334  0.48317  0.62940  1.0000
  C   C4487     1.0  0.65574  0.88519  0.57742  1.0000
  C   C4488     1.0  0.80096  0.52673  0.66320  1.0000
  C   C4489     1.0  0.78625  0.51765  0.55628  1.0000
  C   C4490     1.0  0.89058  0.52221  0.47424  1.0000
  H   H3589     1.0  0.68429  0.75779  0.59289  1.0000
  C   C4491     1.0  0.75202  0.50421  0.55259  1.0000
  S   S597      1.0  0.69463  0.68052  0.56772  1.0000
  H   H3590     1.0  0.67931  0.68256  0.68240  1.0000
  H   H3591     1.0  0.82716  0.49553  0.51642  1.0000
  H   H3592     1.0  0.70647  0.95385  0.51645  1.0000
  H   H3593     1.0  0.92255  0.58557  0.62810  1.0000
  H   H3594     1.0  0.67046  0.72252  0.60686  1.0000
  C   C4492     1.0  0.80392  0.95758  0.53478  1.0000
  C   C4493     1.0  0.97475  0.57663  0.59373  1.0000
  C   C4494     1.0  0.68279  0.68217  0.66164  1.0000
  C   C4495     1.0  0.68543  0.62949  0.54477  1.0000
  C   C4496     1.0  0.83344  0.47920  0.64048  1.0000
  H   H3595     1.0  0.75296  0.55101  0.63541  1.0000
  S   S598      1.0  0.71623  0.55296  0.71741  1.0000
  H   H3596     1.0  0.68612  0.67654  0.64157  1.0000
  H   H3597     1.0  0.75766  0.75783  0.57310  1.0000
  H   H3598     1.0  0.75258  0.84899  0.67589  1.0000
  H   H3599     1.0  0.66784  0.74137  0.50352  1.0000
  H   H3600     1.0  0.75584  0.51744  0.66207  1.0000
  C   C4497     1.0  0.68961  0.94808  0.52048  1.0000
  C   C4498     1.0  0.70208  0.61467  0.71506  1.0000
  C   C4499     1.0  0.69832  0.93306  0.70113  1.0000
  C   C4500     1.0  0.79169  0.96987  0.57552  1.0000
  C   C4501     1.0  0.68030  0.80245  0.52681  1.0000
  H   H3601     1.0  0.78561  0.96182  0.49177  1.0000
  C   C4502     1.0  0.66212  0.70609  0.51230  1.0000
  H   H3602     1.0  0.77198  0.86679  0.71888  1.0000
  H   H3603     1.0  0.96973  0.49951  0.51557  1.0000
  C   C4503     1.0  0.69886  0.87788  0.69889  1.0000
  H   H3604     1.0  0.80509  0.53436  0.68178  1.0000
  C   C4504     1.0  0.74174  0.48562  0.66433  1.0000
  C   C4505     1.0  0.69101  0.80399  0.69479  1.0000
  H   H3605     1.0  0.89730  0.52102  0.48331  1.0000
  C   C4506     1.0  0.66504  0.91780  0.52493  1.0000
  H   H3606     1.0  0.68367  0.88633  0.70504  1.0000
  C   C4507     1.0  0.68282  0.95451  0.70086  1.0000
  C   C4508     1.0  0.79413  0.49500  0.56271  1.0000
  H   H3607     1.0  0.68446  0.70064  0.65874  1.0000
  C   C4509     1.0  0.94502  0.48003  0.65456  1.0000
  C   C4510     1.0  0.97144  0.56234  0.58533  1.0000
  H   H3608     1.0  0.80391  0.50782  0.66658  1.0000
  C   C4511     1.0  0.98526  0.55624  0.53578  1.0000
  C   C4512     1.0  0.66277  0.61364  0.48183  1.0000
  C   C4513     1.0  0.66078  0.96065  0.49065  1.0000
  C   C4514     1.0  0.80184  0.91141  0.70308  1.0000
  H   H3609     1.0  0.66349  0.83488  0.62631  1.0000
  H   H3610     1.0  0.85108  0.97033  0.63750  1.0000
  H   H3611     1.0  0.66119  0.67008  0.52102  1.0000
  C   C4515     1.0  0.65832  0.68146  0.55479  1.0000
  C   C4516     1.0  0.76000  0.48154  0.55898  1.0000
  C   C4517     1.0  0.98566  0.50528  0.65060  1.0000
  C   C4518     1.0  0.67040  0.96368  0.52574  1.0000
  H   H3612     1.0  0.98442  0.56916  0.52684  1.0000
  H   H3613     1.0  0.65506  0.49204  0.50856  1.0000
  H   H3614     1.0  0.66734  0.97711  0.58749  1.0000
  C   C4519     1.0  0.65484  0.61129  0.53367  1.0000
  H   H3615     1.0  0.79633  0.47979  0.50919  1.0000
  C   C4520     1.0  0.65450  0.50203  0.48768  1.0000
  C   C4521     1.0  0.95877  0.48239  0.62298  1.0000
  H   H3616     1.0  0.90666  0.97339  0.58907  1.0000
  C   C4522     1.0  0.98492  0.52038  0.65957  1.0000
  H   H3617     1.0  0.66459  0.80847  0.58977  1.0000
  H   H3618     1.0  0.81224  0.87669  0.71374  1.0000
  C   C4523     1.0  0.65302  0.80053  0.63079  1.0000
  H   H3619     1.0  0.72623  0.97783  0.63791  1.0000
  H   H3620     1.0  0.66803  0.65141  0.72182  1.0000
  H   H3621     1.0  0.71624  0.48185  0.69672  1.0000
  C   C4524     1.0  0.77485  0.88394  0.71329  1.0000
  H   H3622     1.0  0.70783  0.97716  0.59124  1.0000
  H   H3623     1.0  0.81253  0.58808  0.77673  1.0000
  H   H3624     1.0  0.71450  0.83874  0.76494  1.0000
  C   C4525     1.0  0.66363  0.60046  0.78580  1.0000
  C   C4526     1.0  0.66540  0.64025  0.86401  1.0000
  C   C4527     1.0  0.68837  0.50502  0.89239  1.0000
  Fe  Fe300     1.0  0.72201  0.51152  0.93073  1.0000
  S   S599      1.0  0.70753  0.54062  0.94269  1.0000
  S   S600      1.0  0.71480  0.50958  0.91030  1.0000
  Fe  Fe301     1.0  0.74547  0.54077  0.94409  1.0000
  S   S601      1.0  0.75699  0.57680  0.94096  1.0000
  Fe  Fe302     1.0  0.70821  0.51201  0.96064  1.0000
  S   S602      1.0  0.75990  0.51368  0.93100  1.0000
  C   C4528     1.0  0.78430  0.54942  0.97107  1.0000
  Fe  Fe303     1.0  0.89211  0.87715  0.87314  1.0000
  S   S603      1.0  0.86034  0.87397  0.88893  1.0000
  S   S604      1.0  0.89245  0.88308  0.85102  1.0000
  Fe  Fe304     1.0  0.92623  0.87162  0.89316  1.0000
  S   S605      1.0  0.89614  0.86890  0.91038  1.0000
  S   S606      1.0  0.96406  0.86027  0.89742  1.0000
  Fe  Fe305     1.0  0.88427  0.84483  0.89966  1.0000
  S   S607      1.0  0.87836  0.80849  0.91072  1.0000
  Fe  Fe306     1.0  0.87487  0.89844  0.89819  1.0000
  S   S608      1.0  0.85349  0.93383  0.90278  1.0000
  S   S609      1.0  0.91509  0.84620  0.88315  1.0000
  S   S610      1.0  0.90595  0.90295  0.88164  1.0000
  Fe  Fe307     1.0  0.86460  0.64222  0.89798  1.0000
  S   S611      1.0  0.89559  0.63764  0.88126  1.0000
  S   S612      1.0  0.85516  0.60716  0.91004  1.0000
  Fe  Fe308     1.0  0.85698  0.69571  0.89025  1.0000
  S   S613      1.0  0.88656  0.69435  0.87319  1.0000
  S   S614      1.0  0.83642  0.73260  0.89091  1.0000
  Fe  Fe309     1.0  0.87253  0.66447  0.86893  1.0000
  S   S615      1.0  0.87178  0.66390  0.84743  1.0000
  Fe  Fe310     1.0  0.90739  0.66790  0.88693  1.0000
  S   S616      1.0  0.94488  0.67641  0.88297  1.0000
  S   S617      1.0  0.84102  0.66745  0.88506  1.0000
  S   S618      1.0  0.87821  0.67087  0.90460  1.0000
  C   C4529     1.0  0.87743  0.64044  0.79933  1.0000
  Fe  Fe311     1.0  0.74643  0.53739  0.72831  1.0000
  C   C4530     1.0  0.67075  0.66039  0.85504  1.0000
  S   S619      1.0  0.74421  0.54463  0.74924  1.0000
  Fe  Fe312     1.0  0.73529  0.89308  0.82265  1.0000
  S   S620      1.0  0.75467  0.91752  0.80671  1.0000
  S   S621      1.0  0.71040  0.90426  0.84066  1.0000
  Fe  Fe313     1.0  0.76161  0.84883  0.81137  1.0000
  S   S622      1.0  0.78307  0.87008  0.79450  1.0000
  S   S623      1.0  0.76721  0.80885  0.81758  1.0000
  Fe  Fe314     1.0  0.78683  0.89031  0.80993  1.0000
  S   S624      1.0  0.82112  0.90241  0.81004  1.0000
  Fe  Fe315     1.0  0.74912  0.89536  0.79278  1.0000
  S   S625      1.0  0.73375  0.91188  0.77406  1.0000
  S   S626      1.0  0.76796  0.86757  0.82678  1.0000
  S   S627      1.0  0.72714  0.87258  0.80869  1.0000
  Fe  Fe316     1.0  0.71950  0.65616  0.80587  1.0000
  S   S628      1.0  0.74998  0.62627  0.80576  1.0000
  S   S629      1.0  0.68184  0.65026  0.81383  1.0000
  Fe  Fe317     1.0  0.75138  0.69361  0.79426  1.0000
  S   S630      1.0  0.78410  0.66604  0.79320  1.0000
  S   S631      1.0  0.75250  0.73244  0.78579  1.0000
  Fe  Fe318     1.0  0.76311  0.64500  0.78542  1.0000
  S   S632      1.0  0.77752  0.62981  0.76633  1.0000
  Fe  Fe319     1.0  0.76777  0.65005  0.81352  1.0000
  S   S633      1.0  0.78279  0.63563  0.83241  1.0000
  S   S634      1.0  0.73147  0.67370  0.78514  1.0000
  S   S635      1.0  0.73623  0.67877  0.81503  1.0000
  C   C4531     1.0  0.76252  0.78810  0.80860  1.0000
  C   C4532     1.0  0.75799  0.79458  0.79564  1.0000
  C   C4533     1.0  0.75494  0.77733  0.78880  1.0000
  C   C4534     1.0  0.75613  0.75353  0.79487  1.0000
  C   C4535     1.0  0.76050  0.74710  0.80785  1.0000
  C   C4536     1.0  0.76382  0.76430  0.81464  1.0000
  H   H3625     1.0  0.75700  0.81283  0.79087  1.0000
  H   H3626     1.0  0.75158  0.78246  0.77875  1.0000
  H   H3627     1.0  0.76134  0.72888  0.81263  1.0000
  H   H3628     1.0  0.76731  0.75923  0.82464  1.0000
  C   C4537     1.0  0.75396  0.56828  0.75375  1.0000
  C   C4538     1.0  0.76579  0.58453  0.74440  1.0000
  C   C4539     1.0  0.77278  0.60330  0.74840  1.0000
  C   C4540     1.0  0.76770  0.60629  0.76175  1.0000
  C   C4541     1.0  0.75588  0.59002  0.77110  1.0000
  C   C4542     1.0  0.74939  0.57096  0.76713  1.0000
  H   H3629     1.0  0.78217  0.61561  0.74112  1.0000
  H   H3630     1.0  0.75200  0.59196  0.78141  1.0000
  H   H3631     1.0  0.74058  0.55836  0.77447  1.0000
  H   H3632     1.0  0.88630  0.59509  0.78046  1.0000
  H   H3633     1.0  0.88871  0.67390  0.79033  1.0000
  C   C4543     1.0  0.77272  0.92691  0.75664  1.0000
  C   C4544     1.0  0.74863  0.92555  0.75882  1.0000
  C   C4545     1.0  0.73555  0.93567  0.74865  1.0000
  H   H3634     1.0  0.93208  0.61471  0.74392  1.0000
  C   C4546     1.0  0.68671  0.58576  0.76630  1.0000
  H   H3635     1.0  0.78303  0.91899  0.76436  1.0000
  C   C4547     1.0  0.72223  0.65823  0.88324  1.0000
  H   H3636     1.0  0.77745  0.96529  0.86394  1.0000
  C   C4548     1.0  0.84593  0.65765  0.84356  1.0000
  C   C4549     1.0  0.84220  0.66296  0.83038  1.0000
  C   C4550     1.0  0.82207  0.65766  0.82696  1.0000
  C   C4551     1.0  0.80622  0.64586  0.83658  1.0000
  C   C4552     1.0  0.80980  0.64073  0.84977  1.0000
  C   C4553     1.0  0.82931  0.64705  0.85330  1.0000
  H   H3637     1.0  0.85475  0.67154  0.82285  1.0000
  H   H3638     1.0  0.81907  0.66209  0.81685  1.0000
  H   H3639     1.0  0.79755  0.63164  0.85725  1.0000
  H   H3640     1.0  0.83194  0.64290  0.86349  1.0000
  H   H3641     1.0  0.72806  0.68960  0.88876  1.0000
  C   C4554     1.0  0.84007  0.61989  0.79107  1.0000
  H   H3642     1.0  0.74300  0.89501  0.73747  1.0000
  C   C4555     1.0  0.87087  0.88765  0.84066  1.0000
  C   C4556     1.0  0.87772  0.89714  0.82739  1.0000
  C   C4557     1.0  0.86211  0.90138  0.81839  1.0000
  C   C4558     1.0  0.83938  0.89570  0.82235  1.0000
  C   C4559     1.0  0.83223  0.88580  0.83565  1.0000
  C   C4560     1.0  0.84796  0.88194  0.84486  1.0000
  H   H3643     1.0  0.89531  0.90151  0.82402  1.0000
  H   H3644     1.0  0.86784  0.90902  0.80821  1.0000
  H   H3645     1.0  0.81469  0.88129  0.83882  1.0000
  H   H3646     1.0  0.84255  0.87432  0.85507  1.0000
  C   C4561     1.0  0.86846  0.78787  0.90382  1.0000
  C   C4562     1.0  0.85226  0.79493  0.89506  1.0000
  C   C4563     1.0  0.84283  0.77785  0.89093  1.0000
  C   C4564     1.0  0.85010  0.75365  0.89520  1.0000
  C   C4565     1.0  0.86709  0.74667  0.90346  1.0000
  C   C4566     1.0  0.87589  0.76371  0.90793  1.0000
  H   H3647     1.0  0.84629  0.81350  0.89191  1.0000
  H   H3648     1.0  0.82968  0.78342  0.88456  1.0000
  H   H3649     1.0  0.87279  0.72811  0.90682  1.0000
  H   H3650     1.0  0.88839  0.75811  0.91470  1.0000
  H   H3651     1.0  0.84420  0.68281  0.79957  1.0000
  H   H3652     1.0  0.91124  0.67435  0.80776  1.0000
  P   P152      1.0  0.86067  0.64063  0.78659  1.0000
  H   H3653     1.0  0.83517  0.53936  0.89460  1.0000
  H   H3654     1.0  0.68156  0.62943  0.91079  1.0000
  H   H3655     1.0  0.83697  0.90929  0.92956  1.0000
  C   C4567     1.0  0.75234  0.94406  0.83785  1.0000
  C   C4568     1.0  0.83188  0.92424  0.87020  1.0000
  C   C4569     1.0  0.80587  0.59002  0.79749  1.0000
  C   C4570     1.0  0.81335  0.95767  0.88092  1.0000
  Fe  Fe320     1.0  0.75695  0.48689  0.94977  1.0000
  C   C4571     1.0  0.78399  0.58494  0.93162  1.0000
  C   C4572     1.0  0.78654  0.60889  0.92882  1.0000
  C   C4573     1.0  0.80783  0.61612  0.92174  1.0000
  C   C4574     1.0  0.82710  0.59936  0.91772  1.0000
  C   C4575     1.0  0.82456  0.57539  0.92053  1.0000
  C   C4576     1.0  0.80304  0.56824  0.92725  1.0000
  H   H3656     1.0  0.77197  0.62192  0.93221  1.0000
  H   H3657     1.0  0.80958  0.63456  0.91979  1.0000
  H   H3658     1.0  0.83940  0.56225  0.91757  1.0000
  H   H3659     1.0  0.80136  0.54978  0.92929  1.0000
  C   C4577     1.0  0.67164  0.57294  0.82389  1.0000
  C   C4578     1.0  0.79792  0.95832  0.93737  1.0000
  H   H3660     1.0  0.91725  0.58389  0.76194  1.0000
  C   C4579     1.0  0.67802  0.62045  0.81776  1.0000
  C   C4580     1.0  0.69489  0.60320  0.81220  1.0000
  C   C4581     1.0  0.69172  0.57956  0.81526  1.0000
  C   C4582     1.0  0.81739  0.59506  0.78445  1.0000
  C   C4583     1.0  0.68072  0.61322  0.90761  1.0000
  H   H3661     1.0  0.70999  0.60813  0.80514  1.0000
  H   H3662     1.0  0.70479  0.56638  0.81079  1.0000
  C   C4584     1.0  0.90246  0.65952  0.80828  1.0000
  C   C4585     1.0  0.68781  0.50810  0.90542  1.0000
  H   H3663     1.0  0.73757  0.87156  0.75985  1.0000
  C   C4586     1.0  0.74592  0.96669  0.85571  1.0000
  C   C4587     1.0  0.83421  0.61013  0.78121  1.0000
  C   C4588     1.0  0.69868  0.60509  0.76335  1.0000
  C   C4589     1.0  0.67617  0.93892  0.84992  1.0000
  C   C4590     1.0  0.69051  0.93099  0.83870  1.0000
  C   C4591     1.0  0.68891  0.94452  0.82621  1.0000
  H   H3664     1.0  0.77619  0.85205  0.90112  1.0000
  C   C4592     1.0  0.80316  0.83652  0.91263  1.0000
  H   H3665     1.0  0.69972  0.93842  0.81750  1.0000
  C   C4593     1.0  0.72694  0.64420  0.87343  1.0000
  C   C4594     1.0  0.82730  0.92708  0.92829  1.0000
  C   C4595     1.0  0.83187  0.94228  0.91625  1.0000
  S   S636      1.0  0.77665  0.96773  0.95078  1.0000
  C   C4596     1.0  0.69650  0.50034  0.80851  1.0000
  C   C4597     1.0  0.70793  0.51697  0.79928  1.0000
  C   C4598     1.0  0.69518  0.53407  0.79089  1.0000
  C   C4599     1.0  0.73718  0.95802  0.84642  1.0000
  H   H3666     1.0  0.74882  0.56855  0.97181  1.0000
  H   H3667     1.0  0.72651  0.51711  0.79886  1.0000
  H   H3668     1.0  0.70425  0.54705  0.78399  1.0000
  H   H3669     1.0  0.71273  0.60658  0.75487  1.0000
  H   H3670     1.0  0.69199  0.57234  0.76005  1.0000
  C   C4600     1.0  0.87995  0.62109  0.80961  1.0000
  C   C4601     1.0  0.89281  0.62146  0.81943  1.0000
  C   C4602     1.0  0.90378  0.64080  0.81886  1.0000
  C   C4603     1.0  0.84366  0.66929  0.78185  1.0000
  C   C4604     1.0  0.83435  0.67411  0.77006  1.0000
  C   C4605     1.0  0.82011  0.69573  0.76658  1.0000
  C   C4606     1.0  0.81487  0.71261  0.77488  1.0000
  C   C4607     1.0  0.82388  0.70791  0.78667  1.0000
  C   C4608     1.0  0.83817  0.68632  0.79018  1.0000
  H   H3671     1.0  0.84212  0.61456  0.77094  1.0000
  H   H3672     1.0  0.87206  0.60570  0.81011  1.0000
  H   H3673     1.0  0.89413  0.60687  0.82757  1.0000
  H   H3674     1.0  0.91311  0.64134  0.82671  1.0000
  H   H3675     1.0  0.83746  0.66090  0.76376  1.0000
  H   H3676     1.0  0.81234  0.69907  0.75770  1.0000
  H   H3677     1.0  0.80311  0.72902  0.77241  1.0000
  H   H3678     1.0  0.81904  0.72077  0.79328  1.0000
  C   C4609     1.0  0.85392  0.59050  0.85479  1.0000
  C   C4610     1.0  0.86605  0.59697  0.86332  1.0000
  C   C4611     1.0  0.85765  0.59349  0.87692  1.0000
  C   C4612     1.0  0.83698  0.58389  0.88199  1.0000
  C   C4613     1.0  0.82466  0.57730  0.87351  1.0000
  C   C4614     1.0  0.83339  0.58063  0.85983  1.0000
  P   P153      1.0  0.79706  0.56631  0.88008  1.0000
  C   C4615     1.0  0.80129  0.53715  0.88998  1.0000
  C   C4616     1.0  0.77795  0.58636  0.89024  1.0000
  C   C4617     1.0  0.76000  0.57840  0.90028  1.0000
  C   C4618     1.0  0.74610  0.59356  0.90858  1.0000
  C   C4619     1.0  0.74990  0.61678  0.90695  1.0000
  C   C4620     1.0  0.76742  0.62500  0.89687  1.0000
  C   C4621     1.0  0.78126  0.60996  0.88847  1.0000
  C   C4622     1.0  0.78368  0.52293  0.89228  1.0000
  H   H3679     1.0  0.95574  0.64233  0.83512  1.0000
  C   C4623     1.0  0.67923  0.61811  0.86269  1.0000
  C   C4624     1.0  0.82144  0.52881  0.89596  1.0000
  C   C4625     1.0  0.78330  0.56547  0.86628  1.0000
  C   C4626     1.0  0.78870  0.54539  0.86017  1.0000
  C   C4627     1.0  0.77960  0.54544  0.84880  1.0000
  C   C4628     1.0  0.76535  0.56561  0.84336  1.0000
  C   C4629     1.0  0.76031  0.58575  0.84926  1.0000
  C   C4630     1.0  0.76920  0.58572  0.86068  1.0000
  H   H3680     1.0  0.85997  0.59387  0.84422  1.0000
  H   H3681     1.0  0.88157  0.60527  0.85940  1.0000
  H   H3682     1.0  0.86692  0.59867  0.88353  1.0000
  H   H3683     1.0  0.83034  0.58211  0.89252  1.0000
  H   H3684     1.0  0.82412  0.57636  0.85292  1.0000
  H   H3685     1.0  0.75696  0.56037  0.90205  1.0000
  H   H3686     1.0  0.73312  0.58690  0.91670  1.0000
  H   H3687     1.0  0.73976  0.62812  0.91379  1.0000
  H   H3688     1.0  0.77068  0.64287  0.89576  1.0000
  H   H3689     1.0  0.79488  0.61669  0.88082  1.0000
  H   H3690     1.0  0.76758  0.52917  0.88818  1.0000
  H   H3691     1.0  0.66823  0.50358  0.87749  1.0000
  C   C4631     1.0  0.96798  0.66623  0.89237  1.0000
  H   H3692     1.0  0.80027  0.52985  0.86403  1.0000
  H   H3693     1.0  0.78376  0.52991  0.84413  1.0000
  H   H3694     1.0  0.75843  0.56581  0.83449  1.0000
  H   H3695     1.0  0.75016  0.60167  0.84470  1.0000
  H   H3696     1.0  0.76576  0.60174  0.86483  1.0000
  C   C4632     1.0  0.88138  0.73457  0.81749  1.0000
  C   C4633     1.0  0.89266  0.71863  0.82699  1.0000
  C   C4634     1.0  0.89219  0.72476  0.83923  1.0000
  C   C4635     1.0  0.87992  0.74656  0.84218  1.0000
  C   C4636     1.0  0.86818  0.76263  0.83277  1.0000
  C   C4637     1.0  0.86913  0.75645  0.82036  1.0000
  P   P154      1.0  0.85320  0.79121  0.83655  1.0000
  C   C4638     1.0  0.82518  0.78907  0.84743  1.0000
  C   C4639     1.0  0.87238  0.80215  0.84450  1.0000
  C   C4640     1.0  0.86315  0.81463  0.85502  1.0000
  C   C4641     1.0  0.87818  0.82421  0.86051  1.0000
  C   C4642     1.0  0.90238  0.82148  0.85550  1.0000
  C   C4643     1.0  0.91171  0.80883  0.84517  1.0000
  C   C4644     1.0  0.89679  0.79920  0.83966  1.0000
  C   C4645     1.0  0.80554  0.80686  0.84572  1.0000
  C   C4646     1.0  0.78415  0.80581  0.85445  1.0000
  C   C4647     1.0  0.78228  0.78729  0.86512  1.0000
  C   C4648     1.0  0.80172  0.76961  0.86695  1.0000
  C   C4649     1.0  0.82311  0.77048  0.85817  1.0000
  C   C4650     1.0  0.84823  0.81148  0.82151  1.0000
  C   C4651     1.0  0.83161  0.80827  0.81435  1.0000
  C   C4652     1.0  0.82766  0.82370  0.80270  1.0000
  C   C4653     1.0  0.83992  0.84274  0.79822  1.0000
  C   C4654     1.0  0.85603  0.84642  0.80545  1.0000
  C   C4655     1.0  0.86018  0.83093  0.81707  1.0000
  H   H3697     1.0  0.88183  0.72987  0.80796  1.0000
  H   H3698     1.0  0.90164  0.70141  0.82497  1.0000
  H   H3699     1.0  0.90127  0.71243  0.84646  1.0000
  H   H3700     1.0  0.87978  0.75091  0.85178  1.0000
  H   H3701     1.0  0.86066  0.76836  0.81279  1.0000
  H   H3702     1.0  0.84439  0.81742  0.85883  1.0000
  H   H3703     1.0  0.87104  0.83431  0.86843  1.0000
  H   H3704     1.0  0.91387  0.82962  0.85943  1.0000
  H   H3705     1.0  0.93044  0.80701  0.84126  1.0000
  H   H3706     1.0  0.90420  0.78998  0.83141  1.0000
  H   H3707     1.0  0.80660  0.82176  0.83774  1.0000
  H   H3708     1.0  0.76907  0.81948  0.85291  1.0000
  H   H3709     1.0  0.76581  0.78672  0.87199  1.0000
  H   H3710     1.0  0.80047  0.75537  0.87532  1.0000
  H   H3711     1.0  0.83801  0.75685  0.86002  1.0000
  H   H3712     1.0  0.82145  0.79398  0.81786  1.0000
  H   H3713     1.0  0.81459  0.82117  0.79734  1.0000
  H   H3714     1.0  0.83648  0.85507  0.78935  1.0000
  H   H3715     1.0  0.86481  0.86173  0.80224  1.0000
  H   H3716     1.0  0.87233  0.83463  0.82260  1.0000
  H   H3717     1.0  0.80072  0.81863  0.91276  1.0000
  H   H3718     1.0  0.87404  0.57419  0.93254  1.0000
  H   H3719     1.0  0.83153  0.82544  0.92390  1.0000
  C   C4656     1.0  0.88950  0.65928  0.79849  1.0000
  C   C4657     1.0  0.69337  0.62191  0.77168  1.0000
  H   H3720     1.0  0.70327  0.63641  0.76965  1.0000
  C   C4658     1.0  0.88287  0.63255  0.77288  1.0000
  H   H3721     1.0  0.73576  0.95561  0.72888  1.0000
  C   C4659     1.0  0.82388  0.50666  0.90406  1.0000
  H   H3722     1.0  0.82264  0.97729  0.90557  1.0000
  H   H3723     1.0  0.98436  0.67160  0.86147  1.0000
  H   H3724     1.0  0.76979  0.58246  0.73411  1.0000
  C   C4660     1.0  0.82080  0.49263  0.94111  1.0000
  H   H3725     1.0  0.77213  0.49031  0.90239  1.0000
  C   C4661     1.0  0.82061  0.84031  0.91889  1.0000
  H   H3726     1.0  0.83864  0.86607  0.92280  1.0000
  C   C4662     1.0  0.73278  0.88080  0.73948  1.0000
  C   C4663     1.0  0.66740  0.50576  0.88757  1.0000
  C   C4664     1.0  0.78344  0.93867  0.74444  1.0000
  H   H3727     1.0  0.86272  0.53671  0.94502  1.0000
  C   C4665     1.0  0.77696  0.72207  0.90536  1.0000
  H   H3728     1.0  0.67714  0.92829  0.85955  1.0000
  C   C4666     1.0  0.66589  0.51138  0.91374  1.0000
  H   H3729     1.0  0.84627  0.91599  0.86346  1.0000
  C   C4667     1.0  0.97351  0.71908  0.91459  1.0000
  H   H3730     1.0  0.80165  0.71744  0.82042  1.0000
  H   H3731     1.0  0.86892  0.48686  0.96251  1.0000
  C   C4668     1.0  0.78924  0.85566  0.90603  1.0000
  C   C4669     1.0  0.69687  0.53441  0.85570  1.0000
  H   H3732     1.0  0.81560  0.89326  0.87652  1.0000
  C   C4670     1.0  0.82453  0.86321  0.91833  1.0000
  H   H3733     1.0  0.71120  0.65299  0.89260  1.0000
  H   H3734     1.0  0.84034  0.71714  0.82652  1.0000
  C   C4671     1.0  0.74815  0.93804  0.92884  1.0000
  H   H3735     1.0  0.95099  0.88133  0.93235  1.0000
  C   C4672     1.0  0.81450  0.91142  0.87764  1.0000
  C   C4673     1.0  0.83138  0.94732  0.87190  1.0000
  C   C4674     1.0  0.84004  0.55234  0.96121  1.0000
  C   C4675     1.0  0.95909  0.78448  0.91485  1.0000
  C   C4676     1.0  0.82487  0.71635  0.83410  1.0000
  C   C4677     1.0  0.80310  0.71624  0.83069  1.0000
  C   C4678     1.0  0.67085  0.53479  0.79177  1.0000
  H   H3736     1.0  0.90499  0.78909  0.88070  1.0000
  C   C4679     1.0  0.67578  0.61965  0.78285  1.0000
  C   C4680     1.0  0.83450  0.50530  0.95847  1.0000
  C   C4681     1.0  0.85509  0.48842  0.95680  1.0000
  H   H3737     1.0  0.72545  0.92728  0.89874  1.0000
  C   C4682     1.0  0.82683  0.71452  0.84734  1.0000
  H   H3738     1.0  0.71964  0.62806  0.87512  1.0000
  H   H3739     1.0  0.76632  0.71495  0.83765  1.0000
  C   C4683     1.0  0.78318  0.71447  0.84052  1.0000
  C   C4684     1.0  0.73199  0.67888  0.88106  1.0000
  C   C4685     1.0  0.79276  0.87885  0.90559  1.0000
  H   H3740     1.0  0.97435  0.90842  0.88662  1.0000
  H   H3741     1.0  0.84386  0.71404  0.85000  1.0000
  H   H3742     1.0  0.90508  0.79423  0.93428  1.0000
  H   H3743     1.0  0.97339  0.68235  0.92283  1.0000
  C   C4686     1.0  0.82570  0.97592  0.96181  1.0000
  C   C4687     1.0  0.89244  0.60872  0.77259  1.0000
  C   C4688     1.0  0.86243  0.57388  0.94204  1.0000
  H   H3744     1.0  0.70614  0.48790  0.81546  1.0000
  C   C4689     1.0  0.80697  0.71272  0.85721  1.0000
  C   C4690     1.0  0.78493  0.71258  0.85389  1.0000
  H   H3745     1.0  0.78563  0.68158  0.88511  1.0000
  C   C4691     1.0  0.74672  0.68560  0.86903  1.0000
  C   C4692     1.0  0.74119  0.65099  0.86138  1.0000
  C   C4693     1.0  0.81039  0.93510  0.93879  1.0000
  C   C4694     1.0  0.69005  0.56614  0.86841  1.0000
  H   H3746     1.0  0.80912  0.71172  0.86732  1.0000
  H   H3747     1.0  0.74464  0.64033  0.85369  1.0000
  H   H3748     1.0  0.76360  0.75982  0.85114  1.0000
  H   H3749     1.0  0.88707  0.96834  0.89981  1.0000
  P   P155      1.0  0.75839  0.71285  0.86623  1.0000
  C   C4695     1.0  0.75109  0.67153  0.85916  1.0000
  H   H3750     1.0  0.74527  0.75188  0.88161  1.0000
  C   C4696     1.0  0.74617  0.94761  0.73653  1.0000
  C   C4697     1.0  0.66042  0.96039  0.84872  1.0000
  C   C4698     1.0  0.82792  0.61519  0.80408  1.0000
  C   C4699     1.0  0.85342  0.59492  0.94689  1.0000
  H   H3751     1.0  0.73535  0.79282  0.84193  1.0000
  H   H3752     1.0  0.79230  0.57894  0.79988  1.0000
  C   C4700     1.0  0.72908  0.77702  0.84770  1.0000
  C   C4701     1.0  0.75630  0.73748  0.88681  1.0000
  H   H3753     1.0  0.76218  0.67611  0.84975  1.0000
  H   H3754     1.0  0.72963  0.51038  0.85651  1.0000
  C   C4702     1.0  0.74507  0.75821  0.85294  1.0000
  C   C4703     1.0  0.76479  0.71640  0.88178  1.0000
  C   C4704     1.0  0.81094  0.88236  0.91155  1.0000
  C   C4705     1.0  0.77876  0.69791  0.88889  1.0000
  H   H3755     1.0  0.95109  0.72541  0.87209  1.0000
  C   C4706     1.0  0.73726  0.73736  0.86006  1.0000
  H   H3756     1.0  0.72412  0.59870  0.72973  1.0000
  H   H3757     1.0  0.72099  0.93458  0.87314  1.0000
  H   H3758     1.0  0.74519  0.93712  0.83096  1.0000
  C   C4707     1.0  0.81114  0.60009  0.80730  1.0000
  H   H3759     1.0  0.83106  0.62337  0.81176  1.0000
  C   C4708     1.0  0.66405  0.94586  0.88845  1.0000
  H   H3760     1.0  0.78813  0.92757  0.83175  1.0000
  C   C4709     1.0  0.96189  0.74374  0.88514  1.0000
  H   H3761     1.0  0.92806  0.76755  0.91922  1.0000
  C   C4710     1.0  0.65449  0.59013  0.82938  1.0000
  C   C4711     1.0  0.71317  0.73574  0.86200  1.0000
  C   C4712     1.0  0.94696  0.74069  0.87697  1.0000
  H   H3762     1.0  0.91446  0.75429  0.86940  1.0000
  C   C4713     1.0  0.65434  0.52342  0.76651  1.0000
  H   H3763     1.0  0.80706  0.93590  0.78503  1.0000
  H   H3764     1.0  0.78246  0.72454  0.91420  1.0000
  H   H3765     1.0  0.80701  0.92328  0.94808  1.0000
  C   C4714     1.0  0.92637  0.75694  0.87543  1.0000
  C   C4715     1.0  0.74965  0.89129  0.86572  1.0000
  H   H3766     1.0  0.77713  0.90837  0.86795  1.0000
  C   C4716     1.0  0.78490  0.70080  0.90061  1.0000
  C   C4717     1.0  0.91004  0.60233  0.76215  1.0000
  H   H3767     1.0  0.80168  0.59679  0.81735  1.0000
  H   H3768     1.0  0.71164  0.86504  0.89073  1.0000
  H   H3769     1.0  0.70669  0.71987  0.86736  1.0000
  C   C4718     1.0  0.70517  0.77524  0.84958  1.0000
  H   H3770     1.0  0.81517  0.89983  0.91064  1.0000
  H   H3771     1.0  0.74307  0.53095  0.87138  1.0000
  C   C4719     1.0  0.95607  0.81725  0.92637  1.0000
  C   C4720     1.0  0.72075  0.48934  0.76738  1.0000
  C   C4721     1.0  0.72251  0.87594  0.72952  1.0000
  C   C4722     1.0  0.89165  0.64993  0.76278  1.0000
  C   C4723     1.0  0.69720  0.75465  0.85676  1.0000
  H   H3772     1.0  0.69291  0.78975  0.84531  1.0000
  H   H3773     1.0  0.79645  0.68683  0.90580  1.0000
  H   H3774     1.0  0.67120  0.97582  0.81527  1.0000
  C   C4724     1.0  0.92098  0.77650  0.88184  1.0000
  H   H3775     1.0  0.73517  0.87844  0.90403  1.0000
  H   H3776     1.0  0.71859  0.56670  0.87863  1.0000
  H   H3777     1.0  0.80206  0.93973  0.74283  1.0000
  P   P156      1.0  0.67175  0.59199  0.87402  1.0000
  C   C4725     1.0  0.67245  0.50032  0.80909  1.0000
  H   H3778     1.0  0.88502  0.66846  0.76297  1.0000
  C   C4726     1.0  0.93620  0.78117  0.92126  1.0000
  H   H3779     1.0  0.67867  0.75326  0.85810  1.0000
  H   H3780     1.0  0.72064  0.87354  0.86618  1.0000
  H   H3781     1.0  0.95739  0.72064  0.91071  1.0000
  H   H3782     1.0  0.71718  0.50322  0.75911  1.0000
  C   C4727     1.0  0.70440  0.94480  0.87687  1.0000
  C   C4728     1.0  0.81380  0.96428  0.79317  1.0000
  C   C4729     1.0  0.93578  0.77952  0.89007  1.0000
  C   C4730     1.0  0.73201  0.92975  0.90717  1.0000
  H   H3783     1.0  0.92250  0.82660  0.93859  1.0000
  C   C4731     1.0  0.79627  0.92168  0.88673  1.0000
  C   C4732     1.0  0.93298  0.81441  0.93233  1.0000
  H   H3784     1.0  0.93114  0.79479  0.89496  1.0000
  H   H3785     1.0  0.96354  0.83174  0.92790  1.0000
  C   C4733     1.0  0.95597  0.76273  0.89213  1.0000
  C   C4734     1.0  0.79578  0.94498  0.88831  1.0000
  H   H3786     1.0  0.70139  0.92118  0.73403  1.0000
  H   H3787     1.0  0.69084  0.52518  0.84939  1.0000
  C   C4735     1.0  0.77012  0.96028  0.85650  1.0000
  C   C4736     1.0  0.90927  0.64348  0.75235  1.0000
  C   C4737     1.0  0.70328  0.63654  0.84307  1.0000
  C   C4738     1.0  0.91841  0.61969  0.75201  1.0000
  P   P157      1.0  0.77520  0.90400  0.89699  1.0000
  C   C4739     1.0  0.67734  0.61356  0.89471  1.0000
  C   C4740     1.0  0.71668  0.94238  0.91637  1.0000
  C   C4741     1.0  0.77014  0.94937  0.73440  1.0000
  C   C4742     1.0  0.76310  0.89886  0.87316  1.0000
  H   H3788     1.0  0.75341  0.89500  0.85499  1.0000
  C   C4743     1.0  0.75810  0.89434  0.88706  1.0000
  H   H3789     1.0  0.78149  0.91921  0.92125  1.0000
  H   H3790     1.0  0.66338  0.48786  0.81650  1.0000
  C   C4744     1.0  0.73939  0.88210  0.89333  1.0000
  C   C4745     1.0  0.92317  0.79619  0.92990  1.0000
  C   C4746     1.0  0.75548  0.92069  0.90886  1.0000
  C   C4747     1.0  0.76345  0.92520  0.91975  1.0000
  C   C4748     1.0  0.73112  0.87914  0.87204  1.0000
  C   C4749     1.0  0.72604  0.87446  0.88585  1.0000
  S   S637      1.0  0.74500  0.51414  0.96305  1.0000
  H   H3791     1.0  0.70519  0.50212  0.88595  1.0000
  C   C4750     1.0  0.96921  0.80218  0.91780  1.0000
  H   H3792     1.0  0.78237  0.95323  0.89546  1.0000
  H   H3793     1.0  0.71306  0.95668  0.93423  1.0000
  H   H3794     1.0  0.85803  0.61140  0.94109  1.0000
  H   H3795     1.0  0.95089  0.63988  0.90629  1.0000
  H   H3796     1.0  0.70821  0.59946  0.85032  1.0000
  C   C4751     1.0  0.81752  0.50751  0.95041  1.0000
  H   H3797     1.0  0.79062  0.56016  0.96179  1.0000
  C   C4752     1.0  0.98237  0.69733  0.92162  1.0000
  C   C4753     1.0  0.77643  0.93851  0.83839  1.0000
  C   C4754     1.0  0.83169  0.57345  0.96626  1.0000
  C   C4755     1.0  0.72477  0.94657  0.92719  1.0000
  C   C4756     1.0  0.78532  0.94659  0.84774  1.0000
  H   H3798     1.0  0.91590  0.65694  0.74454  1.0000
  H   H3799     1.0  0.66511  0.51381  0.92380  1.0000
  H   H3800     1.0  0.69340  0.67398  0.83737  1.0000
  H   H3801     1.0  0.97365  0.85036  0.94668  1.0000
  H   H3802     1.0  0.69860  0.94930  0.91499  1.0000
  H   H3803     1.0  0.70117  0.85331  0.72504  1.0000
  C   C4757     1.0  0.70147  0.96950  0.87492  1.0000
  S   S638      1.0  0.72019  0.48279  0.94851  1.0000
  C   C4758     1.0  0.79412  0.96991  0.77429  1.0000
  C   C4759     1.0  0.66884  0.58341  0.77748  1.0000
  C   C4760     1.0  0.78620  0.50080  0.90034  1.0000
  C   C4761     1.0  0.68574  0.93305  0.88363  1.0000
  C   C4762     1.0  0.96666  0.64793  0.90322  1.0000
  H   H3804     1.0  0.68794  0.91403  0.88488  1.0000
  H   H3805     1.0  0.83926  0.50052  0.90884  1.0000
  H   H3806     1.0  0.73621  0.97604  0.81284  1.0000
  H   H3807     1.0  0.75651  0.75682  0.90223  1.0000
  C   C4763     1.0  0.69628  0.93013  0.72472  1.0000
  C   C4764     1.0  0.68252  0.55439  0.86000  1.0000
  S   S639      1.0  0.66876  0.54301  0.82722  1.0000
  C   C4765     1.0  0.71878  0.52610  0.85968  1.0000
  H   H3808     1.0  0.81841  0.96288  0.96965  1.0000
  C   C4766     1.0  0.68189  0.57101  0.91242  1.0000
  C   C4767     1.0  0.72641  0.53776  0.86800  1.0000
  H   H3809     1.0  0.66560  0.56051  0.85677  1.0000
  H   H3810     1.0  0.65987  0.67738  0.85596  1.0000
  C   C4768     1.0  0.72981  0.86748  0.75219  1.0000
  C   C4769     1.0  0.83820  0.59469  0.95905  1.0000
  H   H3811     1.0  0.84545  0.95685  0.86654  1.0000
  H   H3812     1.0  0.69635  0.82970  0.74749  1.0000
  C   C4770     1.0  0.81925  0.96540  0.91482  1.0000
  H   H3813     1.0  0.95023  0.66147  0.85486  1.0000
  C   C4771     1.0  0.84743  0.96985  0.95389  1.0000
  H   H3814     1.0  0.75447  0.94150  0.93719  1.0000
  C   C4772     1.0  0.76249  0.74032  0.89854  1.0000
  C   C4773     1.0  0.67611  0.59253  0.89059  1.0000
  C   C4774     1.0  0.68085  0.95166  0.72441  1.0000
  C   C4775     1.0  0.71228  0.55787  0.87223  1.0000
  C   C4776     1.0  0.80512  0.95489  0.78424  1.0000
  H   H3815     1.0  0.82244  0.95255  0.80083  1.0000
  C   C4777     1.0  0.97083  0.64691  0.83794  1.0000
  H   H3816     1.0  0.68562  0.59160  0.92646  1.0000
  H   H3817     1.0  0.97072  0.91220  0.91685  1.0000
  H   H3818     1.0  0.80167  0.52059  0.95131  1.0000
  H   H3819     1.0  0.71691  0.93474  0.75031  1.0000
  H   H3820     1.0  0.83117  0.61104  0.96277  1.0000
  C   C4778     1.0  0.98066  0.89885  0.92329  1.0000
  C   C4779     1.0  0.65972  0.51729  0.80062  1.0000
  C   C4780     1.0  0.67282  0.96572  0.82498  1.0000
  H   H3821     1.0  0.71737  0.63505  0.83464  1.0000
  C   C4781     1.0  0.69801  0.61638  0.85202  1.0000
  C   C4782     1.0  0.96958  0.88140  0.93204  1.0000
  C   C4783     1.0  0.71672  0.84905  0.75506  1.0000
  C   C4784     1.0  0.65291  0.51572  0.75494  1.0000
  P   P158      1.0  0.97506  0.76623  0.90290  1.0000
  C   C4785     1.0  0.85582  0.55266  0.94914  1.0000
  C   C4786     1.0  0.96769  0.65773  0.84902  1.0000
  H   H3822     1.0  0.78791  0.96230  0.76730  1.0000
  C   C4787     1.0  0.68294  0.59195  0.91647  1.0000
  H   H3823     1.0  0.80396  0.94179  0.84836  1.0000
  C   C4788     1.0  0.65768  0.61392  0.82627  1.0000
  H   H3824     1.0  0.67780  0.55489  0.89663  1.0000
  H   H3825     1.0  0.68376  0.55439  0.91918  1.0000
  H   H3826     1.0  0.85723  0.95216  0.95573  1.0000
  C   C4789     1.0  0.68971  0.65853  0.84459  1.0000
  C   C4790     1.0  0.67848  0.57132  0.89958  1.0000
  C   C4791     1.0  0.70931  0.85743  0.73248  1.0000
  C   C4792     1.0  0.74029  0.48843  0.77329  1.0000
  H   H3827     1.0  0.67576  0.63022  0.88810  1.0000
  H   H3828     1.0  0.67200  0.63249  0.78945  1.0000
  S   S640      1.0  0.74607  0.50021  0.72564  1.0000
  C   C4793     1.0  0.80628  0.49266  0.90626  1.0000
  C   C4794     1.0  0.70650  0.84401  0.74521  1.0000
  H   H3829     1.0  0.97770  0.73091  0.88628  1.0000
  H   H3830     1.0  0.71430  0.97142  0.79597  1.0000
  H   H3831     1.0  0.80739  0.49395  0.93516  1.0000
  H   H3832     1.0  0.71855  0.96132  0.84599  1.0000
  H   H3833     1.0  0.67444  0.95910  0.73339  1.0000
  H   H3834     1.0  0.81359  0.97519  0.88260  1.0000
  H   H3835     1.0  0.75168  0.50169  0.76963  1.0000
  H   H3836     1.0  0.65729  0.51041  0.77519  1.0000
  C   C4795     1.0  0.66107  0.97042  0.88664  1.0000
  H   H3837     1.0  0.97612  0.81399  0.88836  1.0000
  P   P159      1.0  0.83065  0.52510  0.97016  1.0000
  P   P160      1.0  0.65405  0.55787  0.78157  1.0000
  C   C4796     1.0  0.80239  0.97337  0.92528  1.0000
  H   H3838     1.0  0.65492  0.49705  0.75469  1.0000
  C   C4797     1.0  0.98258  0.86377  0.94009  1.0000
  H   H3839     1.0  0.71131  0.96725  0.77238  1.0000
  C   C4798     1.0  0.65860  0.97376  0.83620  1.0000
  H   H3840     1.0  0.98486  0.62549  0.91833  1.0000
  C   C4799     1.0  0.98555  0.73832  0.91255  1.0000
  C   C4800     1.0  0.98596  0.63978  0.91001  1.0000
