data_image0
_chemical_formula_structural       FeS2FeS2FeSFeS3FeS2FeS2FeSFeS3FeS2FeS2FeSFeS3FeS2FeS2FeSFeS3C4HC2H4CH3C6H4C3H2C3HC7H4C2HCHC6H4C6H4C3HC2H2CHCH3C2H2C7HCH2PC3H2CHCH8CHCH3C2H3CHPC11HC4HC3H2CH5C2H3CHC2HC2H2C6PC18H20C6PC18H20C6PC8PC4H5CH2C2H3C3H3CHCHPC3HC2HC2PHC2HC2H2C2HC2HC2HCH4CHCHCH3C4HCH2C5H4CH2C2H2C3H2C3HC2HCH2CH4C5H3C2H3C5HC2H3C2H2C2HFeS2FeS2FeSFeS3FeS2FeS2FeSFeS3FeS2FeS2FeSFeS3FeS2FeS2FeSFeS3CHCH2C6H4C6H4CPC2HC6H4C6H4C3HC4HC2HC2HC3H2C3HCHC2H5C2HCHCHCHCH7C4PC5HC8HCH2CHCH5CHPH2PHCPC2H3C13HC3H10CH5CHCHCHC8HCH5CH3C3HC4HC8H8C2HCH2C2H2C8H4CH4CH4C7PC18H6CH11CHC3H3C2HCH2C8H2C2H2CH6CHC2PC14HC6HCH4CH5CH7C2H2C2HC4HC2HCHCH2C3H3C2H2C4FeS2FeS2FeSFeS3FeS2FeS2FeSFeS3FeS2FeS2FeSFeS3FeS2FeS2FeSFeS3C2H2C3HCHCHC2HC3H2C6H4C3H2CHC2HC6H4CHC2HC4HC6H4C6H6CH6C2HCH3C3HC2HCH2CHCH2PHCHC4H2C8PC18H20C4H9CH3CH2CHC2H2C2HCHC7H2C4HCPHCH3C5H3CH2C3HCHC3HC10H9CH2C2HCHC2HC4HCPHC2H11PCH3CH2C2HC4PCHCHC3H2C9H3CHCH8CH3C6PC16HCHC2H3C3HC2HCHC4H2CHC3HCPH2C2HC2H2CHC2HCHC2H4CHFeS2FeS2FeSFeS3FeS2FeS2FeSFeS3FeS2FeS2FeSFeS3FeS2FeS2FeSFeS3C3H2C4HC6H4C2H2C7H4C2H2C7H4C6H4C2H2C3H3C3HC3H2C2HPC3PC7H2CH2C6HC3H6C2HCH5C2HC3H2C3HC2H3CH4C4H3CHCHC2HCPHCHCHC2HC3H2C2H2CHCHC2HC2HC5PHC6H2C2HC4HCH2CH5C5HC2HPHCH2C5H2C2H2C2HCHCHCHCH5C3HC2HCH3C5H2CHC2H2C3H2CHC6PC18H25C4H5CH3C3H3C2HCH2C3PC20H6CH11C6PC7HC6H14C2HCHC2HC7H5CHC4HPCH8FeS2FeS2FeSFeS3FeS2FeS2FeSFeS3FeS2FeS2FeSFeS3FeS2FeS2FeSFeS3C3H2C3HPC6H4C2H2C7H4CHC2HC6H4C6H4C2H3C3HCHC3HC3H6CHPC10H5CHCH4C3HC3PC3H2C9HPCH3C3H9C3H2C4HC6H2C2HC3H3C2H4CH3CHC6PC18H18C2HCHCH2C2H2CHCH3CHCH2C2PH3P2H3CH3C2H3C2HCH2CH2CHC3HCHCH5C2HC7H3C3HC2HCH2CH4C5HCH2C4H2C3H2C6HCH2CH2C7H3C4H3CHC3H7C10H7CH2C3PC6HC5H2C2H5C3H2C2HC2H2C2H4CH2C3HCHC2HC2HCFeS2FeS2FeSFeS3FeS2FeS2FeSFeS3FeS2FeS2FeSFeS3FeS2FeS2FeSFeS3C6H4C6H4C6H4C6H4C3HCHCH4C2H2C3H3CH2C4HC5HC3H2C6PC18H25C7PC18H6C2H12CHCHCHCH4C3H2C2H3CH4C8PC12H3PC2H5CHCHCH5C3H2C6PC15HC2H14C2H2C7H5CHCH3C6HCH2C3HCHC4H4CH4C3PHCHC5HCHC4HC2H2CH2C3HC2HCH2C3H2PHCH6C2H2CHC2HCHCH3C3FeS2FeS2FeSFeS3FeS2FeS2FeSFeS3FeS2FeS2FeSFeS3FeS2FeS2FeSFeS3C2H4CH3C3HC7H4C2HCHC6H4C2H3C2H2C7H4C6H4C4HC3H3CHCHC3H2C3HC5H4C6PC18H20C2PC15HCHC2HC4H4C3H2C6HCH3CH2CH2C3HC4H5CHCPH3C3H2C3HPCH2C3HC6H2C3H2C4H4CH2C2H2CH2CH5C2HCH3CH2C6PC18H20CH7C2H2C4HC5HCH2CHC10H5C2HC2HCH2CHPC5HCH2C3H2CHCHC5H4CPHC3HCH3C2H2CHC2HC2H2C4H3CHCHCH3CH2CH3C2HCH3FeS2FeS2FeSFeS3FeS2FeS2FeSFeS3FeS2FeS2FeSFeS3FeS2FeS2FeSFeS3C2H2C7H4C3H2C6H4C6H4C6H4C2H2C3HPHC2H5CH2CHC2HC3H2C6PC18H20C2H3C4HCH2C2H3CHC2HCH2CHC2HC4PC15H2CHCH8CH3C12H4C3HCHC3H2C3HC5HC2HC6HCH2C2H3CH2C3H3C2PHC5HC2HCH5CHPHC2H2CH7CHC2H5C6PC4HC10HC2H15C2H2C2HC3HPC8H2CHC2H4C6PC18H12PH5CHC2H2C3H5CHCHCHCHC
_chemical_formula_sum              "Fe128 S256 C1920 H1536 P64"
_cell_length_a       58.3878
_cell_length_b       58.3961
_cell_length_c       46.0751
_cell_angle_alpha    89.647
_cell_angle_beta     89.4226
_cell_angle_gamma    87.1043

_space_group_name_H-M_alt    "P 1"
_space_group_IT_number       1

loop_
  _space_group_symop_operation_xyz
  'x, y, z'

loop_
  _atom_site_type_symbol
  _atom_site_label
  _atom_site_symmetry_multiplicity
  _atom_site_fract_x
  _atom_site_fract_y
  _atom_site_fract_z
  _atom_site_occupancy
  Fe  Fe1       1.0  0.28127  0.11565  0.35548  1.0000
  S   S1        1.0  0.26065  0.09085  0.33102  1.0000
  S   S2        1.0  0.31105  0.13540  0.33666  1.0000
  Fe  Fe2       1.0  0.25408  0.10844  0.41235  1.0000
  S   S3        1.0  0.23088  0.08423  0.39086  1.0000
  S   S4        1.0  0.24422  0.11349  0.46001  1.0000
  Fe  Fe3       1.0  0.26274  0.06795  0.37076  1.0000
  S   S5        1.0  0.27279  0.02969  0.37731  1.0000
  Fe  Fe4       1.0  0.23043  0.10904  0.35349  1.0000
  S   S6        1.0  0.19812  0.11609  0.32755  1.0000
  S   S7        1.0  0.28616  0.09140  0.39378  1.0000
  S   S8        1.0  0.25084  0.13483  0.37627  1.0000
  Fe  Fe5       1.0  0.35917  0.18967  0.18319  1.0000
  S   S9        1.0  0.38352  0.21578  0.19882  1.0000
  S   S10       1.0  0.33247  0.16802  0.20633  1.0000
  Fe  Fe6       1.0  0.37028  0.20002  0.11860  1.0000
  S   S11       1.0  0.39427  0.22731  0.12950  1.0000
  S   S12       1.0  0.36424  0.18586  0.07357  1.0000
  Fe  Fe7       1.0  0.40839  0.20298  0.16355  1.0000
  S   S13       1.0  0.44689  0.19219  0.16254  1.0000
  Fe  Fe8       1.0  0.36787  0.23826  0.16340  1.0000
  S   S14       1.0  0.36093  0.27627  0.17113  1.0000
  S   S15       1.0  0.38519  0.17485  0.15105  1.0000
  S   S16       1.0  0.34260  0.21315  0.14944  1.0000
  Fe  Fe9       1.0  0.07791  0.26680  0.36477  1.0000
  S   S17       1.0  0.10226  0.28613  0.39219  1.0000
  S   S18       1.0  0.04116  0.28243  0.36632  1.0000
  Fe  Fe10      1.0  0.11617  0.23075  0.34848  1.0000
  S   S19       1.0  0.14232  0.24696  0.37547  1.0000
  S   S20       1.0  0.12429  0.20005  0.31969  1.0000
  Fe  Fe11      1.0  0.11400  0.25150  0.40905  1.0000
  S   S21       1.0  0.11798  0.23970  0.45594  1.0000
  Fe  Fe12      1.0  0.12806  0.28002  0.35584  1.0000
  S   S22       1.0  0.15302  0.30617  0.33958  1.0000
  S   S23       1.0  0.08877  0.23240  0.38324  1.0000
  S   S24       1.0  0.10296  0.26363  0.32721  1.0000
  Fe  Fe13      1.0  0.20423  0.35660  0.11427  1.0000
  S   S25       1.0  0.23042  0.38245  0.12328  1.0000
  S   S26       1.0  0.19464  0.34230  0.07034  1.0000
  Fe  Fe14      1.0  0.19200  0.35062  0.17931  1.0000
  S   S27       1.0  0.21702  0.37658  0.19315  1.0000
  S   S28       1.0  0.16765  0.32805  0.20472  1.0000
  Fe  Fe15      1.0  0.20459  0.39821  0.15497  1.0000
  S   S29       1.0  0.19178  0.43607  0.15322  1.0000
  Fe  Fe16      1.0  0.24097  0.35892  0.16036  1.0000
  S   S30       1.0  0.27891  0.35240  0.16917  1.0000
  S   S31       1.0  0.17760  0.37339  0.14359  1.0000
  S   S32       1.0  0.21690  0.33197  0.14897  1.0000
  C   C1        1.0  0.20445  0.35521  0.03793  1.0000
  C   C2        1.0  0.45645  0.18653  0.08270  1.0000
  C   C3        1.0  0.20713  0.03216  0.28524  1.0000
  C   C4        1.0  0.14901  0.19163  0.41659  1.0000
  H   H1        1.0  0.22242  0.38141  0.05933  1.0000
  C   C5        1.0  0.01485  0.26933  0.36010  1.0000
  C   C6        1.0  0.35703  0.28820  0.03982  1.0000
  H   H2        1.0  0.02909  0.24174  0.33381  1.0000
  H   H3        1.0  0.09166  0.32674  0.34826  1.0000
  H   H4        1.0  0.43705  0.30963  0.06617  1.0000
  H   H5        1.0  0.18915  0.03464  0.29107  1.0000
  C   C7        1.0  0.02722  0.29828  0.27441  1.0000
  H   H6        1.0  0.23430  0.47108  0.26750  1.0000
  H   H7        1.0  0.27701  0.37846  0.01206  1.0000
  H   H8        1.0  0.10247  0.28757  0.46617  1.0000
  C   C8        1.0  0.15735  0.31178  0.30195  1.0000
  C   C9        1.0  0.17336  0.32778  0.29326  1.0000
  C   C10       1.0  0.17710  0.33275  0.26360  1.0000
  C   C11       1.0  0.16469  0.32187  0.24232  1.0000
  C   C12       1.0  0.14887  0.30574  0.25102  1.0000
  C   C13       1.0  0.14519  0.30072  0.28060  1.0000
  H   H9        1.0  0.18278  0.33655  0.30954  1.0000
  H   H10       1.0  0.18928  0.34525  0.25721  1.0000
  H   H11       1.0  0.13926  0.29718  0.23474  1.0000
  H   H12       1.0  0.13279  0.28845  0.28681  1.0000
  C   C14       1.0  0.47269  0.20730  0.16409  1.0000
  C   C15       1.0  0.24490  0.04712  0.28036  1.0000
  C   C16       1.0  0.47328  0.22953  0.17517  1.0000
  H   H13       1.0  0.24222  0.33835  0.08078  1.0000
  H   H14       1.0  0.45750  0.23844  0.18213  1.0000
  C   C17       1.0  0.37569  0.22409  0.04209  1.0000
  C   C18       1.0  0.36892  0.20153  0.04129  1.0000
  C   C19       1.0  0.27920  0.37389  0.05822  1.0000
  H   H15       1.0  0.37871  0.23205  0.06272  1.0000
  C   C20       1.0  0.19888  0.34605  0.01087  1.0000
  C   C21       1.0  0.33660  0.29563  0.16882  1.0000
  C   C22       1.0  0.34078  0.31889  0.17109  1.0000
  C   C23       1.0  0.32277  0.33556  0.17065  1.0000
  C   C24       1.0  0.30006  0.32948  0.16807  1.0000
  C   C25       1.0  0.29548  0.30609  0.16571  1.0000
  C   C26       1.0  0.31383  0.28911  0.16590  1.0000
  H   H16       1.0  0.35815  0.32414  0.17359  1.0000
  H   H17       1.0  0.32653  0.35344  0.17272  1.0000
  H   H18       1.0  0.27794  0.30111  0.16453  1.0000
  H   H19       1.0  0.31039  0.27113  0.16450  1.0000
  C   C27       1.0  0.28555  0.11572  0.48894  1.0000
  C   C28       1.0  0.36801  0.28620  0.06655  1.0000
  H   H20       1.0  0.24707  0.32602  0.02975  1.0000
  C   C29       1.0  0.29442  0.02077  0.49389  1.0000
  H   H21       1.0  0.29337  0.11896  0.46803  1.0000
  C   C30       1.0  0.17866  0.14043  0.32741  1.0000
  C   C31       1.0  0.15913  0.13912  0.31031  1.0000
  C   C32       1.0  0.14297  0.15757  0.30847  1.0000
  C   C33       1.0  0.14589  0.17780  0.32375  1.0000
  C   C34       1.0  0.16575  0.17962  0.34049  1.0000
  C   C35       1.0  0.18210  0.16084  0.34250  1.0000
  H   H22       1.0  0.15638  0.12360  0.29839  1.0000
  H   H23       1.0  0.12793  0.15602  0.29523  1.0000
  H   H24       1.0  0.16864  0.19550  0.35148  1.0000
  H   H25       1.0  0.19741  0.16222  0.35526  1.0000
  C   C36       1.0  0.31605  0.14523  0.30046  1.0000
  C   C37       1.0  0.30160  0.14037  0.27748  1.0000
  C   C38       1.0  0.30680  0.14772  0.24900  1.0000
  C   C39       1.0  0.32641  0.16014  0.24303  1.0000
  C   C40       1.0  0.34051  0.16554  0.26613  1.0000
  C   C41       1.0  0.33538  0.15806  0.29460  1.0000
  H   H26       1.0  0.28669  0.13053  0.28153  1.0000
  H   H27       1.0  0.29572  0.14347  0.23137  1.0000
  H   H28       1.0  0.35559  0.17513  0.26200  1.0000
  H   H29       1.0  0.34667  0.16201  0.31215  1.0000
  C   C42       1.0  0.22663  0.46340  0.17184  1.0000
  C   C43       1.0  0.20523  0.46241  0.15866  1.0000
  C   C44       1.0  0.21825  0.37405  0.03872  1.0000
  H   H30       1.0  0.23596  0.44768  0.17803  1.0000
  C   C45       1.0  0.47079  0.26882  0.00953  1.0000
  C   C46       1.0  0.24009  0.00363  0.35038  1.0000
  H   H31       1.0  0.33099  0.04610  0.17908  1.0000
  H   H32       1.0  0.45515  0.16838  0.08708  1.0000
  C   C47       1.0  0.26044  0.00390  0.36614  1.0000
  H   H33       1.0  0.23111  0.01964  0.34460  1.0000
  C   C48       1.0  0.05164  0.30450  0.43901  1.0000
  H   H34       1.0  0.17747  0.21294  0.40981  1.0000
  H   H35       1.0  0.32949  0.08154  0.33778  1.0000
  H   H36       1.0  0.23369  0.24591  0.43949  1.0000
  C   C49       1.0  0.03731  0.27899  0.47612  1.0000
  C   C50       1.0  0.04214  0.28381  0.44687  1.0000
  H   H37       1.0  0.18482  0.16229  0.49444  1.0000
  H   H38       1.0  0.99525  0.29477  0.38494  1.0000
  C   C51       1.0  0.03772  0.23035  0.46285  1.0000
  C   C52       1.0  0.05920  0.21976  0.46940  1.0000
  C   C53       1.0  0.06937  0.20330  0.45080  1.0000
  C   C54       1.0  0.05827  0.19726  0.42546  1.0000
  C   C55       1.0  0.03715  0.20805  0.41839  1.0000
  C   C56       1.0  0.02698  0.22461  0.43685  1.0000
  C   C57       1.0  0.18737  0.48749  0.22808  1.0000
  H   H39       1.0  0.18475  0.10206  0.44177  1.0000
  C   C58       1.0  0.11379  0.25627  0.48767  1.0000
  H   H40       1.0  0.22194  0.47413  0.01538  1.0000
  H   H41       1.0  0.12752  0.17605  0.48201  1.0000
  P   P1        1.0  0.02469  0.25237  0.48612  1.0000
  C   C59       1.0  0.05634  0.32054  0.46021  1.0000
  C   C60       1.0  0.37796  0.23656  0.01614  1.0000
  C   C61       1.0  0.41004  0.30230  0.13106  1.0000
  H   H42       1.0  0.49331  0.17880  0.14686  1.0000
  H   H43       1.0  0.05558  0.30792  0.41641  1.0000
  C   C62       1.0  0.47958  0.21943  0.07545  1.0000
  H   H44       1.0  0.25375  0.02445  0.21194  1.0000
  C   C63       1.0  0.29949  0.04016  0.28599  1.0000
  H   H45       1.0  0.03875  0.27161  0.43002  1.0000
  H   H46       1.0  0.27660  0.16750  0.46274  1.0000
  H   H47       1.0  0.08627  0.19585  0.45560  1.0000
  H   H48       1.0  0.06642  0.18486  0.41076  1.0000
  H   H49       1.0  0.02891  0.20402  0.39819  1.0000
  H   H50       1.0  0.23727  0.39806  0.01369  1.0000
  H   H51       1.0  0.15865  0.19958  0.49896  1.0000
  H   H52       1.0  0.24307  0.15758  0.43399  1.0000
  C   C64       1.0  0.31053  0.03532  0.21540  1.0000
  H   H53       1.0  0.48833  0.30148  0.04476  1.0000
  C   C65       1.0  0.22661  0.38347  0.01279  1.0000
  H   H54       1.0  0.18367  0.14432  0.44606  1.0000
  H   H55       1.0  0.28445  0.36516  0.10334  1.0000
  H   H56       1.0  0.23648  0.06655  0.47346  1.0000
  C   C66       1.0  0.26003  0.19846  0.48013  1.0000
  C   C67       1.0  0.20504  0.47328  0.23947  1.0000
  H   H57       1.0  0.26576  0.38689  0.06281  1.0000
  H   H58       1.0  0.28759  0.02584  0.44811  1.0000
  H   H59       1.0  0.39777  0.31095  0.14565  1.0000
  C   C68       1.0  0.30633  0.34422  0.07511  1.0000
  H   H60       1.0  0.30221  0.01602  0.32189  1.0000
  P   P2        1.0  0.29670  0.25752  0.05483  1.0000
  C   C69       1.0  0.29137  0.23399  0.07894  1.0000
  C   C70       1.0  0.32517  0.26747  0.05915  1.0000
  C   C71       1.0  0.33613  0.26583  0.08613  1.0000
  C   C72       1.0  0.35757  0.27505  0.08968  1.0000
  C   C73       1.0  0.32145  0.06987  0.32325  1.0000
  C   C74       1.0  0.26978  0.23206  0.09219  1.0000
  C   C75       1.0  0.26520  0.21259  0.10869  1.0000
  C   C76       1.0  0.28203  0.19484  0.11170  1.0000
  C   C77       1.0  0.30344  0.19661  0.09832  1.0000
  C   C78       1.0  0.30807  0.21607  0.08192  1.0000
  C   C79       1.0  0.27830  0.28243  0.06278  1.0000
  H   H61       1.0  0.32130  0.04213  0.35427  1.0000
  C   C80       1.0  0.99443  0.27981  0.37133  1.0000
  C   C81       1.0  0.25207  0.32264  0.07575  1.0000
  C   C82       1.0  0.26255  0.30982  0.09804  1.0000
  C   C83       1.0  0.27568  0.28979  0.09163  1.0000
  H   H62       1.0  0.07167  0.21932  0.28848  1.0000
  C   C84       1.0  0.28968  0.36163  0.08105  1.0000
  C   C85       1.0  0.33569  0.27890  0.03614  1.0000
  C   C86       1.0  0.22045  0.20637  0.46560  1.0000
  H   H63       1.0  0.32814  0.25766  0.10453  1.0000
  H   H64       1.0  0.36610  0.27358  0.11041  1.0000
  C   C87       1.0  0.29556  0.03241  0.46727  1.0000
  H   H65       1.0  0.25635  0.24530  0.08925  1.0000
  H   H66       1.0  0.24855  0.21112  0.11894  1.0000
  H   H67       1.0  0.27854  0.17970  0.12438  1.0000
  H   H68       1.0  0.31655  0.18285  0.10049  1.0000
  H   H69       1.0  0.32458  0.21696  0.07116  1.0000
  C   C88       1.0  0.29606  0.04140  0.16673  1.0000
  C   C89       1.0  0.25396  0.02557  0.27138  1.0000
  H   H70       1.0  0.01890  0.26962  0.24754  1.0000
  H   H71       1.0  0.26085  0.31579  0.12020  1.0000
  H   H72       1.0  0.28415  0.28034  0.10912  1.0000
  C   C90       1.0  0.13511  0.18098  0.43683  1.0000
  H   H73       1.0  0.31385  0.33422  0.09286  1.0000
  C   C91       1.0  0.36510  0.19139  0.01426  1.0000
  C   C92       1.0  0.17677  0.26146  0.43500  1.0000
  H   H74       1.0  0.20691  0.45549  0.23280  1.0000
  C   C93       1.0  0.19967  0.28681  0.40641  1.0000
  C   C94       1.0  0.30605  0.03287  0.31392  1.0000
  H   H75       1.0  0.16286  0.29006  0.40983  1.0000
  H   H76       1.0  0.04852  0.29391  0.15224  1.0000
  C   C95       1.0  0.16633  0.22650  0.24031  1.0000
  C   C96       1.0  0.16406  0.23740  0.26715  1.0000
  C   C97       1.0  0.17928  0.25402  0.27465  1.0000
  C   C98       1.0  0.19714  0.25943  0.25572  1.0000
  C   C99       1.0  0.19984  0.24819  0.22895  1.0000
  C   C100      1.0  0.18390  0.23214  0.22107  1.0000
  P   P3        1.0  0.22293  0.25463  0.20414  1.0000
  C   C101      1.0  0.24210  0.22964  0.19785  1.0000
  C   C102      1.0  0.21020  0.26545  0.17068  1.0000
  C   C103      1.0  0.22259  0.26465  0.14432  1.0000
  C   C104      1.0  0.21319  0.27478  0.11920  1.0000
  C   C105      1.0  0.19141  0.28580  0.12013  1.0000
  C   C106      1.0  0.17894  0.28662  0.14616  1.0000
  C   C107      1.0  0.18825  0.27652  0.17129  1.0000
  C   C108      1.0  0.26322  0.23210  0.18352  1.0000
  C   C109      1.0  0.27855  0.21318  0.17967  1.0000
  C   C110      1.0  0.27311  0.19164  0.19019  1.0000
  C   C111      1.0  0.25234  0.18902  0.20479  1.0000
  C   C112      1.0  0.23693  0.20790  0.20869  1.0000
  C   C113      1.0  0.23953  0.27730  0.21840  1.0000
  C   C114      1.0  0.26085  0.27229  0.23156  1.0000
  C   C115      1.0  0.27471  0.29001  0.23956  1.0000
  C   C116      1.0  0.26709  0.31284  0.23532  1.0000
  C   C117      1.0  0.24543  0.31794  0.22370  1.0000
  C   C118      1.0  0.23165  0.30028  0.21534  1.0000
  H   H77       1.0  0.15435  0.21377  0.23443  1.0000
  H   H78       1.0  0.15032  0.23323  0.28203  1.0000
  H   H79       1.0  0.17690  0.26303  0.29501  1.0000
  H   H80       1.0  0.20852  0.27257  0.26193  1.0000
  H   H81       1.0  0.18522  0.22382  0.20012  1.0000
  H   H82       1.0  0.23969  0.25689  0.14307  1.0000
  H   H83       1.0  0.22303  0.27489  0.09915  1.0000
  H   H84       1.0  0.18455  0.29452  0.10098  1.0000
  H   H85       1.0  0.16248  0.29605  0.14724  1.0000
  H   H86       1.0  0.17861  0.27838  0.19142  1.0000
  H   H87       1.0  0.26824  0.24876  0.17604  1.0000
  H   H88       1.0  0.29491  0.21527  0.16896  1.0000
  H   H89       1.0  0.28526  0.17709  0.18757  1.0000
  H   H90       1.0  0.24841  0.17239  0.21359  1.0000
  H   H91       1.0  0.22131  0.20533  0.22064  1.0000
  H   H92       1.0  0.26714  0.25478  0.23509  1.0000
  H   H93       1.0  0.29159  0.28607  0.24839  1.0000
  H   H94       1.0  0.27808  0.32663  0.24055  1.0000
  H   H95       1.0  0.23960  0.33565  0.22039  1.0000
  H   H96       1.0  0.21504  0.30469  0.20602  1.0000
  C   C119      1.0  0.30500  0.18856  0.37523  1.0000
  C   C120      1.0  0.29553  0.19597  0.40170  1.0000
  C   C121      1.0  0.27606  0.21091  0.40209  1.0000
  C   C122      1.0  0.26587  0.21822  0.37608  1.0000
  C   C123      1.0  0.27530  0.21083  0.34933  1.0000
  C   C124      1.0  0.29505  0.19605  0.34919  1.0000
  P   P4        1.0  0.26225  0.21947  0.31526  1.0000
  C   C125      1.0  0.24339  0.24480  0.32024  1.0000
  C   C126      1.0  0.28571  0.22530  0.29086  1.0000
  C   C127      1.0  0.28833  0.21402  0.26413  1.0000
  C   C128      1.0  0.30694  0.21839  0.24592  1.0000
  C   C129      1.0  0.32304  0.23393  0.25414  1.0000
  C   C130      1.0  0.32073  0.24497  0.28089  1.0000
  C   C131      1.0  0.30228  0.24051  0.29932  1.0000
  C   C132      1.0  0.22249  0.24306  0.33535  1.0000
  C   C133      1.0  0.20791  0.26248  0.33973  1.0000
  C   C134      1.0  0.21380  0.28371  0.32858  1.0000
  C   C135      1.0  0.23421  0.28552  0.31287  1.0000
  C   C136      1.0  0.24896  0.26619  0.30870  1.0000
  C   C137      1.0  0.24566  0.19652  0.30176  1.0000
  C   C138      1.0  0.25267  0.17348  0.30676  1.0000
  C   C139      1.0  0.23936  0.15589  0.29699  1.0000
  C   C140      1.0  0.21900  0.16110  0.28218  1.0000
  C   C141      1.0  0.21196  0.18394  0.27692  1.0000
  C   C142      1.0  0.22537  0.20159  0.28629  1.0000
  H   H97       1.0  0.31989  0.17666  0.37476  1.0000
  H   H98       1.0  0.30325  0.19001  0.42183  1.0000
  H   H99       1.0  0.26874  0.21671  0.42258  1.0000
  H   H100      1.0  0.25079  0.22963  0.37716  1.0000
  H   H101      1.0  0.30263  0.18993  0.32892  1.0000
  H   H102      1.0  0.27638  0.20154  0.25748  1.0000
  H   H103      1.0  0.30930  0.20932  0.22564  1.0000
  H   H104      1.0  0.33752  0.23707  0.23996  1.0000
  H   H105      1.0  0.33348  0.25672  0.28744  1.0000
  H   H106      1.0  0.30094  0.24888  0.32023  1.0000
  H   H107      1.0  0.21747  0.22665  0.34376  1.0000
  H   H108      1.0  0.19177  0.26109  0.35135  1.0000
  H   H109      1.0  0.20236  0.29869  0.33174  1.0000
  H   H110      1.0  0.23845  0.30193  0.30364  1.0000
  H   H111      1.0  0.26450  0.26812  0.29625  1.0000
  H   H112      1.0  0.26825  0.16886  0.31836  1.0000
  H   H113      1.0  0.24455  0.13815  0.30147  1.0000
  H   H114      1.0  0.20844  0.14739  0.27541  1.0000
  H   H115      1.0  0.19588  0.18791  0.26604  1.0000
  H   H116      1.0  0.21967  0.21913  0.28177  1.0000
  C   C143      1.0  0.04795  0.30535  0.17070  1.0000
  C   C144      1.0  0.04370  0.32890  0.16648  1.0000
  C   C145      1.0  0.04279  0.34366  0.19028  1.0000
  C   C146      1.0  0.04638  0.33491  0.21829  1.0000
  C   C147      1.0  0.05139  0.31137  0.22258  1.0000
  C   C148      1.0  0.05159  0.29655  0.19868  1.0000
  P   P5        1.0  0.05560  0.30028  0.25885  1.0000
  C   C149      1.0  0.07101  0.27272  0.25782  1.0000
  C   C150      1.0  0.07429  0.31800  0.27892  1.0000
  C   C151      1.0  0.09011  0.33145  0.26431  1.0000
  C   C152      1.0  0.10580  0.34369  0.27997  1.0000
  C   C153      1.0  0.10614  0.34224  0.31023  1.0000
  C   C154      1.0  0.09081  0.32853  0.32487  1.0000
  C   C155      1.0  0.07507  0.31633  0.30928  1.0000
  C   C156      1.0  0.06390  0.25423  0.27473  1.0000
  P   P6        1.0  0.19421  0.22420  0.46761  1.0000
  C   C157      1.0  0.09707  0.23098  0.25844  1.0000
  C   C158      1.0  0.10440  0.24941  0.24187  1.0000
  C   C159      1.0  0.09150  0.27023  0.24166  1.0000
  C   C160      1.0  0.26113  0.17860  0.46328  1.0000
  H   H117      1.0  0.04112  0.33571  0.14474  1.0000
  H   H118      1.0  0.03947  0.36191  0.18697  1.0000
  H   H119      1.0  0.04558  0.34652  0.23656  1.0000
  H   H120      1.0  0.09105  0.33192  0.24085  1.0000
  H   H121      1.0  0.11844  0.35346  0.26857  1.0000
  C   C161      1.0  0.15642  0.19720  0.47592  1.0000
  H   H122      1.0  0.23610  0.27918  0.40673  1.0000
  H   H123      1.0  0.06401  0.30501  0.32086  1.0000
  C   C162      1.0  0.19333  0.48311  0.15091  1.0000
  C   C163      1.0  0.43504  0.26915  0.11965  1.0000
  H   H124      1.0  0.10735  0.21500  0.25931  1.0000
  H   H125      1.0  0.12032  0.24776  0.22963  1.0000
  H   H126      1.0  0.09772  0.28454  0.22931  1.0000
  C   C164      1.0  0.23979  0.21233  0.48127  1.0000
  C   C165      1.0  0.18381  0.13375  0.46548  1.0000
  C   C166      1.0  0.21955  0.27422  0.41473  1.0000
  H   H127      1.0  0.20071  0.30144  0.39192  1.0000
  H   H128      1.0  0.41985  0.19338  0.08228  1.0000
  H   H129      1.0  0.02927  0.32707  0.30364  1.0000
  C   C167      1.0  0.41658  0.31279  0.10511  1.0000
  H   H130      1.0  0.14558  0.18993  0.39369  1.0000
  C   C168      1.0  0.31695  0.04769  0.33245  1.0000
  H   H131      1.0  0.30703  0.06219  0.44473  1.0000
  P   P7        1.0  0.28417  0.02150  0.26262  1.0000
  C   C169      1.0  0.43056  0.27172  0.02302  1.0000
  C   C170      1.0  0.23664  0.04798  0.47351  1.0000
  C   C171      1.0  0.23794  0.03607  0.44732  1.0000
  H   H132      1.0  0.20751  0.18154  0.43572  1.0000
  C   C172      1.0  0.45965  0.23388  0.07400  1.0000
  C   C173      1.0  0.21807  0.25529  0.43333  1.0000
  H   H133      1.0  0.22248  0.46777  0.06818  1.0000
  C   C174      1.0  0.19659  0.24867  0.44357  1.0000
  C   C175      1.0  0.22190  0.18662  0.44831  1.0000
  P   P8        1.0  0.46118  0.26445  0.06880  1.0000
  H   H134      1.0  0.04894  0.25606  0.28874  1.0000
  C   C176      1.0  0.23852  0.01216  0.44724  1.0000
  C   C177      1.0  0.44081  0.27907  0.09287  1.0000
  H   H135      1.0  0.40960  0.32982  0.09979  1.0000
  C   C178      1.0  0.10611  0.27933  0.48682  1.0000
  C   C179      1.0  0.43812  0.22423  0.07580  1.0000
  H   H136      1.0  0.44241  0.25249  0.12610  1.0000
  H   H137      1.0  0.38463  0.29315  0.06936  1.0000
  C   C180      1.0  0.01356  0.24998  0.34257  1.0000
  C   C181      1.0  0.31289  0.33947  0.04639  1.0000
  H   H138      1.0  0.23951  0.00330  0.42659  1.0000
  C   C182      1.0  0.23571  0.03590  0.49972  1.0000
  C   C183      1.0  0.13879  0.18377  0.46646  1.0000
  H   H139      1.0  0.23892  0.04529  0.42695  1.0000
  C   C184      1.0  0.41945  0.28062  0.13843  1.0000
  C   C185      1.0  0.43200  0.30126  0.08610  1.0000
  H   H140      1.0  0.11896  0.35093  0.32227  1.0000
  C   C186      1.0  0.07683  0.23339  0.27481  1.0000
  H   H141      1.0  0.41454  0.27263  0.15875  1.0000
  H   H142      1.0  0.41702  0.27116  0.03918  1.0000
  H   H143      1.0  0.05462  0.27823  0.20154  1.0000
  H   H144      1.0  0.12118  0.17099  0.42946  1.0000
  C   C187      1.0  0.24216  0.17289  0.44718  1.0000
  H   H145      1.0  0.06417  0.33632  0.45409  1.0000
  C   C188      1.0  0.17831  0.28042  0.41653  1.0000
  H   H146      1.0  0.32547  0.32571  0.04221  1.0000
  C   C189      1.0  0.28575  0.36915  0.02947  1.0000
  H   H147      1.0  0.16006  0.25674  0.44250  1.0000
  H   H148      1.0  0.42249  0.23493  0.07410  1.0000
  H   H149      1.0  0.18607  0.07768  0.48602  1.0000
  C   C190      1.0  0.45368  0.26938  0.03120  1.0000
  C   C191      1.0  0.43654  0.20066  0.08021  1.0000
  C   C192      1.0  0.17072  0.20770  0.45567  1.0000
  C   C193      1.0  0.27026  0.24434  0.00833  1.0000
  H   H150      1.0  0.35993  0.17387  0.01350  1.0000
  C   C194      1.0  0.18435  0.10990  0.46306  1.0000
  H   H151      1.0  0.32478  0.03521  0.23031  1.0000
  H   H152      1.0  0.29821  0.06914  0.25614  1.0000
  C   C195      1.0  0.30331  0.35249  0.02338  1.0000
  C   C196      1.0  0.25494  0.31569  0.04695  1.0000
  C   C197      1.0  0.16683  0.20486  0.42588  1.0000
  C   C198      1.0  0.26824  0.29578  0.04039  1.0000
  C   C199      1.0  0.01287  0.28156  0.26416  1.0000
  H   H153      1.0  0.25576  0.06148  0.28189  1.0000
  H   H154      1.0  0.29887  0.04614  0.14424  1.0000
  H   H155      1.0  0.23917  0.22763  0.49450  1.0000
  H   H156      1.0  0.31828  0.09460  0.28864  1.0000
  C   C200      1.0  0.23557  0.48483  0.17811  1.0000
  H   H157      1.0  0.01099  0.23326  0.43029  1.0000
  H   H158      1.0  0.21488  0.06697  0.29505  1.0000
  C   C201      1.0  0.30651  0.05305  0.46527  1.0000
  C   C202      1.0  0.26222  0.11148  0.49073  1.0000
  H   H159      1.0  0.35219  0.35479  0.02196  1.0000
  H   H160      1.0  0.28523  0.00519  0.49526  1.0000
  C   C203      1.0  0.31500  0.07728  0.29553  1.0000
  C   C204      1.0  0.22163  0.05036  0.28752  1.0000
  C   C205      1.0  0.30383  0.06264  0.27708  1.0000
  H   H161      1.0  0.17561  0.48060  0.21270  1.0000
  H   H162      1.0  0.25552  0.25088  0.02075  1.0000
  C   C206      1.0  0.18429  0.14388  0.49286  1.0000
  C   C207      1.0  0.31415  0.04138  0.18636  1.0000
  C   C208      1.0  0.27436  0.03525  0.17611  1.0000
  H   H163      1.0  0.26036  0.03514  0.16085  1.0000
  C   C209      1.0  0.22052  0.48213  0.25886  1.0000
  C   C210      1.0  0.27066  0.02925  0.20517  1.0000
  H   H164      1.0  0.32737  0.28066  0.01537  1.0000
  C   C211      1.0  0.22414  0.48861  0.02938  1.0000
  H   H165      1.0  0.27478  0.20292  0.49261  1.0000
  H   H166      1.0  0.38283  0.25403  0.01698  1.0000
  C   C212      1.0  0.23642  0.01189  0.49977  1.0000
  H   H167      1.0  0.18815  0.33151  0.01007  1.0000
  H   H168      1.0  0.36523  0.29648  0.02169  1.0000
  H   H169      1.0  0.06859  0.22450  0.48830  1.0000
  H   H170      1.0  0.32441  0.07842  0.48843  1.0000
  C   C213      1.0  0.99672  0.31189  0.30726  1.0000
  C   C214      1.0  0.35785  0.34501  0.00311  1.0000
  C   C215      1.0  0.31632  0.06216  0.48986  1.0000
  C   C216      1.0  0.47796  0.19587  0.08003  1.0000
  C   C217      1.0  0.04154  0.29549  0.49721  1.0000
  H   H171      1.0  0.48333  0.21624  0.01437  1.0000
  H   H172      1.0  0.25180  0.48537  0.18912  1.0000
  H   H173      1.0  0.17676  0.48255  0.14072  1.0000
  C   C218      1.0  0.28866  0.02955  0.22513  1.0000
  C   C219      1.0  0.31117  0.23611  0.00343  1.0000
  H   H174      1.0  0.39333  0.34425  0.01579  1.0000
  H   H175      1.0  0.20463  0.99664  0.27387  1.0000
  H   H176      1.0  0.27088  0.29116  0.01789  1.0000
  C   C220      1.0  0.48877  0.27495  0.07794  1.0000
  C   C221      1.0  0.29253  0.24617  0.01903  1.0000
  C   C222      1.0  0.49351  0.19599  0.15541  1.0000
  C   C223      1.0  0.01881  0.31375  0.29566  1.0000
  C   C224      1.0  0.99420  0.25393  0.47903  1.0000
  H   H177      1.0  0.00576  0.33916  0.47013  1.0000
  C   C225      1.0  0.18517  0.09617  0.48803  1.0000
  C   C226      1.0  0.05117  0.31608  0.48930  1.0000
  H   H178      1.0  0.44117  0.21526  0.01640  1.0000
  H   H179      1.0  0.49338  0.18491  0.08208  1.0000
  H   H180      1.0  0.49358  0.25276  0.11559  1.0000
  C   C227      1.0  0.21585  0.01079  0.27553  1.0000
  C   C228      1.0  0.23825  0.99985  0.47351  1.0000
  H   H181      1.0  0.32833  0.23596  0.01205  1.0000
  H   H182      1.0  0.16872  0.26426  0.49340  1.0000
  C   C229      1.0  0.23915  0.00749  0.26852  1.0000
  C   C230      1.0  0.22429  0.48489  0.05944  1.0000
  H   H183      1.0  0.48862  0.26587  0.01513  1.0000
  Fe  Fe17      1.0  0.36203  0.20680  0.85591  1.0000
  S   S33       1.0  0.38698  0.22486  0.82786  1.0000
  S   S34       1.0  0.33844  0.18001  0.83836  1.0000
  Fe  Fe18      1.0  0.37570  0.23301  0.91073  1.0000
  S   S35       1.0  0.40125  0.25308  0.88559  1.0000
  S   S36       1.0  0.37356  0.24455  0.95792  1.0000
  Fe  Fe19      1.0  0.37376  0.25657  0.85174  1.0000
  S   S37       1.0  0.36678  0.28939  0.82607  1.0000
  Fe  Fe20      1.0  0.41223  0.21976  0.86447  1.0000
  S   S38       1.0  0.44892  0.20362  0.86290  1.0000
  S   S39       1.0  0.34743  0.23888  0.87797  1.0000
  S   S40       1.0  0.38793  0.19928  0.89142  1.0000
  Fe  Fe21      1.0  0.28840  0.07711  0.67015  1.0000
  S   S41       1.0  0.31677  0.09882  0.65397  1.0000
  S   S42       1.0  0.29859  0.04000  0.68284  1.0000
  Fe  Fe22      1.0  0.25311  0.11724  0.66431  1.0000
  S   S43       1.0  0.27889  0.14125  0.64711  1.0000
  S   S44       1.0  0.21503  0.12654  0.67011  1.0000
  Fe  Fe23      1.0  0.29180  0.11141  0.61984  1.0000
  S   S45       1.0  0.30537  0.11490  0.57346  1.0000
  Fe  Fe24      1.0  0.30172  0.12686  0.68284  1.0000
  S   S46       1.0  0.32494  0.15178  0.70567  1.0000
  S   S47       1.0  0.26437  0.08819  0.63439  1.0000
  S   S48       1.0  0.27505  0.10434  0.70162  1.0000
  Fe  Fe25      1.0  0.21578  0.41465  0.85606  1.0000
  S   S49       1.0  0.19391  0.39088  0.88185  1.0000
  S   S50       1.0  0.20096  0.45125  0.84832  1.0000
  Fe  Fe26      1.0  0.25487  0.37724  0.85070  1.0000
  S   S51       1.0  0.23616  0.35167  0.87675  1.0000
  S   S52       1.0  0.29097  0.37175  0.83259  1.0000
  Fe  Fe27      1.0  0.20557  0.36352  0.84942  1.0000
  S   S53       1.0  0.18394  0.33510  0.83105  1.0000
  Fe  Fe28      1.0  0.22617  0.38118  0.90637  1.0000
  S   S54       1.0  0.23381  0.38597  0.95425  1.0000
  S   S55       1.0  0.22507  0.38801  0.82196  1.0000
  S   S56       1.0  0.24726  0.40615  0.88175  1.0000
  Fe  Fe29      1.0  0.14038  0.24617  0.65157  1.0000
  S   S57       1.0  0.14409  0.28320  0.63976  1.0000
  S   S58       1.0  0.17572  0.22830  0.64584  1.0000
  Fe  Fe30      1.0  0.08905  0.25529  0.66550  1.0000
  S   S59       1.0  0.09034  0.29293  0.65577  1.0000
  S   S60       1.0  0.05570  0.23745  0.67531  1.0000
  Fe  Fe31      1.0  0.11082  0.28123  0.61641  1.0000
  S   S61       1.0  0.10301  0.29712  0.57212  1.0000
  Fe  Fe32      1.0  0.12386  0.29130  0.68048  1.0000
  S   S62       1.0  0.13727  0.32097  0.70715  1.0000
  S   S63       1.0  0.10838  0.24368  0.62505  1.0000
  S   S64       1.0  0.12122  0.25423  0.69333  1.0000
  C   C231      1.0  0.02699  0.24839  0.66965  1.0000
  H   H184      1.0  0.18858  0.27284  0.67931  1.0000
  C   C232      1.0  0.02177  0.27139  0.66257  1.0000
  H   H185      1.0  0.01261  0.21581  0.67878  1.0000
  H   H186      1.0  0.03549  0.28295  0.65937  1.0000
  C   C233      1.0  0.17241  0.33087  0.79579  1.0000
  C   C234      1.0  0.16334  0.30964  0.78901  1.0000
  C   C235      1.0  0.15302  0.30599  0.76185  1.0000
  C   C236      1.0  0.15149  0.32364  0.74111  1.0000
  C   C237      1.0  0.16089  0.34471  0.74779  1.0000
  C   C238      1.0  0.17141  0.34826  0.77479  1.0000
  H   H187      1.0  0.16395  0.29606  0.80509  1.0000
  H   H188      1.0  0.14570  0.28978  0.75729  1.0000
  H   H189      1.0  0.15963  0.35848  0.73204  1.0000
  H   H190      1.0  0.17830  0.36457  0.77973  1.0000
  C   C239      1.0  0.20402  0.15503  0.66501  1.0000
  C   C240      1.0  0.21864  0.17295  0.66063  1.0000
  C   C241      1.0  0.20955  0.19515  0.65440  1.0000
  C   C242      1.0  0.18576  0.19996  0.65396  1.0000
  C   C243      1.0  0.17102  0.18223  0.65933  1.0000
  C   C244      1.0  0.18017  0.15977  0.66459  1.0000
  H   H191      1.0  0.23697  0.16964  0.66164  1.0000
  H   H192      1.0  0.22102  0.20875  0.65012  1.0000
  H   H193      1.0  0.15265  0.18570  0.65890  1.0000
  H   H194      1.0  0.16873  0.14598  0.66803  1.0000
  C   C245      1.0  0.47584  0.21611  0.85766  1.0000
  P   P9        1.0  0.22962  0.45852  0.74470  1.0000
  C   C246      1.0  0.47773  0.23762  0.84463  1.0000
  C   C247      1.0  0.44278  0.19818  0.66384  1.0000
  H   H195      1.0  0.46240  0.24748  0.83824  1.0000
  C   C248      1.0  0.34437  0.31096  0.82952  1.0000
  C   C249      1.0  0.34635  0.33071  0.81257  1.0000
  C   C250      1.0  0.32970  0.34875  0.81397  1.0000
  C   C251      1.0  0.31040  0.34738  0.83199  1.0000
  C   C252      1.0  0.30787  0.32743  0.84878  1.0000
  C   C253      1.0  0.32498  0.30923  0.84769  1.0000
  H   H196      1.0  0.36114  0.33227  0.79848  1.0000
  H   H197      1.0  0.33192  0.36401  0.80102  1.0000
  H   H198      1.0  0.29302  0.32620  0.86283  1.0000
  H   H199      1.0  0.32320  0.29400  0.86081  1.0000
  C   C254      1.0  0.33391  0.17328  0.80120  1.0000
  C   C255      1.0  0.31976  0.15527  0.79439  1.0000
  C   C256      1.0  0.31641  0.14875  0.76531  1.0000
  C   C257      1.0  0.32710  0.16027  0.74261  1.0000
  C   C258      1.0  0.34076  0.17869  0.74937  1.0000
  C   C259      1.0  0.34416  0.18517  0.77844  1.0000
  H   H200      1.0  0.31165  0.14603  0.81177  1.0000
  H   H201      1.0  0.30602  0.13446  0.76050  1.0000
  H   H202      1.0  0.34922  0.18766  0.73204  1.0000
  H   H203      1.0  0.35522  0.19893  0.78328  1.0000
  C   C260      1.0  0.20712  0.35563  0.98482  1.0000
  C   C261      1.0  0.22118  0.37431  0.98576  1.0000
  C   C262      1.0  0.38800  0.14750  0.77033  1.0000
  H   H204      1.0  0.20276  0.34849  0.96412  1.0000
  C   C263      1.0  0.23517  0.47187  0.95921  1.0000
  C   C264      1.0  0.11544  0.25819  0.54059  1.0000
  C   C265      1.0  0.10762  0.28119  0.53984  1.0000
  C   C266      1.0  0.43907  0.18865  0.71504  1.0000
  H   H205      1.0  0.11944  0.25005  0.56115  1.0000
  C   C267      1.0  0.17621  0.25386  0.51069  1.0000
  C   C268      1.0  0.21940  0.49088  0.95899  1.0000
  H   H206      1.0  0.31958  0.29713  0.96985  1.0000
  C   C269      1.0  0.46493  0.27122  0.98026  1.0000
  C   C270      1.0  0.02275  0.33832  0.60667  1.0000
  H   H207      1.0  0.36402  0.19611  0.96760  1.0000
  C   C271      1.0  0.26538  0.10831  0.54355  1.0000
  C   C272      1.0  0.28857  0.11293  0.54187  1.0000
  C   C273      1.0  0.99868  0.27975  0.66100  1.0000
  H   H208      1.0  0.25745  0.10620  0.56457  1.0000
  H   H209      1.0  0.22254  0.00304  0.58746  1.0000
  C   C274      1.0  0.23790  0.47907  0.85601  1.0000
  C   C275      1.0  0.21421  0.47784  0.85258  1.0000
  C   C276      1.0  0.12474  0.17975  0.54533  1.0000
  H   H210      1.0  0.24863  0.46345  0.85716  1.0000
  C   C277      1.0  0.18503  0.13026  0.51808  1.0000
  H   H211      1.0  0.19270  0.46121  0.78882  1.0000
  C   C278      1.0  0.28679  0.01484  0.66898  1.0000
  C   C279      1.0  0.26526  0.01532  0.65594  1.0000
  H   H212      1.0  0.42608  0.18745  0.81352  1.0000
  H   H213      1.0  0.25562  0.03149  0.65322  1.0000
  H   H214      1.0  0.00481  0.23007  0.58742  1.0000
  H   H215      1.0  0.00580  0.32680  0.52136  1.0000
  H   H216      1.0  0.06641  0.25440  0.52089  1.0000
  C   C280      1.0  0.21776  0.46586  0.65745  1.0000
  C   C281      1.0  0.10308  0.29173  0.51285  1.0000
  H   H217      1.0  0.21483  0.26369  0.88051  1.0000
  C   C282      1.0  0.22271  0.29163  0.85211  1.0000
  H   H218      1.0  0.47820  0.27050  0.96364  1.0000
  C   C283      1.0  0.21001  0.27391  0.74774  1.0000
  H   H219      1.0  0.36668  0.24850  0.72710  1.0000
  C   C284      1.0  0.17078  0.21487  0.73373  1.0000
  H   H220      1.0  0.31659  0.12015  0.51301  1.0000
  C   C285      1.0  0.23088  0.45223  0.94334  1.0000
  H   H221      1.0  0.16018  0.21482  0.71452  1.0000
  H   H222      1.0  0.30318  0.41208  0.74121  1.0000
  H   H223      1.0  0.21513  0.41592  0.71937  1.0000
  H   H224      1.0  0.41901  0.21130  0.97143  1.0000
  H   H225      1.0  0.18287  0.39142  0.73038  1.0000
  H   H226      1.0  0.28303  0.21596  0.94534  1.0000
  H   H227      1.0  0.05504  0.32838  0.50586  1.0000
  C   C286      1.0  0.22989  0.25165  0.84010  1.0000
  C   C287      1.0  0.23854  0.25799  0.81296  1.0000
  C   C288      1.0  0.23943  0.28121  0.80527  1.0000
  C   C289      1.0  0.23158  0.29803  0.82511  1.0000
  P   P10       1.0  0.25109  0.28877  0.77029  1.0000
  C   C290      1.0  0.25321  0.31942  0.76727  1.0000
  C   C291      1.0  0.27898  0.27385  0.76814  1.0000
  C   C292      1.0  0.29425  0.27547  0.79134  1.0000
  C   C293      1.0  0.31536  0.26308  0.79099  1.0000
  C   C294      1.0  0.30625  0.24693  0.74454  1.0000
  H   H228      1.0  0.21613  0.30474  0.86700  1.0000
  C   C295      1.0  0.28511  0.25938  0.74478  1.0000
  C   C296      1.0  0.23317  0.33325  0.76258  1.0000
  C   C297      1.0  0.23426  0.35698  0.75971  1.0000
  C   C298      1.0  0.25532  0.36715  0.76161  1.0000
  C   C299      1.0  0.27535  0.35353  0.76606  1.0000
  C   C300      1.0  0.27437  0.32974  0.76894  1.0000
  C   C301      1.0  0.23195  0.28161  0.74149  1.0000
  C   C302      1.0  0.99634  0.31724  0.57776  1.0000
  H   H229      1.0  0.44827  0.15335  0.72623  1.0000
  C   C303      1.0  0.23783  0.28667  0.71259  1.0000
  H   H230      1.0  0.22938  0.23372  0.84600  1.0000
  H   H231      1.0  0.24459  0.24486  0.79791  1.0000
  C   C304      1.0  0.22185  0.26849  0.85962  1.0000
  H   H232      1.0  0.28979  0.28629  0.80981  1.0000
  C   C305      1.0  0.43762  0.20484  0.69238  1.0000
  H   H233      1.0  0.27352  0.25724  0.72704  1.0000
  H   H234      1.0  0.21660  0.32572  0.76160  1.0000
  H   H235      1.0  0.25599  0.38561  0.76051  1.0000
  H   H236      1.0  0.29159  0.36151  0.76832  1.0000
  H   H237      1.0  0.29012  0.31972  0.77285  1.0000
  C   C306      1.0  0.19561  0.47063  0.92572  1.0000
  H   H238      1.0  0.25419  0.29375  0.70747  1.0000
  P   P11       1.0  0.30183  0.01566  0.55361  1.0000
  H   H239      1.0  0.35216  0.01833  0.72739  1.0000
  H   H240      1.0  0.32703  0.26439  0.80902  1.0000
  P   P12       1.0  0.43335  0.19708  0.75208  1.0000
  H   H241      1.0  0.37312  0.04582  0.62517  1.0000
  C   C307      1.0  0.18913  0.23346  0.50472  1.0000
  P   P13       1.0  0.31183  0.34630  0.98622  1.0000
  C   C308      1.0  0.30772  0.37129  0.96323  1.0000
  C   C309      1.0  0.34208  0.33852  0.98221  1.0000
  H   H242      1.0  0.20790  0.43650  0.91407  1.0000
  H   H243      1.0  0.12458  0.22804  0.51541  1.0000
  H   H244      1.0  0.38232  0.02816  0.57728  1.0000
  C   C310      1.0  0.37374  0.32165  0.95346  1.0000
  C   C311      1.0  0.35038  0.32764  0.95679  1.0000
  C   C312      1.0  0.30219  0.36874  0.93385  1.0000
  C   C313      1.0  0.29960  0.38795  0.91575  1.0000
  C   C314      1.0  0.30236  0.40985  0.92679  1.0000
  C   C315      1.0  0.30832  0.41251  0.95585  1.0000
  C   C316      1.0  0.31131  0.39327  0.97394  1.0000
  C   C317      1.0  0.29334  0.32471  0.97345  1.0000
  C   C318      1.0  0.30180  0.30243  0.96664  1.0000
  C   C319      1.0  0.28727  0.28667  0.95487  1.0000
  C   C320      1.0  0.26409  0.29279  0.95059  1.0000
  C   C321      1.0  0.25543  0.31471  0.95810  1.0000
  C   C322      1.0  0.26999  0.33059  0.96948  1.0000
  H   H245      1.0  0.30161  0.03671  0.61220  1.0000
  C   C323      1.0  0.99818  0.30628  0.73091  1.0000
  C   C324      1.0  0.28560  0.22434  0.96589  1.0000
  C   C325      1.0  0.29864  0.11649  0.51446  1.0000
  H   H246      1.0  0.35125  0.01494  0.54651  1.0000
  H   H247      1.0  0.40129  0.16312  0.73198  1.0000
  H   H248      1.0  0.43730  0.27478  0.94959  1.0000
  H   H249      1.0  0.48136  0.20710  0.92162  1.0000
  H   H250      1.0  0.37986  0.31277  0.93403  1.0000
  H   H251      1.0  0.33883  0.32383  0.93939  1.0000
  H   H252      1.0  0.29988  0.35197  0.92475  1.0000
  H   H253      1.0  0.29530  0.38582  0.89314  1.0000
  H   H254      1.0  0.29990  0.42471  0.91275  1.0000
  H   H255      1.0  0.31058  0.42949  0.96434  1.0000
  C   C326      1.0  0.27115  0.43220  0.74230  1.0000
  H   H256      1.0  0.20392  0.46312  0.64256  1.0000
  H   H257      1.0  0.29414  0.26982  0.94873  1.0000
  H   H258      1.0  0.25288  0.28063  0.94127  1.0000
  H   H259      1.0  0.23751  0.31966  0.95465  1.0000
  H   H260      1.0  0.26310  0.34766  0.97468  1.0000
  C   C327      1.0  0.38220  0.24649  0.73973  1.0000
  H   H261      1.0  0.03147  0.29004  0.72179  1.0000
  C   C328      1.0  0.47288  0.20959  0.94238  1.0000
  H   H262      1.0  0.00273  0.32281  0.72248  1.0000
  C   C329      1.0  0.01341  0.23911  0.54323  1.0000
  H   H263      1.0  0.44134  0.21066  0.64636  1.0000
  C   C330      1.0  0.38792  0.26376  0.75882  1.0000
  C   C331      1.0  0.40769  0.26102  0.77557  1.0000
  C   C332      1.0  0.42178  0.24099  0.77334  1.0000
  C   C333      1.0  0.01824  0.23498  0.57258  1.0000
  C   C334      1.0  0.00101  0.33638  0.59466  1.0000
  C   C335      1.0  0.44654  0.16595  0.70891  1.0000
  C   C336      1.0  0.47135  0.18181  0.78477  1.0000
  C   C337      1.0  0.35660  0.01149  0.77308  1.0000
  H   H264      1.0  0.39114  0.21283  0.72335  1.0000
  C   C338      1.0  0.04001  0.32131  0.60173  1.0000
  H   H265      1.0  0.37674  0.27905  0.76134  1.0000
  H   H266      1.0  0.41155  0.27409  0.79117  1.0000
  H   H267      1.0  0.36054  0.02897  0.77811  1.0000
  H   H268      1.0  0.40692  0.27530  0.98723  1.0000
  H   H269      1.0  0.31073  0.23544  0.72674  1.0000
  C   C339      1.0  0.23309  0.46390  0.70633  1.0000
  H   H270      1.0  0.02113  0.25213  0.74044  1.0000
  H   H271      1.0  0.23467  0.04522  0.51993  1.0000
  H   H272      1.0  0.02626  0.35301  0.61985  1.0000
  C   C340      1.0  0.21514  0.46063  0.68694  1.0000
  C   C341      1.0  0.48566  0.21276  0.96757  1.0000
  C   C342      1.0  0.22616  0.48656  0.76079  1.0000
  H   H273      1.0  0.03781  0.29241  0.51983  1.0000
  C   C343      1.0  0.20562  0.44107  0.75226  1.0000
  C   C344      1.0  0.25392  0.44261  0.76001  1.0000
  C   C345      1.0  0.25515  0.43983  0.79024  1.0000
  C   C346      1.0  0.27378  0.42754  0.80265  1.0000
  H   H274      1.0  0.30556  0.40820  0.79473  1.0000
  C   C347      1.0  0.29122  0.41785  0.78498  1.0000
  C   C348      1.0  0.00858  0.26646  0.74121  1.0000
  C   C349      1.0  0.16963  0.41252  0.76549  1.0000
  C   C350      1.0  0.17257  0.43216  0.78192  1.0000
  C   C351      1.0  0.19045  0.44642  0.77531  1.0000
  C   C352      1.0  0.38918  0.32736  0.97488  1.0000
  C   C353      1.0  0.26684  0.23365  0.98173  1.0000
  C   C354      1.0  0.35200  0.00549  0.74451  1.0000
  H   H275      1.0  0.24162  0.44706  0.80425  1.0000
  H   H276      1.0  0.27455  0.42521  0.82599  1.0000
  H   H277      1.0  0.37641  0.13715  0.75842  1.0000
  H   H278      1.0  0.16201  0.27650  0.54384  1.0000
  H   H279      1.0  0.40731  0.32291  0.97207  1.0000
  H   H280      1.0  0.15581  0.40144  0.77078  1.0000
  H   H281      1.0  0.16134  0.43612  0.80031  1.0000
  H   H282      1.0  0.22571  0.15161  0.51290  1.0000
  C   C355      1.0  0.04032  0.23756  0.58305  1.0000
  C   C356      1.0  0.25581  0.99471  0.64730  1.0000
  H   H283      1.0  0.18061  0.47021  0.91211  1.0000
  C   C357      1.0  0.46149  0.19940  0.76731  1.0000
  H   H284      1.0  0.43634  0.23876  0.78764  1.0000
  H   H285      1.0  0.01049  0.28528  0.56026  1.0000
  C   C358      1.0  0.01374  0.30016  0.57311  1.0000
  C   C359      1.0  0.34704  0.02256  0.56740  1.0000
  H   H286      1.0  0.27013  0.43313  0.71892  1.0000
  H   H287      1.0  0.23201  0.31611  0.81989  1.0000
  C   C360      1.0  0.31907  0.03484  0.60407  1.0000
  C   C361      1.0  0.27359  0.02452  0.56703  1.0000
  C   C362      1.0  0.03551  0.30227  0.58495  1.0000
  C   C363      1.0  0.45172  0.15935  0.68037  1.0000
  C   C364      1.0  0.22906  0.03898  0.58499  1.0000
  C   C365      1.0  0.24524  0.05511  0.57848  1.0000
  C   C366      1.0  0.26742  0.04797  0.56954  1.0000
  C   C367      1.0  0.40222  0.16225  0.75541  1.0000
  H   H288      1.0  0.23426  0.10435  0.51972  1.0000
  H   H289      1.0  0.04395  0.23472  0.60592  1.0000
  H   H290      1.0  0.26472  0.16299  0.52173  1.0000
  H   H291      1.0  0.33752  0.23882  0.76790  1.0000
  C   C368      1.0  0.22234  0.28330  0.69022  1.0000
  H   H292      1.0  0.25323  0.18343  0.86048  1.0000
  H   H293      1.0  0.14614  0.23524  0.75886  1.0000
  H   H294      1.0  0.04907  0.28924  0.58120  1.0000
  H   H295      1.0  0.07461  0.24680  0.57245  1.0000
  C   C369      1.0  0.21113  0.45164  0.92658  1.0000
  H   H296      1.0  0.21198  0.04458  0.59221  1.0000
  H   H297      1.0  0.24061  0.07317  0.58043  1.0000
  H   H298      1.0  0.27975  0.06077  0.56461  1.0000
  H   H299      1.0  0.17790  0.25297  0.58461  1.0000
  C   C370      1.0  0.25311  0.47371  0.69606  1.0000
  C   C371      1.0  0.11840  0.24578  0.51463  1.0000
  C   C372      1.0  0.17696  0.22696  0.78302  1.0000
  C   C373      1.0  0.16293  0.22639  0.75866  1.0000
  C   C374      1.0  0.19252  0.20370  0.73329  1.0000
  C   C375      1.0  0.20664  0.20380  0.75777  1.0000
  C   C376      1.0  0.19872  0.21572  0.78262  1.0000
  P   P14       1.0  0.23500  0.18960  0.75620  1.0000
  C   C377      1.0  0.24971  0.19910  0.72391  1.0000
  C   C378      1.0  0.25167  0.19555  0.78790  1.0000
  C   C379      1.0  0.27272  0.20604  0.78530  1.0000
  C   C380      1.0  0.28627  0.20882  0.80974  1.0000
  C   C381      1.0  0.27918  0.20085  0.83683  1.0000
  C   C382      1.0  0.25840  0.19015  0.83959  1.0000
  C   C383      1.0  0.24472  0.18743  0.81522  1.0000
  C   C384      1.0  0.26832  0.18590  0.71227  1.0000
  C   C385      1.0  0.27987  0.19350  0.68755  1.0000
  C   C386      1.0  0.27289  0.21413  0.67413  1.0000
  C   C387      1.0  0.25451  0.22742  0.68566  1.0000
  C   C388      1.0  0.24311  0.22012  0.71062  1.0000
  C   C389      1.0  0.23339  0.15872  0.75550  1.0000
  C   C390      1.0  0.21436  0.14834  0.74389  1.0000
  C   C391      1.0  0.21339  0.12446  0.74390  1.0000
  C   C392      1.0  0.23136  0.11072  0.75544  1.0000
  C   C393      1.0  0.25039  0.12084  0.76699  1.0000
  C   C394      1.0  0.25149  0.14469  0.76686  1.0000
  H   H300      1.0  0.17100  0.23630  0.80215  1.0000
  H   H301      1.0  0.19844  0.19516  0.71365  1.0000
  H   H302      1.0  0.20924  0.21665  0.80162  1.0000
  H   H303      1.0  0.27907  0.21152  0.76443  1.0000
  H   H304      1.0  0.30282  0.21629  0.80762  1.0000
  H   H305      1.0  0.29025  0.20233  0.85543  1.0000
  C   C395      1.0  0.36468  0.02999  0.58476  1.0000
  H   H306      1.0  0.22900  0.17844  0.81747  1.0000
  H   H307      1.0  0.27405  0.16977  0.72220  1.0000
  H   H308      1.0  0.29421  0.18327  0.67863  1.0000
  H   H309      1.0  0.28168  0.21970  0.65472  1.0000
  H   H310      1.0  0.24888  0.24326  0.67502  1.0000
  H   H311      1.0  0.22904  0.23084  0.71924  1.0000
  H   H312      1.0  0.20036  0.15836  0.73427  1.0000
  H   H313      1.0  0.19898  0.11661  0.73402  1.0000
  H   H314      1.0  0.23079  0.09221  0.75475  1.0000
  H   H315      1.0  0.26457  0.11018  0.77539  1.0000
  H   H316      1.0  0.26663  0.15210  0.77542  1.0000
  C   C396      1.0  0.20305  0.42089  0.73646  1.0000
  H   H317      1.0  0.21865  0.36753  0.75688  1.0000
  C   C397      1.0  0.38763  0.14711  0.80066  1.0000
  C   C398      1.0  0.05288  0.24847  0.53487  1.0000
  C   C399      1.0  0.47445  0.21824  0.75989  1.0000
  H   H318      1.0  0.32234  0.21819  0.96471  1.0000
  H   H319      1.0  0.99600  0.23757  0.53608  1.0000
  H   H320      1.0  0.46735  0.23180  0.74604  1.0000
  C   C400      1.0  0.18490  0.40688  0.74277  1.0000
  C   C401      1.0  0.01442  0.28787  0.73064  1.0000
  H   H321      1.0  0.46197  0.16690  0.79047  1.0000
  C   C402      1.0  0.44974  0.17543  0.65782  1.0000
  H   H322      1.0  0.31628  0.39559  0.99626  1.0000
  H   H323      1.0  0.14161  0.15035  0.52536  1.0000
  C   C403      1.0  0.32410  0.02518  0.57678  1.0000
  C   C404      1.0  0.18545  0.10628  0.51549  1.0000
  C   C405      1.0  0.41672  0.17624  0.77080  1.0000
  C   C406      1.0  0.05763  0.24424  0.56417  1.0000
  C   C407      1.0  0.19392  0.22724  0.55668  1.0000
  C   C408      1.0  0.19757  0.21994  0.52805  1.0000
  C   C409      1.0  0.41596  0.17596  0.80123  1.0000
  C   C410      1.0  0.35954  0.03990  0.61170  1.0000
  H   H324      1.0  0.05694  0.32280  0.61085  1.0000
  H   H325      1.0  0.19900  0.45434  0.69448  1.0000
  C   C411      1.0  0.32135  0.24877  0.76767  1.0000
  C   C412      1.0  0.25231  0.10743  0.51810  1.0000
  H   H326      1.0  0.43922  0.20712  0.92416  1.0000
  H   H327      1.0  0.26670  0.47743  0.71092  1.0000
  C   C413      1.0  0.39618  0.22639  0.73753  1.0000
  H   H328      1.0  0.45716  0.14173  0.67571  1.0000
  H   H329      1.0  0.20438  0.27118  0.76988  1.0000
  H   H330      1.0  0.20074  0.21701  0.57463  1.0000
  H   H331      1.0  0.20690  0.20374  0.52427  1.0000
  H   H332      1.0  0.23885  0.99519  0.63811  1.0000
  H   H333      1.0  0.24279  0.43736  0.94396  1.0000
  C   C414      1.0  0.23499  0.01564  0.58230  1.0000
  H   H334      1.0  0.33291  0.04981  0.64231  1.0000
  C   C415      1.0  0.37344  0.22678  0.98918  1.0000
  C   C416      1.0  0.17229  0.26088  0.53938  1.0000
  P   P15       1.0  0.18653  0.14376  0.55318  1.0000
  C   C417      1.0  0.18259  0.12283  0.58163  1.0000
  C   C418      1.0  0.21434  0.15563  0.55781  1.0000
  C   C419      1.0  0.22134  0.16179  0.58563  1.0000
  C   C420      1.0  0.24340  0.16925  0.59005  1.0000
  C   C421      1.0  0.25897  0.16990  0.56696  1.0000
  C   C422      1.0  0.25224  0.16376  0.53925  1.0000
  C   C423      1.0  0.22996  0.15698  0.53450  1.0000
  C   C424      1.0  0.16070  0.11968  0.59354  1.0000
  C   C425      1.0  0.15792  0.10401  0.61622  1.0000
  C   C426      1.0  0.17688  0.09128  0.62704  1.0000
  C   C427      1.0  0.19860  0.09398  0.61494  1.0000
  C   C428      1.0  0.20149  0.10966  0.59230  1.0000
  C   C429      1.0  0.16346  0.16546  0.55702  1.0000
  C   C430      1.0  0.14327  0.16397  0.54092  1.0000
  H   H335      1.0  0.43262  0.22262  0.69667  1.0000
  C   C431      1.0  0.12613  0.19702  0.56596  1.0000
  C   C432      1.0  0.14601  0.19849  0.58225  1.0000
  C   C433      1.0  0.16450  0.18267  0.57805  1.0000
  C   C434      1.0  0.33680  0.04222  0.62135  1.0000
  C   C435      1.0  0.36748  0.20392  0.98823  1.0000
  C   C436      1.0  0.31517  0.05067  0.51650  1.0000
  H   H336      1.0  0.18645  0.09532  0.53448  1.0000
  C   C437      1.0  0.18115  0.24761  0.56236  1.0000
  H   H337      1.0  0.21003  0.15998  0.60414  1.0000
  H   H338      1.0  0.24874  0.17374  0.61160  1.0000
  H   H339      1.0  0.27648  0.17439  0.57074  1.0000
  H   H340      1.0  0.09730  0.30960  0.51210  1.0000
  C   C438      1.0  0.30476  0.02950  0.51860  1.0000
  H   H341      1.0  0.14580  0.12954  0.58579  1.0000
  H   H342      1.0  0.14112  0.10210  0.62587  1.0000
  H   H343      1.0  0.17489  0.07973  0.64529  1.0000
  H   H344      1.0  0.21336  0.08471  0.62414  1.0000
  H   H345      1.0  0.21854  0.11196  0.58374  1.0000
  C   C439      1.0  0.25714  0.00841  0.57342  1.0000
  H   H346      1.0  0.32205  0.05868  0.53546  1.0000
  H   H347      1.0  0.11172  0.20915  0.56954  1.0000
  H   H348      1.0  0.14706  0.21175  0.59849  1.0000
  H   H349      1.0  0.17929  0.18386  0.59169  1.0000
  H   H350      1.0  0.27124  0.48638  0.65877  1.0000
  H   H351      1.0  0.24963  0.23234  0.97356  1.0000
  H   H352      1.0  0.17740  0.26549  0.73010  1.0000
  C   C440      1.0  0.44191  0.27368  0.97233  1.0000
  C   C441      1.0  0.19455  0.27072  0.72528  1.0000
  H   H353      1.0  0.10916  0.17854  0.53298  1.0000
  H   H354      1.0  0.25070  0.47220  0.97182  1.0000
  C   C442      1.0  0.44896  0.20930  0.94377  1.0000
  C   C443      1.0  0.43757  0.21156  0.97043  1.0000
  H   H355      1.0  0.37585  0.13646  0.81223  1.0000
  C   C444      1.0  0.19962  0.49018  0.94196  1.0000
  C   C445      1.0  0.40157  0.16138  0.81609  1.0000
  C   C446      1.0  0.00880  0.23366  0.67351  1.0000
  C   C447      1.0  0.30775  0.22560  0.97675  1.0000
  H   H356      1.0  0.40071  0.16168  0.83961  1.0000
  C   C448      1.0  0.28986  0.42007  0.75482  1.0000
  C   C449      1.0  0.20075  0.27518  0.69656  1.0000
  H   H357      1.0  0.45359  0.17026  0.63567  1.0000
  C   C450      1.0  0.41627  0.22366  0.75397  1.0000
  H   H358      1.0  0.22681  0.28740  0.66798  1.0000
  C   C451      1.0  0.03076  0.24579  0.52398  1.0000
  H   H359      1.0  0.99492  0.29775  0.65652  1.0000
  H   H360      1.0  0.23562  0.00285  0.52023  1.0000
  C   C452      1.0  0.25567  0.47896  0.66658  1.0000
  C   C453      1.0  0.23806  0.47490  0.64724  1.0000
  C   C454      1.0  0.47405  0.21445  0.99442  1.0000
  H   H361      1.0  0.24001  0.47904  0.62442  1.0000
  H   H362      1.0  0.26115  0.48710  0.77617  1.0000
  H   H363      1.0  0.19092  0.49231  0.74732  1.0000
  C   C455      1.0  0.45011  0.21388  0.99576  1.0000
  C   C456      1.0  0.42475  0.27397  0.99367  1.0000
  H   H364      1.0  0.49139  0.20230  0.69177  1.0000
  H   H365      1.0  0.35961  0.99968  0.81731  1.0000
  C   C457      1.0  0.38128  0.33927  0.99954  1.0000
  C   C458      1.0  0.49357  0.18344  0.79536  1.0000
  C   C459      1.0  0.29899  0.99360  0.67238  1.0000
  C   C460      1.0  0.35599  0.99499  0.79516  1.0000
  Fe  Fe33      1.0  0.38126  0.78087  0.11277  1.0000
  S   S65       1.0  0.39356  0.74419  0.11869  1.0000
  S   S66       1.0  0.38722  0.80055  0.07080  1.0000
  Fe  Fe34      1.0  0.36010  0.78390  0.17496  1.0000
  S   S67       1.0  0.37169  0.74732  0.18475  1.0000
  S   S68       1.0  0.33239  0.80439  0.20104  1.0000
  Fe  Fe35      1.0  0.40517  0.75594  0.16244  1.0000
  S   S69       1.0  0.44040  0.74299  0.17933  1.0000
  Fe  Fe36      1.0  0.35931  0.73903  0.14023  1.0000
  S   S70       1.0  0.33422  0.71308  0.12459  1.0000
  S   S71       1.0  0.39430  0.79315  0.15565  1.0000
  S   S72       1.0  0.34642  0.77514  0.13105  1.0000
  Fe  Fe37      1.0  0.28313  0.86054  0.34759  1.0000
  S   S73       1.0  0.25218  0.86785  0.31999  1.0000
  S   S74       1.0  0.31725  0.84596  0.32869  1.0000
  Fe  Fe38      1.0  0.25640  0.87303  0.40432  1.0000
  S   S75       1.0  0.22372  0.87954  0.37952  1.0000
  S   S76       1.0  0.24915  0.88353  0.45123  1.0000
  Fe  Fe39      1.0  0.23351  0.84785  0.35415  1.0000
  S   S77       1.0  0.21630  0.81452  0.34452  1.0000
  Fe  Fe40      1.0  0.24565  0.89915  0.34853  1.0000
  S   S78       1.0  0.23305  0.93542  0.33448  1.0000
  S   S79       1.0  0.26477  0.83981  0.38122  1.0000
  S   S80       1.0  0.27805  0.89327  0.37376  1.0000
  Fe  Fe41      1.0  0.25319  0.61409  0.16375  1.0000
  S   S81       1.0  0.22804  0.63107  0.13296  1.0000
  S   S82       1.0  0.28359  0.63064  0.18451  1.0000
  Fe  Fe42      1.0  0.22776  0.56840  0.16428  1.0000
  S   S83       1.0  0.20044  0.58266  0.13419  1.0000
  S   S84       1.0  0.23464  0.53193  0.18163  1.0000
  Fe  Fe43      1.0  0.22945  0.59749  0.10887  1.0000
  S   S85       1.0  0.23879  0.58877  0.06201  1.0000
  Fe  Fe44      1.0  0.20120  0.61507  0.16119  1.0000
  S   S86       1.0  0.16977  0.63736  0.17541  1.0000
  S   S87       1.0  0.25664  0.58174  0.13796  1.0000
  S   S88       1.0  0.22635  0.59966  0.19304  1.0000
  Fe  Fe45      1.0  0.07377  0.70580  0.35632  1.0000
  S   S89       1.0  0.10121  0.67859  0.36773  1.0000
  S   S90       1.0  0.03701  0.69363  0.36003  1.0000
  Fe  Fe46      1.0  0.10961  0.74147  0.34643  1.0000
  S   S91       1.0  0.13899  0.71687  0.35681  1.0000
  S   S92       1.0  0.11473  0.77943  0.33878  1.0000
  Fe  Fe47      1.0  0.12131  0.69140  0.32960  1.0000
  S   S93       1.0  0.14479  0.66450  0.30654  1.0000
  Fe  Fe48      1.0  0.11695  0.70576  0.39386  1.0000
  S   S94       1.0  0.13644  0.69991  0.43564  1.0000
  S   S95       1.0  0.09300  0.71695  0.31604  1.0000
  S   S96       1.0  0.08840  0.73201  0.38546  1.0000
  C   C461      1.0  0.19629  0.74075  0.48924  1.0000
  C   C462      1.0  0.00928  0.70789  0.35973  1.0000
  H   H366      1.0  0.27976  0.75405  0.00371  1.0000
  H   H367      1.0  0.02080  0.74221  0.35614  1.0000
  C   C463      1.0  0.22389  0.58819  0.26916  1.0000
  C   C464      1.0  0.12252  0.70169  0.46965  1.0000
  C   C465      1.0  0.31048  0.93860  0.44424  1.0000
  H   H368      1.0  0.29149  0.80283  0.31982  1.0000
  C   C466      1.0  0.18528  0.51065  0.23574  1.0000
  H   H369      1.0  0.08844  0.70018  0.45276  1.0000
  C   C467      1.0  0.22351  0.50551  0.17076  1.0000
  H   H370      1.0  0.21117  0.92605  0.38917  1.0000
  C   C468      1.0  0.20245  0.50454  0.15672  1.0000
  C   C469      1.0  0.21829  0.96137  0.44647  1.0000
  H   H371      1.0  0.19289  0.52025  0.15107  1.0000
  C   C470      1.0  0.22734  0.60096  0.02975  1.0000
  C   C471      1.0  0.19295  0.75767  0.42070  1.0000
  C   C472      1.0  0.20920  0.61754  0.02988  1.0000
  H   H372      1.0  0.21896  0.72135  0.35675  1.0000
  H   H373      1.0  0.20175  0.62336  0.05029  1.0000
  C   C473      1.0  0.16364  0.64562  0.21188  1.0000
  C   C474      1.0  0.17757  0.63808  0.23492  1.0000
  C   C475      1.0  0.17170  0.64439  0.26363  1.0000
  C   C476      1.0  0.15196  0.65843  0.26972  1.0000
  C   C477      1.0  0.13811  0.66613  0.24671  1.0000
  C   C478      1.0  0.14393  0.65973  0.21796  1.0000
  H   H374      1.0  0.19264  0.62705  0.23069  1.0000
  H   H375      1.0  0.18243  0.63819  0.28130  1.0000
  H   H376      1.0  0.12273  0.67668  0.25113  1.0000
  H   H377      1.0  0.13299  0.66555  0.20031  1.0000
  C   C479      1.0  0.24316  0.96147  0.34848  1.0000
  C   C480      1.0  0.26311  0.96181  0.36502  1.0000
  C   C481      1.0  0.23159  0.98253  0.34150  1.0000
  H   H378      1.0  0.27231  0.94587  0.37054  1.0000
  H   H379      1.0  0.02087  0.65179  0.14599  1.0000
  C   C482      1.0  0.26253  0.87441  0.48382  1.0000
  H   H380      1.0  0.40423  0.72977  0.25347  1.0000
  C   C483      1.0  0.16225  0.53724  0.34056  1.0000
  C   C484      1.0  0.03733  0.65879  0.43471  1.0000
  H   H381      1.0  0.28645  0.84957  0.46453  1.0000
  C   C485      1.0  0.14282  0.78939  0.34158  1.0000
  C   C486      1.0  0.14617  0.81261  0.34754  1.0000
  C   C487      1.0  0.16853  0.82076  0.34905  1.0000
  C   C488      1.0  0.18761  0.80584  0.34366  1.0000
  C   C489      1.0  0.18407  0.78284  0.33718  1.0000
  C   C490      1.0  0.16194  0.77452  0.33699  1.0000
  H   H382      1.0  0.13145  0.82429  0.35107  1.0000
  H   H383      1.0  0.17098  0.83856  0.35389  1.0000
  H   H384      1.0  0.19854  0.77132  0.33211  1.0000
  H   H385      1.0  0.15969  0.75670  0.33231  1.0000
  C   C491      1.0  0.46755  0.75418  0.17079  1.0000
  H   H386      1.0  0.32684  0.93108  0.43682  1.0000
  C   C492      1.0  0.46953  0.77514  0.15630  1.0000
  C   C493      1.0  0.16905  0.53855  0.31143  1.0000
  H   H387      1.0  0.45423  0.78479  0.14937  1.0000
  C   C494      1.0  0.34824  0.65128  0.02013  1.0000
  C   C495      1.0  0.38269  0.78740  0.03699  1.0000
  C   C496      1.0  0.37844  0.76412  0.03528  1.0000
  C   C497      1.0  0.09872  0.70085  0.47210  1.0000
  H   H388      1.0  0.37758  0.75393  0.05489  1.0000
  C   C498      1.0  0.31935  0.69181  0.14371  1.0000
  C   C499      1.0  0.30005  0.68306  0.13064  1.0000
  C   C500      1.0  0.28902  0.66436  0.14279  1.0000
  C   C501      1.0  0.29688  0.65447  0.16875  1.0000
  C   C502      1.0  0.31577  0.66369  0.18249  1.0000
  C   C503      1.0  0.32701  0.68228  0.17002  1.0000
  H   H389      1.0  0.29392  0.69057  0.11062  1.0000
  H   H390      1.0  0.27465  0.65740  0.13184  1.0000
  H   H391      1.0  0.32196  0.65618  0.20263  1.0000
  H   H392      1.0  0.34196  0.68874  0.18023  1.0000
  C   C504      1.0  0.32881  0.81544  0.23684  1.0000
  C   C505      1.0  0.34632  0.81413  0.25740  1.0000
  C   C506      1.0  0.34253  0.82352  0.28536  1.0000
  C   C507      1.0  0.32121  0.83426  0.29317  1.0000
  C   C508      1.0  0.30364  0.83528  0.27269  1.0000
  C   C509      1.0  0.30746  0.82599  0.24475  1.0000
  H   H393      1.0  0.36284  0.80613  0.25165  1.0000
  H   H394      1.0  0.35623  0.82259  0.30101  1.0000
  H   H395      1.0  0.28715  0.84340  0.27827  1.0000
  H   H396      1.0  0.29378  0.82708  0.22906  1.0000
  H   H397      1.0  0.15236  0.81811  0.44017  1.0000
  H   H398      1.0  0.26000  0.71787  0.00839  1.0000
  C   C510      1.0  0.14931  0.77154  0.44770  1.0000
  H   H399      1.0  0.42749  0.82282  0.01002  1.0000
  H   H400      1.0  0.32037  0.73067  0.19632  1.0000
  H   H401      1.0  0.18866  0.70565  0.38851  1.0000
  H   H402      1.0  0.44117  0.75330  0.09781  1.0000
  H   H403      1.0  0.09119  0.64490  0.48152  1.0000
  H   H404      1.0  0.18626  0.63895  0.00360  1.0000
  C   C511      1.0  0.13780  0.77805  0.42214  1.0000
  C   C512      1.0  0.21196  0.73126  0.37480  1.0000
  H   H405      1.0  0.13187  0.60510  0.25517  1.0000
  C   C513      1.0  0.18108  0.96897  0.42408  1.0000
  H   H406      1.0  0.01061  0.69886  0.45232  1.0000
  H   H407      1.0  0.38254  0.69804  0.23381  1.0000
  H   H408      1.0  0.27467  0.71094  0.21936  1.0000
  C   C514      1.0  0.26293  0.59041  0.25139  1.0000
  C   C515      1.0  0.18618  0.95167  0.40390  1.0000
  C   C516      1.0  0.29953  0.57532  0.08434  1.0000
  H   H409      1.0  0.03446  0.71971  0.21262  1.0000
  C   C517      1.0  0.30679  0.72725  0.00234  1.0000
  C   C518      1.0  0.00606  0.73175  0.35757  1.0000
  H   H410      1.0  0.22953  0.53974  0.08196  1.0000
  C   C519      1.0  0.16106  0.57872  0.19951  1.0000
  H   H411      1.0  0.07152  0.68261  0.26516  1.0000
  H   H412      1.0  0.44375  0.77394  0.05097  1.0000
  C   C520      1.0  0.04731  0.74920  0.23315  1.0000
  H   H413      1.0  0.23929  0.93383  0.42661  1.0000
  C   C521      1.0  0.14446  0.59262  0.21386  1.0000
  H   H414      1.0  0.38672  0.81852  0.01248  1.0000
  H   H415      1.0  0.16172  0.57868  0.17602  1.0000
  P   P16       1.0  0.19820  0.54949  0.26605  1.0000
  H   H416      1.0  0.30502  0.78308  0.27524  1.0000
  C   C522      1.0  0.30602  0.68935  0.27627  1.0000
  H   H417      1.0  0.30949  0.56428  0.12728  1.0000
  C   C523      1.0  0.20707  0.93902  0.40526  1.0000
  C   C524      1.0  0.05918  0.65827  0.42200  1.0000
  C   C525      1.0  0.22646  0.50324  0.07837  1.0000
  C   C526      1.0  0.28415  0.66009  0.25409  1.0000
  H   H418      1.0  0.34037  0.70032  0.23466  1.0000
  H   H419      1.0  0.29178  0.55938  0.07918  1.0000
  C   C527      1.0  0.30035  0.75425  0.04200  1.0000
  C   C528      1.0  0.22406  0.56492  0.26152  1.0000
  C   C529      1.0  0.21932  0.67826  0.19110  1.0000
  C   C530      1.0  0.23367  0.68953  0.17190  1.0000
  C   C531      1.0  0.23848  0.71239  0.17674  1.0000
  C   C532      1.0  0.22866  0.72413  0.20058  1.0000
  C   C533      1.0  0.21405  0.71295  0.21985  1.0000
  C   C534      1.0  0.20978  0.68982  0.21514  1.0000
  P   P17       1.0  0.20152  0.72730  0.25130  1.0000
  C   C535      1.0  0.20857  0.70895  0.28196  1.0000
  C   C536      1.0  0.21286  0.75526  0.25590  1.0000
  C   C537      1.0  0.20685  0.77288  0.23608  1.0000
  C   C538      1.0  0.21410  0.79508  0.24032  1.0000
  C   C539      1.0  0.22720  0.79989  0.26452  1.0000
  C   C540      1.0  0.23317  0.78248  0.28433  1.0000
  C   C541      1.0  0.22609  0.76025  0.28014  1.0000
  C   C542      1.0  0.19151  0.70163  0.30106  1.0000
  C   C543      1.0  0.19724  0.68633  0.32363  1.0000
  C   C544      1.0  0.21995  0.67819  0.32726  1.0000
  C   C545      1.0  0.23706  0.68558  0.30850  1.0000
  C   C546      1.0  0.23138  0.70090  0.28595  1.0000
  C   C547      1.0  0.17076  0.73184  0.24825  1.0000
  C   C548      1.0  0.15922  0.74805  0.26623  1.0000
  C   C549      1.0  0.13534  0.75117  0.26544  1.0000
  C   C550      1.0  0.12277  0.73831  0.24639  1.0000
  C   C551      1.0  0.13414  0.72250  0.22791  1.0000
  C   C552      1.0  0.15803  0.71918  0.22887  1.0000
  H   H420      1.0  0.21561  0.66049  0.18746  1.0000
  H   H421      1.0  0.24125  0.68043  0.15346  1.0000
  H   H422      1.0  0.25004  0.72093  0.16215  1.0000
  H   H423      1.0  0.23288  0.74171  0.20399  1.0000
  H   H424      1.0  0.19891  0.68073  0.23001  1.0000
  H   H425      1.0  0.19618  0.76953  0.21762  1.0000
  H   H426      1.0  0.20915  0.80870  0.22523  1.0000
  H   H427      1.0  0.23236  0.81719  0.26838  1.0000
  H   H428      1.0  0.24271  0.78652  0.30348  1.0000
  H   H429      1.0  0.23038  0.74739  0.29641  1.0000
  H   H430      1.0  0.17368  0.70720  0.29836  1.0000
  H   H431      1.0  0.18388  0.68048  0.33799  1.0000
  H   H432      1.0  0.22419  0.66610  0.34455  1.0000
  H   H433      1.0  0.25467  0.67922  0.31115  1.0000
  H   H434      1.0  0.24468  0.70641  0.27143  1.0000
  H   H435      1.0  0.16868  0.75819  0.28109  1.0000
  H   H436      1.0  0.12660  0.76346  0.27983  1.0000
  H   H437      1.0  0.10424  0.74054  0.24609  1.0000
  H   H438      1.0  0.12443  0.71246  0.21316  1.0000
  H   H439      1.0  0.16628  0.70656  0.21466  1.0000
  C   C553      1.0  0.19494  0.72248  0.39258  1.0000
  C   C554      1.0  0.22308  0.94370  0.42649  1.0000
  C   C555      1.0  0.16011  0.58019  0.26013  1.0000
  C   C556      1.0  0.00370  0.60844  0.49885  1.0000
  H   H440      1.0  0.00294  0.73213  0.49609  1.0000
  H   H441      1.0  0.02258  0.66238  0.42101  1.0000
  H   H442      1.0  0.28265  0.71921  0.31073  1.0000
  H   H443      1.0  0.31594  0.98969  0.23010  1.0000
  H   H444      1.0  0.22878  0.54660  0.02918  1.0000
  H   H445      1.0  0.26977  0.77065  0.24601  1.0000
  H   H446      1.0  0.14610  0.52994  0.34628  1.0000
  H   H447      1.0  0.34724  0.71924  0.05486  1.0000
  H   H448      1.0  0.32747  0.94894  0.23714  1.0000
  C   C557      1.0  0.32610  0.71771  0.01676  1.0000
  H   H449      1.0  0.38335  0.76389  0.27462  1.0000
  H   H450      1.0  0.26356  0.67096  0.21770  1.0000
  H   H451      1.0  0.48645  0.72552  0.19035  1.0000
  C   C558      1.0  0.20110  0.51985  0.25471  1.0000
  H   H452      1.0  0.34142  0.76632  0.27647  1.0000
  H   H453      1.0  0.30699  0.65393  0.28999  1.0000
  C   C559      1.0  0.22632  0.51081  0.01798  1.0000
  H   H454      1.0  0.13253  0.60348  0.20140  1.0000
  C   C560      1.0  0.30936  0.57813  0.11150  1.0000
  C   C561      1.0  0.14407  0.59348  0.24414  1.0000
  H   H455      1.0  0.20853  0.59670  0.27817  1.0000
  H   H456      1.0  0.17133  0.52113  0.22669  1.0000
  C   C562      1.0  0.02109  0.65868  0.16778  1.0000
  C   C563      1.0  0.38378  0.80043  0.01127  1.0000
  H   H457      1.0  0.15652  0.56547  0.00335  1.0000
  C   C564      1.0  0.19704  0.97379  0.44534  1.0000
  H   H458      1.0  0.31573  0.97165  0.42502  1.0000
  C   C565      1.0  0.19024  0.90123  0.48162  1.0000
  C   C566      1.0  0.00414  0.68345  0.20503  1.0000
  C   C567      1.0  0.30913  0.98069  0.24855  1.0000
  C   C568      1.0  0.31574  0.95750  0.25243  1.0000
  C   C569      1.0  0.30703  0.94521  0.27582  1.0000
  C   C570      1.0  0.29187  0.95615  0.29551  1.0000
  C   C571      1.0  0.28542  0.97937  0.29189  1.0000
  H   H459      1.0  0.23045  0.51182  0.28192  1.0000
  H   H460      1.0  0.05943  0.77650  0.25942  1.0000
  C   C572      1.0  0.29376  0.99181  0.26819  1.0000
  C   C573      1.0  0.29538  0.92530  0.45988  1.0000
  C   C574      1.0  0.33221  0.72625  0.04378  1.0000
  C   C575      1.0  0.28268  0.97084  0.44617  1.0000
  H   H461      1.0  0.26543  0.53693  0.00662  1.0000
  C   C576      1.0  0.47941  0.76354  0.04356  1.0000
  P   P18       1.0  0.23920  0.96891  0.47290  1.0000
  H   H462      1.0  0.29073  0.76870  0.05158  1.0000
  C   C577      1.0  0.36895  0.66234  0.02009  1.0000
  H   H463      1.0  0.15808  0.53217  0.29478  1.0000
  H   H464      1.0  0.39147  0.68289  0.04461  1.0000
  H   H465      1.0  0.19726  0.72889  0.47132  1.0000
  C   C578      1.0  0.18937  0.76392  0.48500  1.0000
  C   C579      1.0  0.47898  0.78131  0.23732  1.0000
  C   C580      1.0  0.46442  0.82035  0.00478  1.0000
  C   C581      1.0  0.04004  0.67045  0.28363  1.0000
  C   C582      1.0  0.05425  0.64884  0.48119  1.0000
  H   H466      1.0  0.28490  0.94649  0.31342  1.0000
  H   H467      1.0  0.05138  0.75691  0.30605  1.0000
  H   H468      1.0  0.05201  0.63934  0.17966  1.0000
  C   C583      1.0  0.47624  0.74009  0.09638  1.0000
  H   H469      1.0  0.45493  0.80025  0.21007  1.0000
  H   H470      1.0  0.22048  0.56272  0.32055  1.0000
  C   C584      1.0  0.22818  0.52541  0.06728  1.0000
  C   C585      1.0  0.07858  0.65340  0.43887  1.0000
  C   C586      1.0  0.24331  0.60084  0.26430  1.0000
  H   H471      1.0  0.26940  0.73930  0.35487  1.0000
  C   C587      1.0  0.29961  0.66661  0.27508  1.0000
  H   H472      1.0  0.46545  0.82618  0.08891  1.0000
  C   C588      1.0  0.11409  0.77626  0.42024  1.0000
  C   C589      1.0  0.10181  0.76722  0.44345  1.0000
  C   C590      1.0  0.30135  0.62599  0.00963  1.0000
  H   H473      1.0  0.24428  0.53700  0.24150  1.0000
  C   C591      1.0  0.13572  0.70291  0.49485  1.0000
  C   C592      1.0  0.37530  0.75398  0.00810  1.0000
  C   C593      1.0  0.21936  0.75324  0.37972  1.0000
  C   C594      1.0  0.20968  0.76654  0.40221  1.0000
  C   C595      1.0  0.18712  0.80418  0.44682  1.0000
  C   C596      1.0  0.17024  0.82174  0.44184  1.0000
  C   C597      1.0  0.17642  0.84444  0.43854  1.0000
  C   C598      1.0  0.19941  0.84976  0.44018  1.0000
  C   C599      1.0  0.21625  0.83248  0.44554  1.0000
  C   C600      1.0  0.21010  0.80983  0.44932  1.0000
  H   H474      1.0  0.06101  0.66181  0.39902  1.0000
  H   H475      1.0  0.08355  0.76517  0.44154  1.0000
  H   H476      1.0  0.23116  0.69848  0.07697  1.0000
  H   H477      1.0  0.16499  0.97898  0.42280  1.0000
  H   H478      1.0  0.30622  0.74958  0.15171  1.0000
  H   H479      1.0  0.23169  0.76065  0.36518  1.0000
  H   H480      1.0  0.21485  0.78394  0.40401  1.0000
  H   H481      1.0  0.16345  0.85790  0.43411  1.0000
  H   H482      1.0  0.20424  0.86727  0.43711  1.0000
  C   C601      1.0  0.47162  0.80004  0.22024  1.0000
  H   H483      1.0  0.25686  0.79026  0.20137  1.0000
  H   H484      1.0  0.05084  0.75777  0.21278  1.0000
  C   C602      1.0  0.06398  0.67124  0.28083  1.0000
  C   C603      1.0  0.30419  0.96142  0.43759  1.0000
  H   H485      1.0  0.17099  0.54430  0.38483  1.0000
  C   C604      1.0  0.17724  0.56554  0.21539  1.0000
  H   H486      1.0  0.09688  0.65812  0.29609  1.0000
  C   C605      1.0  0.03896  0.66047  0.21491  1.0000
  C   C606      1.0  0.28040  0.85757  0.48449  1.0000
  H   H487      1.0  0.19301  0.98755  0.46049  1.0000
  C   C607      1.0  0.06916  0.64293  0.31909  1.0000
  C   C608      1.0  0.27409  0.93485  0.46889  1.0000
  C   C609      1.0  0.04754  0.74881  0.28565  1.0000
  C   C610      1.0  0.29417  0.74583  0.01498  1.0000
  H   H488      1.0  0.47504  0.73132  0.11711  1.0000
  C   C611      1.0  0.18547  0.73565  0.41535  1.0000
  P   P19       1.0  0.17988  0.77450  0.44990  1.0000
  H   H489      1.0  0.17207  0.72878  0.42866  1.0000
  C   C612      1.0  0.27181  0.98286  0.37333  1.0000
  C   C613      1.0  0.13689  0.76222  0.47086  1.0000
  H   H490      1.0  0.27503  0.77988  0.15400  1.0000
  H   H491      1.0  0.10534  0.78138  0.40043  1.0000
  H   H492      1.0  0.26248  0.92429  0.48058  1.0000
  H   H493      1.0  0.31834  0.69413  0.29230  1.0000
  H   H494      1.0  0.23410  0.83668  0.44667  1.0000
  H   H495      1.0  0.09557  0.65362  0.42913  1.0000
  H   H496      1.0  0.01256  0.65573  0.30841  1.0000
  H   H497      1.0  0.20447  0.90490  0.46728  1.0000
  H   H498      1.0  0.27362  0.98752  0.30734  1.0000
  H   H499      1.0  0.10387  0.75225  0.48625  1.0000
  H   H500      1.0  0.08044  0.63265  0.33310  1.0000
  P   P20       1.0  0.00644  0.65394  0.48069  1.0000
  C   C614      1.0  0.26744  0.95761  0.46202  1.0000
  H   H501      1.0  0.32435  0.75099  0.07727  1.0000
  H   H502      1.0  0.14718  0.78454  0.40367  1.0000
  H   H503      1.0  0.21609  0.98251  0.32888  1.0000
  C   C615      1.0  0.17649  0.56568  0.24585  1.0000
  H   H504      1.0  0.17420  0.94825  0.38683  1.0000
  H   H505      1.0  0.27358  0.78129  0.35953  1.0000
  C   C616      1.0  0.44426  0.82501  0.05101  1.0000
  C   C617      1.0  0.20407  0.55582  0.32574  1.0000
  H   H506      1.0  0.27964  0.64239  0.25241  1.0000
  C   C618      1.0  0.31761  0.59929  0.11901  1.0000
  C   C619      1.0  0.29854  0.59344  0.06436  1.0000
  C   C620      1.0  0.30792  0.61448  0.07109  1.0000
  C   C621      1.0  0.31686  0.61739  0.09898  1.0000
  P   P21       1.0  0.30663  0.63791  0.04502  1.0000
  C   C622      1.0  0.33357  0.65232  0.04456  1.0000
  H   H507      1.0  0.42829  0.82645  0.06327  1.0000
  C   C623      1.0  0.03084  0.65596  0.30471  1.0000
  H   H508      1.0  0.15414  0.70372  0.49303  1.0000
  C   C624      1.0  0.48774  0.74184  0.17938  1.0000
  C   C625      1.0  0.24388  0.55458  0.24875  1.0000
  C   C626      1.0  0.04538  0.64225  0.32233  1.0000
  H   H509      1.0  0.05268  0.65462  0.22911  1.0000
  H   H510      1.0  0.27804  0.55940  0.23268  1.0000
  C   C627      1.0  0.37543  0.67431  0.04457  1.0000
  C   C628      1.0  0.36100  0.67554  0.06889  1.0000
  C   C629      1.0  0.34000  0.66508  0.06864  1.0000
  C   C630      1.0  0.28294  0.65733  0.05530  1.0000
  C   C631      1.0  0.26189  0.64858  0.06345  1.0000
  C   C632      1.0  0.24318  0.66339  0.07071  1.0000
  C   C633      1.0  0.24553  0.68707  0.07067  1.0000
  C   C634      1.0  0.26644  0.69596  0.06251  1.0000
  C   C635      1.0  0.28494  0.68116  0.05431  1.0000
  H   H511      1.0  0.32400  0.60192  0.14069  1.0000
  H   H512      1.0  0.28980  0.59106  0.04409  1.0000
  H   H513      1.0  0.32282  0.63360  0.10588  1.0000
  C   C636      1.0  0.31932  0.74439  0.05644  1.0000
  H   H514      1.0  0.31189  0.92716  0.27866  1.0000
  C   C637      1.0  0.18987  0.54810  0.30380  1.0000
  H   H515      1.0  0.25089  0.58075  0.00283  1.0000
  H   H516      1.0  0.27795  0.98817  0.43968  1.0000
  H   H517      1.0  0.48048  0.77302  0.02339  1.0000
  H   H518      1.0  0.46792  0.76708  0.24026  1.0000
  H   H519      1.0  0.33660  0.70390  0.00717  1.0000
  H   H520      1.0  0.36578  0.68516  0.08778  1.0000
  H   H521      1.0  0.32869  0.66742  0.08715  1.0000
  H   H522      1.0  0.25992  0.63028  0.06402  1.0000
  C   C638      1.0  0.22794  0.52921  0.03729  1.0000
  H   H523      1.0  0.24282  0.61893  0.26945  1.0000
  H   H524      1.0  0.26846  0.71429  0.06278  1.0000
  H   H525      1.0  0.30088  0.68836  0.04795  1.0000
  C   C639      1.0  0.27722  0.74875  0.33741  1.0000
  C   C640      1.0  0.27968  0.77232  0.34017  1.0000
  C   C641      1.0  0.28978  0.78451  0.31772  1.0000
  C   C642      1.0  0.29752  0.77319  0.29254  1.0000
  C   C643      1.0  0.29540  0.74945  0.28961  1.0000
  C   C644      1.0  0.28495  0.73737  0.31225  1.0000
  P   P22       1.0  0.30632  0.73478  0.25729  1.0000
  C   C645      1.0  0.29646  0.74950  0.22477  1.0000
  C   C646      1.0  0.33742  0.73313  0.25670  1.0000
  C   C647      1.0  0.34943  0.71401  0.24439  1.0000
  C   C648      1.0  0.37342  0.71262  0.24380  1.0000
  C   C649      1.0  0.38566  0.73050  0.25489  1.0000
  C   C650      1.0  0.37391  0.74972  0.26672  1.0000
  C   C651      1.0  0.34992  0.75105  0.26766  1.0000
  C   C652      1.0  0.30641  0.74354  0.19782  1.0000
  C   C653      1.0  0.29835  0.75416  0.17238  1.0000
  C   C654      1.0  0.28061  0.77109  0.17365  1.0000
  C   C655      1.0  0.27042  0.77694  0.20032  1.0000
  C   C656      1.0  0.27809  0.76598  0.22575  1.0000
  C   C657      1.0  0.29696  0.70573  0.25646  1.0000
  C   C658      1.0  0.28154  0.69895  0.23536  1.0000
  C   C659      1.0  0.27505  0.67627  0.23441  1.0000
  C   C660      1.0  0.16935  0.91377  0.47909  1.0000
  H   H526      1.0  0.03820  0.63163  0.33911  1.0000
  C   C661      1.0  0.03796  0.72758  0.23317  1.0000
  H   H527      1.0  0.48024  0.83262  0.20231  1.0000
  C   C662      1.0  0.19721  0.55450  0.35486  1.0000
  C   C663      1.0  0.46519  0.82489  0.06545  1.0000
  H   H528      1.0  0.22336  0.79659  0.45346  1.0000
  H   H529      1.0  0.16736  0.92705  0.46263  1.0000
  H   H530      1.0  0.37218  0.73592  0.00695  1.0000
  C   C664      1.0  0.07844  0.65738  0.29831  1.0000
  C   C665      1.0  0.45864  0.76414  0.05905  1.0000
  C   C666      1.0  0.44387  0.82286  0.02082  1.0000
  H   H531      1.0  0.28778  0.98286  0.38491  1.0000
  C   C667      1.0  0.03832  0.72717  0.28573  1.0000
  C   C668      1.0  0.26319  0.56730  0.24367  1.0000
  H   H532      1.0  0.19045  0.55536  0.20391  1.0000
  C   C669      1.0  0.05211  0.75980  0.25938  1.0000
  H   H533      1.0  0.15996  0.58177  0.28350  1.0000
  C   C670      1.0  0.99816  0.58559  0.49543  1.0000
  C   C671      1.0  0.48537  0.82093  0.01938  1.0000
  C   C672      1.0  0.03345  0.71639  0.25954  1.0000
  C   C673      1.0  0.03473  0.65477  0.46463  1.0000
  H   H534      1.0  0.27764  0.60035  0.24631  1.0000
  H   H535      1.0  0.14531  0.75615  0.49045  1.0000
  C   C674      1.0  0.03863  0.65166  0.18675  1.0000
  H   H536      1.0  0.29989  0.90742  0.46457  1.0000
  C   C675      1.0  0.02170  0.67648  0.22427  1.0000
  C   C676      1.0  0.17628  0.54529  0.36227  1.0000
  C   C677      1.0  0.45709  0.75246  0.08548  1.0000
  H   H537      1.0  0.03508  0.71876  0.30625  1.0000
  C   C678      1.0  0.49133  0.78400  0.15158  1.0000
  P   P23       1.0  0.02172  0.68833  0.26045  1.0000
  H   H538      1.0  0.22692  0.65639  0.07656  1.0000
  H   H539      1.0  0.20815  0.56059  0.37171  1.0000
  C   C679      1.0  0.48572  0.82305  0.04961  1.0000
  C   C680      1.0  0.07610  0.64853  0.46842  1.0000
  H   H540      1.0  0.14832  0.84667  0.49807  1.0000
  C   C681      1.0  0.20045  0.62631  0.00342  1.0000
  C   C682      1.0  0.11323  0.76007  0.46866  1.0000
  H   H541      1.0  0.22657  0.50031  0.10164  1.0000
  H   H542      1.0  0.24552  0.99079  0.26109  1.0000
  C   C683      1.0  0.00384  0.67455  0.17692  1.0000
  H   H543      1.0  0.33058  0.60172  0.01139  1.0000
  C   C684      1.0  0.23678  0.59345  0.00312  1.0000
  C   C685      1.0  0.15115  0.90921  0.49784  1.0000
  H   H544      1.0  0.22441  0.69712  0.01003  1.0000
  C   C686      1.0  0.48594  0.81822  0.21579  1.0000
  H   H545      1.0  0.12237  0.81562  0.48855  1.0000
  C   C687      1.0  0.99884  0.62457  0.47674  1.0000
  C   C688      1.0  0.21842  0.50525  0.26671  1.0000
  H   H546      1.0  0.19698  0.95118  0.49880  1.0000
  H   H547      1.0  0.49255  0.80051  0.14107  1.0000
  H   H548      1.0  0.13497  0.91902  0.49599  1.0000
  H   H549      1.0  0.18436  0.53310  0.01157  1.0000
  C   C689      1.0  0.08835  0.69976  0.49968  1.0000
  H   H550      1.0  0.24078  0.81195  0.50047  1.0000
  Fe  Fe49      1.0  0.36117  0.79793  0.85144  1.0000
  S   S97       1.0  0.38491  0.77871  0.82071  1.0000
  S   S98       1.0  0.33480  0.82582  0.83692  1.0000
  Fe  Fe50      1.0  0.37620  0.76671  0.90321  1.0000
  S   S99       1.0  0.40039  0.74506  0.87518  1.0000
  S   S100      1.0  0.37225  0.75298  0.94911  1.0000
  Fe  Fe51      1.0  0.41106  0.77869  0.85671  1.0000
  S   S101      1.0  0.44721  0.79222  0.85426  1.0000
  Fe  Fe52      1.0  0.37188  0.74700  0.84243  1.0000
  S   S102      1.0  0.35839  0.71752  0.81633  1.0000
  S   S103      1.0  0.38784  0.80033  0.88635  1.0000
  S   S104      1.0  0.34715  0.76634  0.87154  1.0000
  Fe  Fe53      1.0  0.28026  0.86751  0.61232  1.0000
  S   S105      1.0  0.24662  0.88720  0.61795  1.0000
  S   S106      1.0  0.29510  0.85248  0.57052  1.0000
  Fe  Fe54      1.0  0.29167  0.86955  0.67692  1.0000
  S   S107      1.0  0.25871  0.88979  0.68754  1.0000
  S   S108      1.0  0.32210  0.85599  0.70421  1.0000
  Fe  Fe55      1.0  0.24194  0.86540  0.65755  1.0000
  S   S109      1.0  0.20696  0.85269  0.66973  1.0000
  Fe  Fe56      1.0  0.26566  0.91046  0.64710  1.0000
  S   S110      1.0  0.25498  0.94821  0.63933  1.0000
  S   S111      1.0  0.27421  0.84377  0.64993  1.0000
  S   S112      1.0  0.29981  0.89214  0.63843  1.0000
  Fe  Fe57      1.0  0.21092  0.63007  0.83494  1.0000
  S   S113      1.0  0.24591  0.61290  0.82553  1.0000
  S   S114      1.0  0.18806  0.65642  0.80981  1.0000
  Fe  Fe58      1.0  0.21515  0.62003  0.90083  1.0000
  S   S115      1.0  0.24984  0.60265  0.89573  1.0000
  S   S116      1.0  0.19819  0.62970  0.94391  1.0000
  Fe  Fe59      1.0  0.25812  0.63120  0.86507  1.0000
  S   S117      1.0  0.28802  0.65260  0.87776  1.0000
  Fe  Fe60      1.0  0.23498  0.58533  0.85718  1.0000
  S   S118      1.0  0.24804  0.54770  0.85379  1.0000
  S   S119      1.0  0.22420  0.64944  0.87264  1.0000
  S   S120      1.0  0.19922  0.60135  0.86406  1.0000
  Fe  Fe61      1.0  0.10497  0.71043  0.59905  1.0000
  S   S121      1.0  0.10082  0.74820  0.60671  1.0000
  S   S122      1.0  0.08818  0.69677  0.55897  1.0000
  Fe  Fe62      1.0  0.12617  0.70127  0.65988  1.0000
  S   S123      1.0  0.12199  0.73860  0.67200  1.0000
  S   S124      1.0  0.14533  0.67152  0.68356  1.0000
  Fe  Fe63      1.0  0.08695  0.73787  0.65040  1.0000
  S   S125      1.0  0.05193  0.75449  0.66334  1.0000
  Fe  Fe64      1.0  0.13581  0.74517  0.62701  1.0000
  S   S126      1.0  0.16761  0.76388  0.61362  1.0000
  S   S127      1.0  0.09031  0.70020  0.64214  1.0000
  S   S128      1.0  0.14095  0.70789  0.61555  1.0000
  C   C690      1.0  0.02446  0.71731  0.65489  1.0000
  C   C691      1.0  0.02534  0.74088  0.65988  1.0000
  C   C692      1.0  0.00596  0.66249  0.51835  1.0000
  H   H551      1.0  0.04021  0.70695  0.65249  1.0000
  H   H552      1.0  0.45808  0.82457  0.79624  1.0000
  C   C693      1.0  0.23420  0.52118  0.85539  1.0000
  C   C694      1.0  0.25465  0.75614  0.63722  1.0000
  C   C695      1.0  0.21043  0.51995  0.85302  1.0000
  C   C696      1.0  0.28271  0.74232  0.91871  1.0000
  H   H553      1.0  0.19972  0.53556  0.85154  1.0000
  C   C697      1.0  0.17780  0.66085  0.77390  1.0000
  C   C698      1.0  0.16485  0.68124  0.76752  1.0000
  C   C699      1.0  0.15524  0.68512  0.73983  1.0000
  C   C700      1.0  0.15832  0.66850  0.71823  1.0000
  C   C701      1.0  0.17168  0.64834  0.72442  1.0000
  C   C702      1.0  0.18150  0.64457  0.75202  1.0000
  H   H554      1.0  0.16191  0.69395  0.78429  1.0000
  H   H555      1.0  0.14507  0.70073  0.73543  1.0000
  H   H556      1.0  0.17414  0.63536  0.70788  1.0000
  H   H557      1.0  0.19141  0.62883  0.75657  1.0000
  C   C703      1.0  0.26785  0.97344  0.65108  1.0000
  C   C704      1.0  0.28965  0.97299  0.66343  1.0000
  H   H558      1.0  0.30429  0.83804  0.51167  1.0000
  H   H559      1.0  0.29922  0.95680  0.66629  1.0000
  C   C705      1.0  0.17141  0.57518  0.96246  1.0000
  C   C706      1.0  0.19651  0.82747  0.65487  1.0000
  C   C707      1.0  0.20995  0.81355  0.63616  1.0000
  C   C708      1.0  0.20086  0.79404  0.62386  1.0000
  C   C709      1.0  0.17848  0.78794  0.63076  1.0000
  C   C710      1.0  0.16522  0.80148  0.65014  1.0000
  C   C711      1.0  0.17421  0.82124  0.66205  1.0000
  H   H560      1.0  0.22731  0.81789  0.63106  1.0000
  H   H561      1.0  0.21121  0.78364  0.60889  1.0000
  H   H562      1.0  0.14793  0.79697  0.65548  1.0000
  H   H563      1.0  0.16376  0.83189  0.67666  1.0000
  C   C712      1.0  0.47506  0.77827  0.85349  1.0000
  C   C713      1.0  0.47870  0.75505  0.84661  1.0000
  H   H564      1.0  0.32771  0.76404  0.76731  1.0000
  H   H565      1.0  0.46421  0.74492  0.84184  1.0000
  C   C714      1.0  0.34972  0.79075  0.70821  1.0000
  C   C715      1.0  0.33713  0.70054  0.83202  1.0000
  C   C716      1.0  0.32992  0.68116  0.81733  1.0000
  C   C717      1.0  0.31393  0.66677  0.83027  1.0000
  C   C718      1.0  0.30485  0.67185  0.85789  1.0000
  C   C719      1.0  0.31150  0.69167  0.87190  1.0000
  C   C720      1.0  0.32750  0.70589  0.85913  1.0000
  H   H566      1.0  0.33740  0.67674  0.79642  1.0000
  H   H567      1.0  0.30958  0.65118  0.81954  1.0000
  H   H568      1.0  0.30481  0.69573  0.89321  1.0000
  H   H569      1.0  0.33283  0.72063  0.87079  1.0000
  C   C721      1.0  0.33121  0.83381  0.79988  1.0000
  C   C722      1.0  0.31099  0.84602  0.79122  1.0000
  C   C723      1.0  0.30779  0.85284  0.76202  1.0000
  C   C724      1.0  0.32500  0.84799  0.74133  1.0000
  C   C725      1.0  0.34551  0.83652  0.75027  1.0000
  C   C726      1.0  0.34844  0.82904  0.77919  1.0000
  H   H570      1.0  0.29774  0.85018  0.80717  1.0000
  H   H571      1.0  0.29219  0.86215  0.75555  1.0000
  H   H572      1.0  0.35920  0.83322  0.73464  1.0000
  H   H573      1.0  0.36422  0.82003  0.78559  1.0000
  C   C727      1.0  0.12523  0.70258  0.52246  1.0000
  C   C728      1.0  0.10156  0.70037  0.52491  1.0000
  H   H574      1.0  0.24216  0.66528  0.92872  1.0000
  H   H575      1.0  0.13556  0.70306  0.54179  1.0000
  C   C729      1.0  0.31229  0.93670  0.55489  1.0000
  C   C730      1.0  0.22801  0.60214  0.97676  1.0000
  C   C731      1.0  0.20979  0.61860  0.97676  1.0000
  H   H576      1.0  0.45473  0.75043  0.90115  1.0000
  H   H577      1.0  0.23521  0.59586  0.95648  1.0000
  H   H578      1.0  0.27274  0.72778  0.91363  1.0000
  C   C732      1.0  0.26499  0.87834  0.53642  1.0000
  C   C733      1.0  0.28275  0.86143  0.53722  1.0000
  C   C734      1.0  0.41548  0.73867  0.65075  1.0000
  H   H579      1.0  0.25895  0.88649  0.55622  1.0000
  C   C735      1.0  0.23099  0.68001  0.96943  1.0000
  C   C736      1.0  0.45911  0.79034  0.77914  1.0000
  C   C737      1.0  0.25772  0.52379  0.93546  1.0000
  H   H580      1.0  0.27819  0.68519  0.92699  1.0000
  H   H581      1.0  0.38165  0.80036  0.96434  1.0000
  C   C738      1.0  0.27798  0.53210  0.92407  1.0000
  C   C739      1.0  0.27091  0.91844  0.74771  1.0000
  H   H582      1.0  0.01095  0.63333  0.78232  1.0000
  P   P24       1.0  0.29911  0.71731  0.96680  1.0000
  C   C740      1.0  0.01014  0.61077  0.74556  1.0000
  C   C741      1.0  0.30655  0.93827  0.74625  1.0000
  C   C742      1.0  0.29461  0.91836  0.75167  1.0000
  P   P25       1.0  0.33726  0.93785  0.75133  1.0000
  C   C743      1.0  0.34556  0.96642  0.76013  1.0000
  C   C744      1.0  0.34424  0.91769  0.78029  1.0000
  C   C745      1.0  0.36142  0.90019  0.77650  1.0000
  C   C746      1.0  0.36557  0.88376  0.79829  1.0000
  C   C747      1.0  0.35261  0.88460  0.82393  1.0000
  C   C748      1.0  0.33548  0.90191  0.82788  1.0000
  C   C749      1.0  0.33127  0.91838  0.80616  1.0000
  H   H583      1.0  0.15940  0.58970  0.95909  1.0000
  H   H584      1.0  0.03482  0.68424  0.51460  1.0000
  C   C750      1.0  0.44312  0.75776  0.69251  1.0000
  H   H585      1.0  0.27156  0.76099  0.88074  1.0000
  H   H586      1.0  0.11662  0.78545  0.52574  1.0000
  C   C751      1.0  0.35184  0.92846  0.71845  1.0000
  C   C752      1.0  0.34198  0.91264  0.70018  1.0000
  C   C753      1.0  0.35403  0.90416  0.67582  1.0000
  C   C754      1.0  0.37585  0.91165  0.66929  1.0000
  C   C755      1.0  0.38579  0.92742  0.68736  1.0000
  C   C756      1.0  0.37395  0.93565  0.71201  1.0000
  H   H587      1.0  0.26183  0.90304  0.75202  1.0000
  C   C757      1.0  0.24947  0.95513  0.52952  1.0000
  C   C758      1.0  0.44334  0.83712  0.95015  1.0000
  C   C759      1.0  0.37636  0.76695  0.98241  1.0000
  H   H588      1.0  0.30363  0.90270  0.75876  1.0000
  H   H589      1.0  0.37132  0.89877  0.75656  1.0000
  H   H590      1.0  0.37842  0.86995  0.79501  1.0000
  H   H591      1.0  0.35549  0.87150  0.84047  1.0000
  H   H592      1.0  0.32519  0.90224  0.84759  1.0000
  H   H593      1.0  0.31759  0.93140  0.80927  1.0000
  C   C760      1.0  0.49171  0.82034  0.95002  1.0000
  C   C761      1.0  0.20533  0.49946  0.75802  1.0000
  H   H594      1.0  0.36650  0.65579  0.91560  1.0000
  C   C762      1.0  0.02185  0.68354  0.55815  1.0000
  H   H595      1.0  0.32522  0.90636  0.70499  1.0000
  H   H596      1.0  0.34658  0.89143  0.66232  1.0000
  H   H597      1.0  0.38510  0.90500  0.65039  1.0000
  H   H598      1.0  0.26622  0.50131  0.85888  1.0000
  H   H599      1.0  0.38218  0.94737  0.72622  1.0000
  C   C763      1.0  0.25650  0.70653  0.99083  1.0000
  C   C764      1.0  0.32123  0.69790  0.95190  1.0000
  H   H600      1.0  0.26454  0.63090  0.95260  1.0000
  C   C765      1.0  0.40514  0.71058  0.74406  1.0000
  C   C766      1.0  0.40565  0.69026  0.76033  1.0000
  C   C767      1.0  0.45170  0.75357  0.66449  1.0000
  H   H601      1.0  0.48886  0.73544  0.99812  1.0000
  H   H602      1.0  0.25776  0.94417  0.57321  1.0000
  C   C768      1.0  0.02399  0.74436  0.57379  1.0000
  C   C769      1.0  0.43791  0.74403  0.64362  1.0000
  C   C770      1.0  0.42702  0.81782  0.77352  1.0000
  H   H603      1.0  0.36775  0.74915  0.77079  1.0000
  C   C771      1.0  0.37259  0.78261  0.71033  1.0000
  C   C772      1.0  0.43376  0.83314  0.92291  1.0000
  H   H604      1.0  0.25125  0.75526  0.59071  1.0000
  H   H605      1.0  0.42166  0.71113  0.82537  1.0000
  H   H606      1.0  0.47596  0.78590  0.78784  1.0000
  C   C773      1.0  0.02054  0.60431  0.71919  1.0000
  H   H607      1.0  0.30297  0.97353  0.73100  1.0000
  H   H608      1.0  0.99540  0.60198  0.75354  1.0000
  H   H609      1.0  0.32227  0.93952  0.50998  1.0000
  H   H610      1.0  0.29167  0.60095  0.93287  1.0000
  C   C774      1.0  0.31398  0.97275  0.52864  1.0000
  C   C775      1.0  0.26860  0.53535  0.98359  1.0000
  C   C776      1.0  0.34014  0.76901  0.75114  1.0000
  C   C777      1.0  0.38074  0.79023  0.98401  1.0000
  H   H611      1.0  0.31413  0.91810  0.55530  1.0000
  H   H612      1.0  0.40149  0.88287  0.91462  1.0000
  H   H613      1.0  0.31610  0.79124  0.72762  1.0000
  C   C778      1.0  0.24478  0.49647  0.77408  1.0000
  H   H614      1.0  0.26111  0.99026  0.57148  1.0000
  C   C779      1.0  0.36293  0.76060  0.75309  1.0000
  H   H615      1.0  0.28132  0.53115  0.90089  1.0000
  C   C780      1.0  0.21294  0.83098  0.52191  1.0000
  C   C781      1.0  0.43316  0.75448  0.96979  1.0000
  H   H616      1.0  0.02682  0.72151  0.72302  1.0000
  C   C782      1.0  0.31283  0.59949  0.97098  1.0000
  P   P26       1.0  0.40915  0.75770  0.73607  1.0000
  H   H617      1.0  0.24182  0.74361  0.64059  1.0000
  C   C783      1.0  0.24241  0.51876  0.78493  1.0000
  H   H618      1.0  0.44598  0.86208  0.98449  1.0000
  C   C784      1.0  0.28244  0.63384  0.99302  1.0000
  H   H619      1.0  0.25666  0.52619  0.79574  1.0000
  C   C785      1.0  0.31670  0.94878  0.52930  1.0000
  C   C786      1.0  0.30633  0.98477  0.55354  1.0000
  H   H620      1.0  0.43065  0.72945  0.93604  1.0000
  C   C787      1.0  0.23244  0.95719  0.50823  1.0000
  C   C788      1.0  0.35550  0.69112  0.92216  1.0000
  C   C789      1.0  0.41324  0.87022  0.92446  1.0000
  H   H621      1.0  0.46993  0.78738  0.91463  1.0000
  H   H622      1.0  0.42065  0.74692  0.79732  1.0000
  C   C790      1.0  0.24860  0.81888  0.54490  1.0000
  C   C791      1.0  0.29674  0.74213  0.94325  1.0000
  H   H623      1.0  0.26572  0.81088  0.54358  1.0000
  H   H624      1.0  0.34326  0.97865  0.71575  1.0000
  C   C792      1.0  0.35046  0.97254  0.78877  1.0000
  H   H625      1.0  0.31576  0.99314  0.68206  1.0000
  C   C793      1.0  0.27080  0.95784  0.73125  1.0000
  H   H626      1.0  0.41909  0.83467  0.77764  1.0000
  C   C794      1.0  0.37936  0.76741  0.73278  1.0000
  C   C795      1.0  0.45990  0.77827  0.93039  1.0000
  H   H627      1.0  0.30100  0.55111  0.98644  1.0000
  C   C796      1.0  0.27910  0.62482  0.96541  1.0000
  C   C797      1.0  0.43822  0.85818  0.96397  1.0000
  H   H628      1.0  0.18223  0.49767  0.84868  1.0000
  C   C798      1.0  0.12799  0.79913  0.52994  1.0000
  C   C799      1.0  0.13977  0.79945  0.55613  1.0000
  C   C800      1.0  0.15461  0.81693  0.56169  1.0000
  C   C801      1.0  0.15727  0.83465  0.54139  1.0000
  C   C802      1.0  0.26660  0.68831  0.94513  1.0000
  P   P27       1.0  0.17731  0.85651  0.54840  1.0000
  H   H629      1.0  0.36883  0.69781  0.90845  1.0000
  C   C803      1.0  0.17220  0.87066  0.58278  1.0000
  C   C804      1.0  0.15393  0.86513  0.60118  1.0000
  C   C805      1.0  0.15118  0.87563  0.62828  1.0000
  C   C806      1.0  0.16636  0.89195  0.63699  1.0000
  C   C807      1.0  0.18412  0.89808  0.61843  1.0000
  C   C808      1.0  0.18696  0.88757  0.59135  1.0000
  H   H630      1.0  0.40097  0.67440  0.75044  1.0000
  H   H631      1.0  0.26656  0.96064  0.52500  1.0000
  C   C809      1.0  0.42060  0.75239  0.69993  1.0000
  C   C810      1.0  0.25902  0.93810  0.73723  1.0000
  H   H632      1.0  0.33973  0.72432  0.93015  1.0000
  C   C811      1.0  0.16992  0.56165  0.98743  1.0000
  C   C812      1.0  0.27208  0.70321  0.96762  1.0000
  C   C813      1.0  0.25495  0.88476  0.50988  1.0000
  C   C814      1.0  0.41499  0.80151  0.75862  1.0000
  H   H633      1.0  0.40476  0.73133  0.63452  1.0000
  C   C815      1.0  0.29051  0.85112  0.51118  1.0000
  H   H634      1.0  0.13761  0.78595  0.57205  1.0000
  H   H635      1.0  0.16407  0.81654  0.58183  1.0000
  C   C816      1.0  0.03210  0.73600  0.52325  1.0000
  H   H636      1.0  0.14191  0.85260  0.59505  1.0000
  H   H637      1.0  0.13757  0.87072  0.64285  1.0000
  H   H638      1.0  0.16468  0.89948  0.65839  1.0000
  H   H639      1.0  0.19611  0.91043  0.62551  1.0000
  H   H640      1.0  0.20118  0.89202  0.57747  1.0000
  C   C817      1.0  0.41742  0.71090  0.80254  1.0000
  C   C818      1.0  0.31021  0.76097  0.94837  1.0000
  C   C819      1.0  0.23460  0.81968  0.52053  1.0000
  C   C820      1.0  0.42487  0.77934  0.75417  1.0000
  C   C821      1.0  0.41177  0.69042  0.78956  1.0000
  H   H641      1.0  0.21378  0.84841  0.59236  1.0000
  C   C822      1.0  0.29510  0.78002  0.90537  1.0000
  C   C823      1.0  0.41678  0.73127  0.78641  1.0000
  H   H642      1.0  0.30251  0.93935  0.60007  1.0000
  P   P28       1.0  0.46371  0.81636  0.96587  1.0000
  H   H643      1.0  0.03476  0.69448  0.56633  1.0000
  C   C824      1.0  0.40685  0.74282  0.67875  1.0000
  H   H644      1.0  0.30920  0.54849  0.93341  1.0000
  H   H645      1.0  0.32206  0.76087  0.96635  1.0000
  C   C825      1.0  0.18870  0.57029  0.94197  1.0000
  C   C826      1.0  0.29442  0.95800  0.73587  1.0000
  C   C827      1.0  0.43787  0.74540  0.94230  1.0000
  C   C828      1.0  0.17458  0.87893  0.52121  1.0000
  C   C829      1.0  0.33899  0.70623  0.93474  1.0000
  H   H646      1.0  0.33544  0.64075  0.94634  1.0000
  H   H647      1.0  0.41893  0.89061  0.96226  1.0000
  C   C830      1.0  0.28194  0.76121  0.89991  1.0000
  C   C831      1.0  0.14581  0.83389  0.51473  1.0000
  H   H648      1.0  0.41168  0.67480  0.80235  1.0000
  H   H649      1.0  0.48720  0.72803  0.94572  1.0000
  C   C832      1.0  0.20495  0.55230  0.94673  1.0000
  C   C833      1.0  0.24091  0.82922  0.57069  1.0000
  H   H650      1.0  0.25199  0.82886  0.58942  1.0000
  C   C834      1.0  0.21042  0.94984  0.51473  1.0000
  H   H651      1.0  0.32453  0.58616  0.96242  1.0000
  C   C835      1.0  0.01887  0.62846  0.76175  1.0000
  H   H652      1.0  0.00492  0.77215  0.66715  1.0000
  C   C836      1.0  0.30927  0.77986  0.92959  1.0000
  H   H653      1.0  0.00179  0.57324  0.51263  1.0000
  C   C837      1.0  0.02206  0.67737  0.52887  1.0000
  H   H654      1.0  0.49164  0.80914  0.86477  1.0000
  H   H655      1.0  0.18991  0.58094  0.92277  1.0000
  H   H656      1.0  0.30729  0.66749  0.97038  1.0000
  H   H657      1.0  0.01392  0.59042  0.70681  1.0000
  H   H658      1.0  0.18144  0.79616  0.50659  1.0000
  C   C838      1.0  0.24459  0.94581  0.55679  1.0000
  C   C839      1.0  0.20056  0.49840  0.85130  1.0000
  C   C840      1.0  0.20561  0.94048  0.54204  1.0000
  H   H659      1.0  0.18739  0.50468  0.94083  1.0000
  C   C841      1.0  0.42304  0.87454  0.95130  1.0000
  C   C842      1.0  0.32064  0.67423  0.95695  1.0000
  H   H660      1.0  0.45504  0.75693  0.76157  1.0000
  C   C843      1.0  0.45465  0.78791  0.95764  1.0000
  H   H661      1.0  0.13953  0.88855  0.53333  1.0000
  H   H662      1.0  0.29490  0.79444  0.89042  1.0000
  H   H663      1.0  0.39785  0.80620  0.75131  1.0000
  C   C844      1.0  0.03981  0.74023  0.55124  1.0000
  C   C845      1.0  0.41079  0.73128  0.75691  1.0000
  C   C846      1.0  0.44712  0.77397  0.76439  1.0000
  C   C847      1.0  0.18977  0.74768  0.68933  1.0000
  C   C848      1.0  0.34677  0.98301  0.73802  1.0000
  H   H664      1.0  0.20596  0.71440  0.52040  1.0000
  H   H665      1.0  0.28050  0.78397  0.58160  1.0000
  C   C849      1.0  0.20292  0.52163  0.76936  1.0000
  H   H666      1.0  0.27988  0.77190  0.75290  1.0000
  C   C850      1.0  0.13116  0.81621  0.50912  1.0000
  C   C851      1.0  0.21932  0.84067  0.57206  1.0000
  H   H667      1.0  0.46909  0.75777  0.65895  1.0000
  H   H668      1.0  0.21088  0.77640  0.68833  1.0000
  C   C852      1.0  0.33355  0.78410  0.72872  1.0000
  C   C853      1.0  0.18595  0.54342  0.99213  1.0000
  C   C854      1.0  0.00046  0.74491  0.56820  1.0000
  H   H669      1.0  0.28068  0.80880  0.77773  1.0000
  H   H670      1.0  0.24575  0.51643  0.92074  1.0000
  C   C855      1.0  0.35421  0.66751  0.92627  1.0000
  H   H671      1.0  0.07010  0.69800  0.50141  1.0000
  C   C856      1.0  0.25743  0.66765  0.80448  1.0000
  C   C857      1.0  0.24882  0.66225  0.77735  1.0000
  C   C858      1.0  0.23434  0.67811  0.76277  1.0000
  C   C859      1.0  0.22867  0.69948  0.77516  1.0000
  C   C860      1.0  0.23741  0.70505  0.80243  1.0000
  C   C861      1.0  0.25148  0.68876  0.81722  1.0000
  P   P29       1.0  0.23012  0.73243  0.81908  1.0000
  C   C862      1.0  0.20783  0.74689  0.79780  1.0000
  C   C863      1.0  0.21898  0.72684  0.85512  1.0000
  C   C864      1.0  0.20671  0.70715  0.86050  1.0000
  C   C865      1.0  0.19875  0.70228  0.88849  1.0000
  C   C866      1.0  0.20313  0.71690  0.91142  1.0000
  C   C867      1.0  0.21506  0.73669  0.90626  1.0000
  C   C868      1.0  0.22276  0.74178  0.87820  1.0000
  C   C869      1.0  0.18504  0.74049  0.80051  1.0000
  C   C870      1.0  0.16799  0.75065  0.78283  1.0000
  C   C871      1.0  0.17352  0.76736  0.76244  1.0000
  C   C872      1.0  0.19617  0.77374  0.75948  1.0000
  C   C873      1.0  0.21334  0.76325  0.77667  1.0000
  C   C874      1.0  0.25491  0.74985  0.82136  1.0000
  C   C875      1.0  0.25186  0.77362  0.82579  1.0000
  C   C876      1.0  0.27085  0.78714  0.82823  1.0000
  C   C877      1.0  0.29303  0.77715  0.82576  1.0000
  C   C878      1.0  0.29625  0.75358  0.82151  1.0000
  C   C879      1.0  0.27734  0.73993  0.81963  1.0000
  H   H672      1.0  0.26827  0.65524  0.81611  1.0000
  H   H673      1.0  0.25285  0.64552  0.76802  1.0000
  H   H674      1.0  0.22691  0.67351  0.74231  1.0000
  H   H675      1.0  0.21709  0.71124  0.76358  1.0000
  H   H676      1.0  0.25775  0.69222  0.83875  1.0000
  H   H677      1.0  0.20339  0.69535  0.84314  1.0000
  H   H678      1.0  0.18945  0.68692  0.89245  1.0000
  H   H679      1.0  0.19725  0.71284  0.93315  1.0000
  H   H680      1.0  0.21835  0.74808  0.92405  1.0000
  H   H681      1.0  0.23163  0.75732  0.87475  1.0000
  H   H682      1.0  0.18044  0.72728  0.81578  1.0000
  H   H683      1.0  0.15049  0.74540  0.78479  1.0000
  H   H684      1.0  0.16030  0.77519  0.74871  1.0000
  H   H685      1.0  0.20047  0.78660  0.74353  1.0000
  H   H686      1.0  0.23086  0.76779  0.77316  1.0000
  H   H687      1.0  0.23479  0.78168  0.82775  1.0000
  H   H688      1.0  0.26847  0.80543  0.83198  1.0000
  H   H689      1.0  0.30777  0.78760  0.82754  1.0000
  H   H690      1.0  0.31351  0.74581  0.82020  1.0000
  H   H691      1.0  0.28056  0.72170  0.81722  1.0000
  H   H692      1.0  0.43786  0.81743  0.91122  1.0000
  H   H693      1.0  0.32014  0.79404  0.93339  1.0000
  H   H694      1.0  0.05273  0.64461  0.50401  1.0000
  H   H695      1.0  0.05805  0.73960  0.55570  1.0000
  H   H696      1.0  0.21907  0.93152  0.58438  1.0000
  C   C880      1.0  0.25999  0.76266  0.60877  1.0000
  C   C881      1.0  0.22268  0.93856  0.56309  1.0000
  C   C882      1.0  0.19279  0.77018  0.53693  1.0000
  C   C883      1.0  0.19939  0.74710  0.54100  1.0000
  H   H697      1.0  0.18865  0.93465  0.54687  1.0000
  H   H698      1.0  0.26169  0.97298  0.72257  1.0000
  H   H699      1.0  0.34998  0.96016  0.80626  1.0000
  H   H700      1.0  0.21532  0.67081  0.97026  1.0000
  H   H701      1.0  0.17428  0.75794  0.68442  1.0000
  C   C884      1.0  0.24613  0.67690  0.94601  1.0000
  H   H702      1.0  0.19105  0.78142  0.55555  1.0000
  H   H703      1.0  0.20256  0.74055  0.56276  1.0000
  H   H704      1.0  0.43638  0.78264  0.99830  1.0000
  C   C885      1.0  0.20532  0.84196  0.54744  1.0000
  C   C886      1.0  0.28738  0.78867  0.62688  1.0000
  C   C887      1.0  0.00500  0.67571  0.57689  1.0000
  H   H705      1.0  0.38506  0.78860  0.69486  1.0000
  H   H706      1.0  0.34467  0.80306  0.69141  1.0000
  H   H707      1.0  0.18666  0.53131  0.76794  1.0000
  C   C888      1.0  0.27637  0.77887  0.60361  1.0000
  C   C889      1.0  0.29359  0.54196  0.94238  1.0000
  H   H708      1.0  0.21958  0.54826  0.79219  1.0000
  C   C890      1.0  0.20396  0.53893  0.97215  1.0000
  H   H709      1.0  0.01194  0.61343  0.51863  1.0000
  H   H710      1.0  0.40281  0.93304  0.68247  1.0000
  C   C891      1.0  0.03783  0.63987  0.75143  1.0000
  C   C892      1.0  0.04791  0.63396  0.72454  1.0000
  C   C893      1.0  0.03950  0.61571  0.70880  1.0000
  P   P30       1.0  0.07267  0.64844  0.71179  1.0000
  C   C894      1.0  0.07530  0.64623  0.67280  1.0000
  C   C895      1.0  0.06880  0.67882  0.71844  1.0000
  C   C896      1.0  0.08793  0.69221  0.72134  1.0000
  C   C897      1.0  0.08497  0.71579  0.72618  1.0000
  C   C898      1.0  0.06294  0.72627  0.72719  1.0000
  C   C899      1.0  0.04384  0.71317  0.72345  1.0000
  C   C900      1.0  0.04672  0.68956  0.71890  1.0000
  C   C901      1.0  0.09673  0.64167  0.65937  1.0000
  C   C902      1.0  0.09877  0.64181  0.62909  1.0000
  C   C903      1.0  0.07948  0.64672  0.61198  1.0000
  C   C904      1.0  0.05810  0.65134  0.62516  1.0000
  C   C905      1.0  0.05601  0.65123  0.65544  1.0000
  C   C906      1.0  0.09681  0.63540  0.73114  1.0000
  C   C907      1.0  0.10680  0.61422  0.72205  1.0000
  C   C908      1.0  0.12528  0.60391  0.73720  1.0000
  C   C909      1.0  0.13360  0.61441  0.76186  1.0000
  C   C910      1.0  0.12328  0.63508  0.77160  1.0000
  C   C911      1.0  0.10479  0.64542  0.75654  1.0000
  C   C912      1.0  0.45133  0.75725  0.92266  1.0000
  C   C913      1.0  0.30574  0.94862  0.58007  1.0000
  H   H711      1.0  0.24077  0.93795  0.73325  1.0000
  H   H712      1.0  0.04457  0.65340  0.76435  1.0000
  H   H713      1.0  0.04754  0.61027  0.68854  1.0000
  H   H714      1.0  0.10513  0.68450  0.71951  1.0000
  H   H715      1.0  0.09978  0.72603  0.72846  1.0000
  H   H716      1.0  0.06066  0.74469  0.72973  1.0000
  C   C914      1.0  0.19287  0.88387  0.50255  1.0000
  H   H717      1.0  0.03170  0.67990  0.71511  1.0000
  H   H718      1.0  0.11208  0.63895  0.67211  1.0000
  H   H719      1.0  0.11550  0.63911  0.61895  1.0000
  H   H720      1.0  0.08129  0.64780  0.58856  1.0000
  H   H721      1.0  0.04333  0.65580  0.61190  1.0000
  H   H722      1.0  0.03949  0.65572  0.66532  1.0000
  H   H723      1.0  0.10040  0.60576  0.70317  1.0000
  H   H724      1.0  0.13326  0.58784  0.72973  1.0000
  H   H725      1.0  0.14816  0.60668  0.77338  1.0000
  H   H726      1.0  0.12989  0.64324  0.79066  1.0000
  H   H727      1.0  0.09687  0.66122  0.76482  1.0000
  C   C915      1.0  0.29387  0.71363  0.75211  1.0000
  C   C916      1.0  0.31589  0.71238  0.73995  1.0000
  C   C917      1.0  0.32032  0.72423  0.71422  1.0000
  C   C918      1.0  0.30279  0.73747  0.70072  1.0000
  C   C919      1.0  0.28062  0.73901  0.71294  1.0000
  C   C920      1.0  0.27640  0.72718  0.73897  1.0000
  P   P31       1.0  0.25845  0.75824  0.69776  1.0000
  C   C921      1.0  0.26559  0.76599  0.66079  1.0000
  C   C922      1.0  0.23100  0.74490  0.69729  1.0000
  C   C923      1.0  0.21071  0.75812  0.69170  1.0000
  C   C924      1.0  0.18884  0.72395  0.69221  1.0000
  C   C925      1.0  0.20890  0.71057  0.69723  1.0000
  C   C926      1.0  0.22993  0.72091  0.69947  1.0000
  C   C927      1.0  0.28194  0.78240  0.65538  1.0000
  H   H728      1.0  0.38940  0.73861  0.68384  1.0000
  C   C928      1.0  0.25714  0.78454  0.71853  1.0000
  C   C929      1.0  0.24512  0.80420  0.70776  1.0000
  C   C930      1.0  0.24487  0.82480  0.72307  1.0000
  C   C931      1.0  0.25721  0.82627  0.74863  1.0000
  C   C932      1.0  0.27003  0.80717  0.75886  1.0000
  C   C933      1.0  0.26972  0.78628  0.74427  1.0000
  H   H729      1.0  0.29047  0.70422  0.77192  1.0000
  H   H730      1.0  0.32957  0.70239  0.75066  1.0000
  H   H731      1.0  0.33748  0.72342  0.70500  1.0000
  H   H732      1.0  0.30679  0.74669  0.68105  1.0000
  H   H733      1.0  0.25969  0.72876  0.74932  1.0000
  H   H734      1.0  0.17266  0.71583  0.68981  1.0000
  H   H735      1.0  0.20805  0.69209  0.69869  1.0000
  H   H736      1.0  0.24529  0.70999  0.70213  1.0000
  H   H737      1.0  0.29040  0.79049  0.67316  1.0000
  H   H738      1.0  0.29989  0.80147  0.62278  1.0000
  H   H739      1.0  0.23645  0.80395  0.68715  1.0000
  H   H740      1.0  0.23555  0.83989  0.71476  1.0000
  H   H741      1.0  0.25726  0.84240  0.76010  1.0000
  H   H742      1.0  0.03000  0.74696  0.59570  1.0000
  C   C934      1.0  0.29432  0.60777  0.95434  1.0000
  C   C935      1.0  0.30304  0.97254  0.57949  1.0000
  H   H743      1.0  0.41144  0.84631  0.88918  1.0000
  C   C936      1.0  0.44903  0.81222  0.78384  1.0000
  H   H744      1.0  0.20920  0.87442  0.50388  1.0000
  C   C937      1.0  0.22147  0.53127  0.78283  1.0000
  C   C938      1.0  0.41875  0.84961  0.91019  1.0000
  H   H745      1.0  0.00282  0.68858  0.65129  1.0000
  C   C939      1.0  0.15378  0.89193  0.51892  1.0000
  C   C940      1.0  0.00316  0.70692  0.65414  1.0000
  C   C941      1.0  0.25266  0.52564  0.96529  1.0000
  C   C942      1.0  0.44127  0.77572  0.97737  1.0000
  C   C943      1.0  0.20123  0.73241  0.51715  1.0000
  C   C944      1.0  0.18759  0.77852  0.50912  1.0000
  C   C945      1.0  0.33676  0.65906  0.94364  1.0000
  H   H746      1.0  0.45418  0.76525  0.70811  1.0000
  H   H747      1.0  0.21828  0.54918  0.93061  1.0000
  H   H748      1.0  0.29799  0.98151  0.59928  1.0000
  H   H749      1.0  0.24134  0.89802  0.50960  1.0000
  H   H750      1.0  0.48466  0.85601  0.93828  1.0000
  C   C946      1.0  0.00452  0.75393  0.66323  1.0000
  H   H751      1.0  0.40004  0.71008  0.72163  1.0000
  C   C947      1.0  0.24781  0.50060  0.85712  1.0000
  C   C948      1.0  0.31622  0.60839  0.99862  1.0000
  C   C949      1.0  0.28896  0.54347  0.97215  1.0000
  C   C950      1.0  0.23615  0.69486  0.99180  1.0000
  H   H752      1.0  0.44459  0.74083  0.62190  1.0000
  P   P32       1.0  0.22554  0.51627  0.97915  1.0000
  C   C951      1.0  0.00856  0.73627  0.51765  1.0000
  H   H753      1.0  0.42235  0.74548  0.98482  1.0000
  H   H754      1.0  0.31803  0.98166  0.50877  1.0000
  H   H755      1.0  0.20219  0.83162  0.50296  1.0000
  H   H756      1.0  0.00447  0.68105  0.59937  1.0000
  H   H757      1.0  0.34384  0.64222  0.00088  1.0000
  H   H758      1.0  0.37997  0.66166  0.00101  1.0000
  H   H759      1.0  0.04443  0.73218  0.50601  1.0000
  H   H760      1.0  0.27030  0.64699  0.00103  1.0000
  Fe  Fe65      1.0  0.78458  0.35166  0.17034  1.0000
  S   S129      1.0  0.76255  0.37834  0.19407  1.0000
  S   S130      1.0  0.81001  0.32412  0.18874  1.0000
  Fe  Fe66      1.0  0.76255  0.36501  0.11091  1.0000
  S   S131      1.0  0.73887  0.39211  0.13101  1.0000
  S   S132      1.0  0.75588  0.35494  0.06423  1.0000
  Fe  Fe67      1.0  0.76968  0.40209  0.15617  1.0000
  S   S133      1.0  0.78416  0.43806  0.15661  1.0000
  Fe  Fe68      1.0  0.73370  0.36613  0.16647  1.0000
  S   S134      1.0  0.69897  0.35640  0.18434  1.0000
  S   S135      1.0  0.79380  0.37584  0.13408  1.0000
  S   S136      1.0  0.75542  0.33860  0.14495  1.0000
  Fe  Fe69      1.0  0.86428  0.28208  0.34476  1.0000
  S   S137      1.0  0.87634  0.24610  0.33275  1.0000
  S   S138      1.0  0.83883  0.30665  0.32105  1.0000
  Fe  Fe70      1.0  0.88686  0.27818  0.40538  1.0000
  S   S139      1.0  0.90015  0.24204  0.39769  1.0000
  S   S140      1.0  0.89390  0.29782  0.44670  1.0000
  Fe  Fe71      1.0  0.91005  0.25474  0.35339  1.0000
  S   S141      1.0  0.94477  0.24369  0.33328  1.0000
  Fe  Fe72      1.0  0.86562  0.23661  0.37804  1.0000
  S   S142      1.0  0.84481  0.20720  0.39408  1.0000
  S   S143      1.0  0.89870  0.29144  0.36199  1.0000
  S   S144      1.0  0.85166  0.27197  0.38918  1.0000
  Fe  Fe73      1.0  0.57778  0.22980  0.16147  1.0000
  S   S145      1.0  0.58863  0.19305  0.15234  1.0000
  S   S146      1.0  0.54169  0.24153  0.17717  1.0000
  Fe  Fe74      1.0  0.62439  0.24737  0.14198  1.0000
  S   S147      1.0  0.63749  0.21156  0.13142  1.0000
  S   S148      1.0  0.65042  0.27272  0.12639  1.0000
  Fe  Fe75      1.0  0.60353  0.20713  0.11096  1.0000
  S   S149      1.0  0.59986  0.18932  0.06756  1.0000
  Fe  Fe76      1.0  0.62201  0.20091  0.17400  1.0000
  S   S150      1.0  0.64694  0.17606  0.19863  1.0000
  S   S151      1.0  0.59093  0.24340  0.11884  1.0000
  S   S152      1.0  0.61045  0.23714  0.18579  1.0000
  Fe  Fe77      1.0  0.73017  0.08165  0.36082  1.0000
  S   S153      1.0  0.70007  0.09870  0.38479  1.0000
  S   S154      1.0  0.74041  0.04356  0.35449  1.0000
  Fe  Fe78      1.0  0.75139  0.12772  0.34691  1.0000
  S   S155      1.0  0.72323  0.14752  0.37015  1.0000
  S   S156      1.0  0.77810  0.14696  0.32182  1.0000
  Fe  Fe79      1.0  0.72641  0.12041  0.40495  1.0000
  S   S157      1.0  0.72997  0.13371  0.45097  1.0000
  Fe  Fe80      1.0  0.69936  0.12467  0.34775  1.0000
  S   S158      1.0  0.66661  0.14178  0.32859  1.0000
  S   S159      1.0  0.75661  0.10215  0.38305  1.0000
  S   S160      1.0  0.72742  0.10602  0.32248  1.0000
  C   C952      1.0  0.72049  0.12161  0.48405  1.0000
  C   C953      1.0  0.66016  0.23649  0.24821  1.0000
  C   C954      1.0  0.70781  0.10191  0.48509  1.0000
  H   H761      1.0  0.88981  0.35260  0.38720  1.0000
  H   H762      1.0  0.70351  0.09354  0.46515  1.0000
  C   C955      1.0  0.60388  0.20433  0.03446  1.0000
  C   C956      1.0  0.61025  0.22708  0.03419  1.0000
  C   C957      1.0  0.95176  0.39438  0.23726  1.0000
  H   H763      1.0  0.61241  0.23595  0.05444  1.0000
  P   P33       1.0  0.65514  0.03474  0.29758  1.0000
  C   C958      1.0  0.65326  0.16880  0.23548  1.0000
  C   C959      1.0  0.67233  0.15378  0.24127  1.0000
  C   C960      1.0  0.67743  0.14639  0.26983  1.0000
  C   C961      1.0  0.66323  0.15357  0.29300  1.0000
  C   C962      1.0  0.64451  0.16907  0.28734  1.0000
  C   C963      1.0  0.63969  0.17685  0.25884  1.0000
  H   H764      1.0  0.68303  0.14750  0.22345  1.0000
  H   H765      1.0  0.69181  0.13440  0.27373  1.0000
  H   H766      1.0  0.63339  0.17478  0.30507  1.0000
  H   H767      1.0  0.62519  0.18867  0.25496  1.0000
  C   C964      1.0  0.88975  0.28401  0.48051  1.0000
  C   C965      1.0  0.88484  0.26087  0.48186  1.0000
  H   H768      1.0  0.63894  0.08011  0.40559  1.0000
  H   H769      1.0  0.88374  0.25115  0.46207  1.0000
  C   C966      1.0  0.54103  0.07054  0.19057  1.0000
  C   C967      1.0  0.82681  0.19056  0.37299  1.0000
  C   C968      1.0  0.81234  0.17570  0.38744  1.0000
  C   C969      1.0  0.79705  0.16265  0.37201  1.0000
  C   C970      1.0  0.79657  0.16387  0.34174  1.0000
  C   C971      1.0  0.81130  0.17847  0.32708  1.0000
  C   C972      1.0  0.82637  0.19185  0.34266  1.0000
  H   H770      1.0  0.81308  0.17413  0.41072  1.0000
  H   H771      1.0  0.78591  0.15135  0.38350  1.0000
  H   H772      1.0  0.81117  0.17927  0.30363  1.0000
  H   H773      1.0  0.83772  0.20298  0.33128  1.0000
  C   C973      1.0  0.77013  0.36415  0.03257  1.0000
  H   H774      1.0  0.51739  0.08895  0.25463  1.0000
  C   C974      1.0  0.79117  0.37447  0.03367  1.0000
  C   C975      1.0  0.59161  0.04776  0.23978  1.0000
  H   H775      1.0  0.79913  0.37693  0.05440  1.0000
  C   C976      1.0  0.68549  0.33297  0.16849  1.0000
  C   C977      1.0  0.69328  0.32369  0.14209  1.0000
  C   C978      1.0  0.68224  0.30532  0.12966  1.0000
  C   C979      1.0  0.66360  0.29559  0.14374  1.0000
  C   C980      1.0  0.65585  0.30465  0.17035  1.0000
  C   C981      1.0  0.66660  0.32346  0.18248  1.0000
  H   H776      1.0  0.70753  0.33100  0.13088  1.0000
  H   H777      1.0  0.68814  0.29869  0.10887  1.0000
  H   H778      1.0  0.64137  0.29745  0.18127  1.0000
  H   H779      1.0  0.66037  0.33058  0.20285  1.0000
  C   C982      1.0  0.81763  0.31928  0.22570  1.0000
  C   C983      1.0  0.80694  0.33167  0.24835  1.0000
  C   C984      1.0  0.81366  0.32744  0.27730  1.0000
  C   C985      1.0  0.83115  0.31085  0.28404  1.0000
  C   C986      1.0  0.84191  0.29844  0.26139  1.0000
  C   C987      1.0  0.83512  0.30262  0.23241  1.0000
  H   H780      1.0  0.79354  0.34458  0.24357  1.0000
  H   H781      1.0  0.80528  0.33721  0.29461  1.0000
  H   H782      1.0  0.85550  0.28574  0.26617  1.0000
  H   H783      1.0  0.84369  0.29314  0.21503  1.0000
  C   C988      1.0  0.97289  0.27145  0.36453  1.0000
  C   C989      1.0  0.97153  0.25275  0.34588  1.0000
  H   H784      1.0  0.63790  0.01065  0.24754  1.0000
  H   H785      1.0  0.95732  0.27995  0.37286  1.0000
  H   H786      1.0  0.73429  0.06762  0.24092  1.0000
  C   C990      1.0  0.51465  0.20652  0.15817  1.0000
  C   C991      1.0  0.51533  0.22836  0.17039  1.0000
  C   C992      1.0  0.83950  0.43212  0.03802  1.0000
  H   H787      1.0  0.53048  0.19740  0.15183  1.0000
  C   C993      1.0  0.78769  0.06844  0.44379  1.0000
  H   H788      1.0  0.59258  0.13435  0.26235  1.0000
  C   C994      1.0  0.72724  0.01747  0.36283  1.0000
  C   C995      1.0  0.70462  0.01689  0.37297  1.0000
  C   C996      1.0  0.91637  0.35314  0.35433  1.0000
  H   H789      1.0  0.69464  0.03276  0.37629  1.0000
  C   C997      1.0  0.62134  0.10276  0.21029  1.0000
  C   C998      1.0  0.77129  0.46616  0.16169  1.0000
  C   C999      1.0  0.74783  0.47010  0.16734  1.0000
  H   H790      1.0  0.53130  0.26699  0.12772  1.0000
  H   H791      1.0  0.73691  0.45571  0.16900  1.0000
  H   H792      1.0  0.85596  0.41169  0.07170  1.0000
  H   H793      1.0  0.52620  0.31523  0.05725  1.0000
  H   H794      1.0  0.81023  0.28600  0.42666  1.0000
  H   H795      1.0  0.85886  0.34655  0.35200  1.0000
  C   C1000     1.0  0.79391  0.26644  0.46066  1.0000
  H   H796      1.0  0.80606  0.21871  0.44455  1.0000
  P   P34       1.0  0.77145  0.25603  0.43821  1.0000
  C   C1001     1.0  0.77886  0.26064  0.40054  1.0000
  C   C1002     1.0  0.76940  0.22591  0.44665  1.0000
  C   C1003     1.0  0.74812  0.21649  0.45239  1.0000
  C   C1004     1.0  0.74714  0.19349  0.46088  1.0000
  C   C1005     1.0  0.76733  0.17990  0.46422  1.0000
  C   C1006     1.0  0.78850  0.18918  0.45871  1.0000
  C   C1007     1.0  0.78953  0.21196  0.44953  1.0000
  C   C1008     1.0  0.78963  0.24315  0.38381  1.0000
  C   C1009     1.0  0.74441  0.27144  0.44535  1.0000
  C   C1010     1.0  0.73814  0.15214  0.26090  1.0000
  H   H797      1.0  0.92993  0.35529  0.36978  1.0000
  H   H798      1.0  0.54778  0.17747  0.05603  1.0000
  H   H799      1.0  0.75446  0.28602  0.48622  1.0000
  H   H800      1.0  0.65765  0.24361  0.07370  1.0000
  H   H801      1.0  0.94897  0.21918  0.47546  1.0000
  C   C1011     1.0  0.64093  0.09619  0.22607  1.0000
  H   H802      1.0  0.76651  0.16207  0.47072  1.0000
  C   C1012     1.0  0.74084  0.41778  0.02974  1.0000
  H   H803      1.0  0.78269  0.24876  0.49926  1.0000
  H   H804      1.0  0.80599  0.23446  0.34303  1.0000
  H   H805      1.0  0.79295  0.22611  0.39260  1.0000
  H   H806      1.0  0.71538  0.33130  0.03880  1.0000
  C   C1013     1.0  0.62988  0.03968  0.27556  1.0000
  C   C1014     1.0  0.93787  0.28378  0.23225  1.0000
  C   C1015     1.0  0.93003  0.26728  0.25152  1.0000
  H   H807      1.0  0.72881  0.26020  0.40577  1.0000
  C   C1016     1.0  0.90943  0.29710  0.27905  1.0000
  C   C1017     1.0  0.91787  0.31386  0.26039  1.0000
  C   C1018     1.0  0.93173  0.30699  0.23656  1.0000
  P   P35       1.0  0.91067  0.34392  0.26648  1.0000
  C   C1019     1.0  0.90404  0.34790  0.30461  1.0000
  C   C1020     1.0  0.93531  0.36015  0.25714  1.0000
  C   C1021     1.0  0.93256  0.38205  0.24453  1.0000
  H   H808      1.0  0.58353  0.07701  0.26691  1.0000
  H   H809      1.0  0.99065  0.32322  0.32452  1.0000
  C   C1022     1.0  0.61439  0.05845  0.28073  1.0000
  C   C1023     1.0  0.95756  0.35088  0.26249  1.0000
  C   C1024     1.0  0.92153  0.35121  0.32468  1.0000
  C   C1025     1.0  0.88642  0.35332  0.24452  1.0000
  C   C1026     1.0  0.87280  0.37290  0.25234  1.0000
  C   C1027     1.0  0.85393  0.38009  0.23552  1.0000
  C   C1028     1.0  0.84870  0.36800  0.21059  1.0000
  C   C1029     1.0  0.86240  0.34878  0.20239  1.0000
  C   C1030     1.0  0.88109  0.34135  0.21933  1.0000
  H   H810      1.0  0.94876  0.27857  0.21405  1.0000
  P   P36       1.0  0.68461  0.30255  0.00501  1.0000
  C   C1031     1.0  0.71133  0.41197  0.06596  1.0000
  H   H811      1.0  0.89811  0.30177  0.29703  1.0000
  H   H812      1.0  0.93788  0.31957  0.22138  1.0000
  H   H813      1.0  0.91566  0.38968  0.24020  1.0000
  C   C1032     1.0  0.98971  0.33587  0.48102  1.0000
  C   C1033     1.0  0.53522  0.18177  0.21936  1.0000
  C   C1034     1.0  0.56935  0.12993  0.14290  1.0000
  H   H814      1.0  0.96008  0.33409  0.27234  1.0000
  H   H815      1.0  0.93919  0.35192  0.31769  1.0000
  H   H816      1.0  0.87660  0.38249  0.27160  1.0000
  H   H817      1.0  0.84312  0.39487  0.24194  1.0000
  H   H818      1.0  0.83377  0.37320  0.19786  1.0000
  H   H819      1.0  0.85798  0.33921  0.18333  1.0000
  H   H820      1.0  0.89103  0.32610  0.21283  1.0000
  H   H821      1.0  0.80711  0.22560  0.28687  1.0000
  H   H822      1.0  0.62367  0.99805  0.30819  1.0000
  C   C1035     1.0  0.54551  0.21424  0.05852  1.0000
  C   C1036     1.0  0.50071  0.26599  0.10212  1.0000
  C   C1037     1.0  0.70203  0.29496  0.45581  1.0000
  H   H823      1.0  0.69160  0.28088  0.41518  1.0000
  H   H824      1.0  0.92993  0.25520  0.45695  1.0000
  C   C1038     1.0  0.67984  0.32244  0.03465  1.0000
  C   C1039     1.0  0.64299  0.10322  0.25479  1.0000
  C   C1040     1.0  0.69266  0.25733  0.28200  1.0000
  C   C1041     1.0  0.60589  0.12360  0.25199  1.0000
  H   H825      1.0  0.98867  0.39455  0.23687  1.0000
  C   C1042     1.0  0.73989  0.99661  0.35834  1.0000
  C   C1043     1.0  0.60696  0.02910  0.23440  1.0000
  C   C1044     1.0  0.69803  0.33368  0.04710  1.0000
  C   C1045     1.0  0.69403  0.34809  0.07094  1.0000
  C   C1046     1.0  0.67192  0.35146  0.08249  1.0000
  C   C1047     1.0  0.65367  0.34070  0.06990  1.0000
  H   H826      1.0  0.82750  0.14881  0.49406  1.0000
  H   H827      1.0  0.73225  0.22671  0.45046  1.0000
  C   C1048     1.0  0.77367  0.05638  0.46264  1.0000
  C   C1049     1.0  0.52852  0.08845  0.23564  1.0000
  H   H828      1.0  0.59605  0.17553  0.00789  1.0000
  C   C1050     1.0  0.95852  0.23458  0.47381  1.0000
  C   C1051     1.0  0.72648  0.27023  0.42539  1.0000
  C   C1052     1.0  0.64062  0.04756  0.38351  1.0000
  H   H829      1.0  0.61691  0.07016  0.29835  1.0000
  H   H830      1.0  0.94951  0.41127  0.22748  1.0000
  H   H831      1.0  0.84067  0.29928  0.45783  1.0000
  C   C1053     1.0  0.71898  0.05790  0.28151  1.0000
  C   C1054     1.0  0.79098  0.23394  0.28023  1.0000
  H   H832      1.0  0.54791  0.29783  0.09863  1.0000
  H   H833      1.0  0.96584  0.29306  0.30680  1.0000
  H   H834      1.0  0.68288  0.20675  0.24875  1.0000
  H   H835      1.0  0.81862  0.38873  0.00875  1.0000
  C   C1055     1.0  0.67800  0.23313  0.00540  1.0000
  H   H836      1.0  0.70820  0.35629  0.08091  1.0000
  H   H837      1.0  0.66904  0.36201  0.10160  1.0000
  H   H838      1.0  0.63659  0.34300  0.07918  1.0000
  C   C1056     1.0  0.53094  0.23429  0.01589  1.0000
  H   H839      1.0  0.73595  0.17155  0.30020  1.0000
  C   C1057     1.0  0.54998  0.19827  0.22863  1.0000
  C   C1058     1.0  0.81875  0.44189  0.02777  1.0000
  C   C1059     1.0  0.79382  0.21246  0.21218  1.0000
  C   C1060     1.0  0.77526  0.22133  0.19595  1.0000
  C   C1061     1.0  0.77717  0.24146  0.17947  1.0000
  C   C1062     1.0  0.79723  0.25366  0.18156  1.0000
  P   P37       1.0  0.75286  0.25343  0.15951  1.0000
  C   C1063     1.0  0.73450  0.23252  0.14461  1.0000
  C   C1064     1.0  0.73784  0.27290  0.18419  1.0000
  C   C1065     1.0  0.71608  0.26838  0.19547  1.0000
  C   C1066     1.0  0.70424  0.28458  0.21291  1.0000
  C   C1067     1.0  0.71440  0.30486  0.22034  1.0000
  C   C1068     1.0  0.73638  0.30906  0.21011  1.0000
  C   C1069     1.0  0.74806  0.29317  0.19208  1.0000
  C   C1070     1.0  0.71245  0.23955  0.13506  1.0000
  C   C1071     1.0  0.69832  0.22386  0.12254  1.0000
  C   C1072     1.0  0.70610  0.20105  0.11899  1.0000
  C   C1073     1.0  0.72834  0.19406  0.12733  1.0000
  C   C1074     1.0  0.74264  0.20980  0.13970  1.0000
  C   C1075     1.0  0.76127  0.26955  0.12799  1.0000
  C   C1076     1.0  0.78226  0.26467  0.11362  1.0000
  C   C1077     1.0  0.78830  0.27756  0.08922  1.0000
  C   C1078     1.0  0.77312  0.29482  0.07855  1.0000
  C   C1079     1.0  0.75172  0.29883  0.09183  1.0000
  C   C1080     1.0  0.74589  0.28640  0.11655  1.0000
  H   H840      1.0  0.79225  0.19683  0.22472  1.0000
  H   H841      1.0  0.75942  0.21256  0.19647  1.0000
  H   H842      1.0  0.79857  0.27016  0.17089  1.0000
  H   H843      1.0  0.70790  0.25269  0.19048  1.0000
  H   H844      1.0  0.68687  0.28175  0.21984  1.0000
  H   H845      1.0  0.70491  0.31778  0.23304  1.0000
  H   H846      1.0  0.74402  0.32508  0.21523  1.0000
  H   H847      1.0  0.76490  0.29699  0.18381  1.0000
  H   H848      1.0  0.70602  0.25722  0.13715  1.0000
  H   H849      1.0  0.68133  0.22957  0.11552  1.0000
  H   H850      1.0  0.69495  0.18893  0.10941  1.0000
  H   H851      1.0  0.73457  0.17650  0.12382  1.0000
  H   H852      1.0  0.76009  0.20428  0.14485  1.0000
  H   H853      1.0  0.79403  0.25111  0.12127  1.0000
  H   H854      1.0  0.80481  0.27433  0.07871  1.0000
  H   H855      1.0  0.77793  0.30532  0.06019  1.0000
  H   H856      1.0  0.73987  0.31213  0.08356  1.0000
  H   H857      1.0  0.72951  0.29025  0.12702  1.0000
  C   C1081     1.0  0.73382  0.17220  0.27687  1.0000
  C   C1082     1.0  0.79707  0.24778  0.35553  1.0000
  H   H858      1.0  0.76736  0.29654  0.40096  1.0000
  C   C1083     1.0  0.82770  0.28855  0.46688  1.0000
  H   H859      1.0  0.74352  0.13641  0.27205  1.0000
  C   C1084     1.0  0.68207  0.99390  0.30333  1.0000
  H   H860      1.0  0.99111  0.22744  0.32084  1.0000
  H   H861      1.0  0.66853  0.28655  0.28292  1.0000
  C   C1085     1.0  0.73668  0.44327  0.07096  1.0000
  C   C1086     1.0  0.73852  0.49268  0.17138  1.0000
  H   H862      1.0  0.63615  0.03782  0.40265  1.0000
  H   H863      1.0  0.73075  0.18600  0.46483  1.0000
  C   C1087     1.0  0.96006  0.27464  0.46080  1.0000
  H   H864      1.0  0.58503  0.20608  0.23622  1.0000
  C   C1088     1.0  0.68063  0.22445  0.25540  1.0000
  H   H865      1.0  0.54583  0.11846  0.24787  1.0000
  H   H866      1.0  0.54320  0.21542  0.23378  1.0000
  H   H867      1.0  0.86772  0.34293  0.29996  1.0000
  C   C1089     1.0  0.54456  0.10522  0.23165  1.0000
  H   H868      1.0  0.98013  0.26625  0.26878  1.0000
  C   C1090     1.0  0.67062  0.04704  0.46073  1.0000
  H   H869      1.0  0.80334  0.48239  0.15538  1.0000
  H   H870      1.0  0.72720  0.28386  0.03023  1.0000
  C   C1091     1.0  0.85074  0.21269  0.46879  1.0000
  C   C1092     1.0  0.87012  0.19892  0.46126  1.0000
  P   P38       1.0  0.74517  0.02056  0.47701  1.0000
  H   H871      1.0  0.69700  0.00398  0.30074  1.0000
  H   H872      1.0  0.76106  0.01293  0.41715  1.0000
  H   H873      1.0  0.85531  0.43466  0.02619  1.0000
  P   P39       1.0  0.77155  0.45265  0.03116  1.0000
  P   P40       1.0  0.72325  0.21912  0.28281  1.0000
  H   H874      1.0  0.77104  0.20603  0.29461  1.0000
  H   H875      1.0  0.64977  0.10222  0.36193  1.0000
  H   H876      1.0  0.80415  0.17860  0.46098  1.0000
  C   C1093     1.0  0.91573  0.27394  0.27475  1.0000
  H   H877      1.0  0.83117  0.25430  0.19926  1.0000
  H   H878      1.0  0.73362  0.26380  0.25554  1.0000
  H   H879      1.0  0.67717  0.99536  0.38570  1.0000
  C   C1094     1.0  0.79396  0.48818  0.06767  1.0000
  C   C1095     1.0  0.67055  0.26910  0.04472  1.0000
  H   H880      1.0  0.84570  0.22730  0.45523  1.0000
  H   H881      1.0  0.87973  0.20271  0.44170  1.0000
  H   H882      1.0  0.79455  0.08440  0.45061  1.0000
  C   C1096     1.0  0.65299  0.07256  0.33435  1.0000
  C   C1097     1.0  0.54399  0.15994  0.21146  1.0000
  H   H883      1.0  0.61998  0.09703  0.18810  1.0000
  C   C1098     1.0  0.64220  0.07132  0.38520  1.0000
  H   H884      1.0  0.74951  0.22847  0.33624  1.0000
  H   H885      1.0  0.60072  0.16756  0.22237  1.0000
  C   C1099     1.0  0.68735  0.04962  0.43922  1.0000
  H   H886      1.0  0.65322  0.05374  0.45727  1.0000
  H   H887      1.0  0.63996  0.26820  0.25230  1.0000
  C   C1100     1.0  0.66519  0.24682  0.05256  1.0000
  H   H888      1.0  0.60408  0.01773  0.21644  1.0000
  C   C1101     1.0  0.79870  0.42541  0.06849  1.0000
  C   C1102     1.0  0.79068  0.25564  0.26723  1.0000
  C   C1103     1.0  0.79802  0.43793  0.04234  1.0000
  H   H889      1.0  0.65471  0.08604  0.21581  1.0000
  C   C1104     1.0  0.59703  0.13845  0.10537  1.0000
  H   H890      1.0  0.64348  0.01792  0.35641  1.0000
  C   C1105     1.0  0.53973  0.23473  0.04398  1.0000
  H   H891      1.0  0.81996  0.40673  0.09934  1.0000
  H   H892      1.0  0.78323  0.42294  0.08108  1.0000
  H   H893      1.0  0.90975  0.26109  0.28965  1.0000
  H   H894      1.0  0.71003  0.43562  0.10169  1.0000
  H   H895      1.0  0.74245  0.45721  0.08385  1.0000
  C   C1106     1.0  0.71831  0.43096  0.08126  1.0000
  C   C1107     1.0  0.76016  0.36048  0.00548  1.0000
  H   H896      1.0  0.80051  0.27360  0.32235  1.0000
  C   C1108     1.0  0.62528  0.11654  0.26791  1.0000
  C   C1109     1.0  0.52661  0.07123  0.21499  1.0000
  C   C1110     1.0  0.66877  0.22887  0.03288  1.0000
  C   C1111     1.0  0.69744  0.23505  0.27153  1.0000
  C   C1112     1.0  0.67201  0.26926  0.27508  1.0000
  C   C1113     1.0  0.73428  0.21967  0.34206  1.0000
  C   C1114     1.0  0.81573  0.24482  0.19790  1.0000
  H   H897      1.0  0.74393  0.35240  0.00441  1.0000
  H   H898      1.0  0.54250  0.25094  0.05437  1.0000
  H   H899      1.0  0.82844  0.21734  0.22574  1.0000
  C   C1115     1.0  0.58236  0.17114  0.22229  1.0000
  C   C1116     1.0  0.56762  0.15433  0.21347  1.0000
  C   C1117     1.0  0.69901  0.02791  0.49160  1.0000
  H   H900      1.0  0.55182  0.12682  0.14901  1.0000
  C   C1118     1.0  0.64833  0.08379  0.36060  1.0000
  C   C1119     1.0  0.89376  0.35172  0.36417  1.0000
  H   H901      1.0  0.65847  0.09870  0.26676  1.0000
  C   C1120     1.0  0.77049  0.22294  0.28461  1.0000
  H   H902      1.0  0.55286  0.21457  0.08004  1.0000
  H   H903      1.0  0.80245  0.11744  0.48333  1.0000
  C   C1121     1.0  0.98168  0.23405  0.48141  1.0000
  H   H904      1.0  0.66748  0.28255  0.06052  1.0000
  H   H905      1.0  0.53965  0.05710  0.17466  1.0000
  H   H906      1.0  0.51702  0.18621  0.21739  1.0000
  H   H907      1.0  0.96917  0.34363  0.44324  1.0000
  C   C1122     1.0  0.69934  0.05042  0.29549  1.0000
  C   C1123     1.0  0.79387  0.26979  0.34379  1.0000
  C   C1124     1.0  0.76992  0.26628  0.25846  1.0000
  C   C1125     1.0  0.80220  0.38101  0.00779  1.0000
  C   C1126     1.0  0.74783  0.43699  0.04485  1.0000
  H   H908      1.0  0.69760  0.40198  0.07445  1.0000
  C   C1127     1.0  0.81038  0.28085  0.44922  1.0000
  H   H909      1.0  0.76985  0.28303  0.24816  1.0000
  H   H910      1.0  0.80654  0.26421  0.26380  1.0000
  C   C1128     1.0  0.65587  0.25892  0.25792  1.0000
  C   C1129     1.0  0.88142  0.34634  0.31476  1.0000
  C   C1130     1.0  0.72267  0.40532  0.04030  1.0000
  C   C1131     1.0  0.79507  0.25998  0.49004  1.0000
  H   H911      1.0  0.81899  0.45262  0.00860  1.0000
  H   H912      1.0  0.89190  0.16954  0.47278  1.0000
  C   C1132     1.0  0.74094  0.28462  0.47055  1.0000
  C   C1133     1.0  0.71981  0.29632  0.47572  1.0000
  C   C1134     1.0  0.67977  0.04599  0.27946  1.0000
  H   H913      1.0  0.52678  0.25034  0.00487  1.0000
  H   H914      1.0  0.99381  0.35585  0.25929  1.0000
  C   C1135     1.0  0.67935  0.27365  0.01686  1.0000
  C   C1136     1.0  0.98275  0.29490  0.29735  1.0000
  C   C1137     1.0  0.70537  0.28193  0.43064  1.0000
  C   C1138     1.0  0.71600  0.03080  0.47028  1.0000
  C   C1139     1.0  0.78281  0.28718  0.36007  1.0000
  C   C1140     1.0  0.71905  0.06167  0.25157  1.0000
  H   H915      1.0  0.68296  0.05818  0.41898  1.0000
  C   C1141     1.0  0.57473  0.13350  0.11362  1.0000
  H   H916      1.0  0.95163  0.29015  0.45218  1.0000
  H   H917      1.0  0.69971  0.06027  0.21217  1.0000
  C   C1142     1.0  0.70996  0.04153  0.44389  1.0000
  H   H918      1.0  0.62694  0.12203  0.29021  1.0000
  H   H919      1.0  0.73875  0.13678  0.21854  1.0000
  C   C1143     1.0  0.81416  0.22407  0.21288  1.0000
  C   C1144     1.0  0.87632  0.34836  0.34437  1.0000
  C   C1145     1.0  0.76414  0.03602  0.45355  1.0000
  C   C1146     1.0  0.76881  0.02808  0.42524  1.0000
  C   C1147     1.0  0.78294  0.04013  0.40657  1.0000
  C   C1148     1.0  0.79238  0.06029  0.41581  1.0000
  C   C1149     1.0  0.83990  0.41921  0.06363  1.0000
  H   H920      1.0  0.51396  0.05842  0.21794  1.0000
  H   H921      1.0  0.56852  0.08617  0.16786  1.0000
  H   H922      1.0  0.76566  0.49161  0.10677  1.0000
  C   C1150     1.0  0.65755  0.32645  0.04587  1.0000
  C   C1151     1.0  0.57355  0.19300  0.22999  1.0000
  C   C1152     1.0  0.64484  0.03631  0.35713  1.0000
  C   C1153     1.0  0.52203  0.27413  0.10927  1.0000
  H   H923      1.0  0.80817  0.47572  0.06948  1.0000
  H   H924      1.0  0.64751  0.22822  0.23536  1.0000
  H   H925      1.0  0.60111  0.14162  0.08273  1.0000
  C   C1154     1.0  0.94839  0.33420  0.47987  1.0000
  H   H926      1.0  0.72259  0.04384  0.42688  1.0000
  C   C1155     1.0  0.77523  0.28264  0.38830  1.0000
  C   C1156     1.0  0.53136  0.29162  0.09290  1.0000
  C   C1157     1.0  0.74944  0.23377  0.27654  1.0000
  H   H927      1.0  0.93499  0.24930  0.24859  1.0000
  H   H928      1.0  0.56153  0.13297  0.09733  1.0000
  H   H929      1.0  0.78589  0.03423  0.38451  1.0000
  H   H930      1.0  0.80281  0.06992  0.40098  1.0000
  H   H931      1.0  0.63082  0.14545  0.12011  1.0000
  H   H932      1.0  0.62161  0.13934  0.17174  1.0000
  H   H933      1.0  0.74274  0.21904  0.38745  1.0000
  C   C1158     1.0  0.73028  0.21476  0.37137  1.0000
  C   C1159     1.0  0.72730  0.19280  0.26270  1.0000
  C   C1160     1.0  0.72540  0.19310  0.23234  1.0000
  C   C1161     1.0  0.72924  0.17291  0.21647  1.0000
  C   C1162     1.0  0.71881  0.21300  0.32086  1.0000
  C   C1163     1.0  0.69910  0.20186  0.32954  1.0000
  C   C1164     1.0  0.69489  0.19748  0.35891  1.0000
  C   C1165     1.0  0.71053  0.20380  0.37983  1.0000
  C   C1166     1.0  0.54257  0.19327  0.04494  1.0000
  C   C1167     1.0  0.74937  0.25536  0.26291  1.0000
  H   H934      1.0  0.70482  0.26540  0.29574  1.0000
  H   H935      1.0  0.72068  0.20891  0.22096  1.0000
  H   H936      1.0  0.72709  0.17314  0.19315  1.0000
  H   H937      1.0  0.68708  0.19630  0.31357  1.0000
  H   H938      1.0  0.67991  0.18831  0.36527  1.0000
  H   H939      1.0  0.70769  0.19949  0.40246  1.0000
  H   H940      1.0  0.78085  0.30434  0.35104  1.0000
  C   C1168     1.0  0.73567  0.15243  0.23076  1.0000
  H   H941      1.0  0.65799  0.08256  0.31569  1.0000
  H   H942      1.0  0.69963  0.04760  0.31875  1.0000
  C   C1169     1.0  0.55721  0.08720  0.18664  1.0000
  C   C1170     1.0  0.55855  0.10509  0.20669  1.0000
  C   C1171     1.0  0.94775  0.25485  0.46343  1.0000
  P   P41       1.0  0.57932  0.12667  0.20189  1.0000
  C   C1172     1.0  0.60405  0.11721  0.22280  1.0000
  C   C1173     1.0  0.58643  0.13083  0.16407  1.0000
  C   C1174     1.0  0.60857  0.13678  0.15569  1.0000
  C   C1175     1.0  0.61386  0.14038  0.12642  1.0000
  C   C1176     1.0  0.97383  0.38496  0.24254  1.0000
  C   C1177     1.0  0.83804  0.20774  0.49374  1.0000
  H   H943      1.0  0.57683  0.05083  0.22608  1.0000
  C   C1178     1.0  0.98320  0.27424  0.46855  1.0000
  C   C1179     1.0  0.59534  0.06243  0.26289  1.0000
  C   C1180     1.0  0.68005  0.04950  0.24927  1.0000
  C   C1181     1.0  0.65089  0.04876  0.33225  1.0000
  C   C1182     1.0  0.69956  0.05752  0.23544  1.0000
  H   H944      1.0  0.66381  0.21178  0.03870  1.0000
  H   H945      1.0  0.93236  0.33594  0.46812  1.0000
  C   C1183     1.0  0.81958  0.41619  0.07906  1.0000
  C   C1184     1.0  0.77106  0.48080  0.04747  1.0000
  H   H946      1.0  0.73425  0.06062  0.29401  1.0000
  H   H947      1.0  0.66536  0.04598  0.23628  1.0000
  H   H948      1.0  0.71722  0.30650  0.49519  1.0000
  H   H949      1.0  0.53235  0.14773  0.20324  1.0000
  H   H950      1.0  0.76779  0.28470  0.01466  1.0000
  C   C1185     1.0  0.97672  0.36320  0.25516  1.0000
  C   C1186     1.0  0.51917  0.30131  0.06955  1.0000
  C   C1187     1.0  0.87692  0.18023  0.47876  1.0000
  H   H951      1.0  0.74976  0.41202  0.01014  1.0000
  H   H952      1.0  0.98999  0.21802  0.48857  1.0000
  C   C1188     1.0  0.78518  0.48519  0.15977  1.0000
  C   C1189     1.0  0.65980  0.00419  0.30316  1.0000
  H   H953      1.0  0.64329  0.31793  0.03660  1.0000
  C   C1190     1.0  0.96910  0.33845  0.46587  1.0000
  C   C1191     1.0  0.62605  0.02509  0.25215  1.0000
  H   H954      1.0  0.68566  0.30404  0.45986  1.0000
  H   H955      1.0  0.99256  0.28957  0.46555  1.0000
  C   C1192     1.0  0.61446  0.23824  0.00765  1.0000
  C   C1193     1.0  0.67644  0.03609  0.48688  1.0000
  H   H956      1.0  0.61990  0.25569  0.00776  1.0000
  H   H957      1.0  0.77015  0.06328  0.48397  1.0000
  H   H958      1.0  0.73252  0.49293  0.03283  1.0000
  H   H959      1.0  0.49638  0.22619  0.07321  1.0000
  C   C1194     1.0  0.60110  0.19309  0.00788  1.0000
  H   H960      1.0  0.75739  0.99686  0.35046  1.0000
  H   H961      1.0  0.82312  0.21859  0.49920  1.0000
  C   C1195     1.0  0.73148  0.29211  0.00990  1.0000
  C   C1196     1.0  0.53391  0.19274  0.01677  1.0000
  C   C1197     1.0  0.82860  0.28215  0.49610  1.0000
  H   H962      1.0  0.53201  0.17633  0.00652  1.0000
  C   C1198     1.0  0.99198  0.24190  0.33526  1.0000
  H   H963      1.0  0.71787  0.39008  0.02901  1.0000
  C   C1199     1.0  0.49780  0.29324  0.06232  1.0000
  C   C1200     1.0  0.99082  0.27977  0.27580  1.0000
  H   H964      1.0  0.65269  0.48991  0.01131  1.0000
  C   C1201     1.0  0.69477  0.99565  0.37825  1.0000
  C   C1202     1.0  0.49447  0.23987  0.17853  1.0000
  H   H965      1.0  0.49473  0.25677  0.18796  1.0000
  C   C1203     1.0  0.52816  0.21328  0.00195  1.0000
  Fe  Fe81      1.0  0.74489  0.36536  0.87724  1.0000
  S   S161      1.0  0.77980  0.34913  0.88547  1.0000
  S   S162      1.0  0.71524  0.34478  0.89369  1.0000
  Fe  Fe82      1.0  0.76512  0.41093  0.85771  1.0000
  S   S163      1.0  0.80150  0.39706  0.86406  1.0000
  S   S164      1.0  0.75389  0.44768  0.84341  1.0000
  Fe  Fe83      1.0  0.79027  0.36467  0.84267  1.0000
  S   S165      1.0  0.81213  0.33812  0.81629  1.0000
  Fe  Fe84      1.0  0.78786  0.38237  0.90585  1.0000
  S   S166      1.0  0.80662  0.38536  0.94853  1.0000
  S   S167      1.0  0.75450  0.37934  0.83334  1.0000
  S   S168      1.0  0.75230  0.39788  0.90064  1.0000
  Fe  Fe85      1.0  0.91494  0.26512  0.66188  1.0000
  S   S169      1.0  0.89358  0.29012  0.63454  1.0000
  S   S170      1.0  0.95177  0.27721  0.66534  1.0000
  Fe  Fe86      1.0  0.87292  0.23547  0.67212  1.0000
  S   S171      1.0  0.84972  0.25884  0.64570  1.0000
  S   S172      1.0  0.85831  0.20355  0.69279  1.0000
  Fe  Fe87      1.0  0.87940  0.25922  0.61414  1.0000
  S   S173      1.0  0.87468  0.24858  0.56734  1.0000
  Fe  Fe88      1.0  0.86611  0.28739  0.66908  1.0000
  S   S174      1.0  0.84543  0.31915  0.68533  1.0000
  S   S175      1.0  0.90203  0.23422  0.63950  1.0000
  S   S176      1.0  0.88792  0.26418  0.69753  1.0000
  Fe  Fe89      1.0  0.63114  0.25446  0.84409  1.0000
  S   S177      1.0  0.64768  0.22715  0.87227  1.0000
  S   S178      1.0  0.65197  0.28098  0.82097  1.0000
  Fe  Fe90      1.0  0.58330  0.23408  0.84977  1.0000
  S   S179      1.0  0.59685  0.20496  0.87815  1.0000
  S   S180      1.0  0.54664  0.24328  0.83476  1.0000
  Fe  Fe91      1.0  0.61631  0.23188  0.90100  1.0000
  S   S181      1.0  0.61903  0.24165  0.94865  1.0000
  Fe  Fe92      1.0  0.62717  0.20283  0.84658  1.0000
  S   S182      1.0  0.64513  0.16966  0.82975  1.0000
  S   S183      1.0  0.60119  0.26113  0.87415  1.0000
  S   S184      1.0  0.61214  0.22997  0.81685  1.0000
  Fe  Fe93      1.0  0.73566  0.08164  0.66643  1.0000
  S   S185      1.0  0.69850  0.09049  0.65688  1.0000
  S   S186      1.0  0.75013  0.04678  0.68292  1.0000
  Fe  Fe94      1.0  0.75119  0.12825  0.64401  1.0000
  S   S187      1.0  0.71512  0.13912  0.63160  1.0000
  S   S188      1.0  0.77651  0.15495  0.63064  1.0000
  Fe  Fe95      1.0  0.70485  0.12545  0.67552  1.0000
  S   S189      1.0  0.68094  0.15189  0.69939  1.0000
  Fe  Fe96      1.0  0.71225  0.10368  0.61430  1.0000
  S   S190      1.0  0.69686  0.09237  0.57173  1.0000
  S   S191      1.0  0.74123  0.11576  0.68831  1.0000
  S   S192      1.0  0.74904  0.09360  0.62322  1.0000
  C   C1204     1.0  0.67257  0.15677  0.73629  1.0000
  C   C1205     1.0  0.66115  0.17780  0.74358  1.0000
  C   C1206     1.0  0.65293  0.18212  0.77204  1.0000
  C   C1207     1.0  0.65593  0.16537  0.79371  1.0000
  C   C1208     1.0  0.66747  0.14437  0.78648  1.0000
  C   C1209     1.0  0.67570  0.14006  0.75797  1.0000
  H   H966      1.0  0.65823  0.19068  0.72690  1.0000
  H   H967      1.0  0.64405  0.19831  0.77713  1.0000
  H   H968      1.0  0.66984  0.13124  0.80300  1.0000
  H   H969      1.0  0.68406  0.12366  0.75264  1.0000
  C   C1210     1.0  0.83493  0.19044  0.67616  1.0000
  C   C1211     1.0  0.82686  0.16997  0.68778  1.0000
  C   C1212     1.0  0.80831  0.15922  0.67500  1.0000
  C   C1213     1.0  0.79804  0.16865  0.65002  1.0000
  C   C1214     1.0  0.80612  0.18906  0.63849  1.0000
  C   C1215     1.0  0.82438  0.19991  0.65143  1.0000
  H   H970      1.0  0.83525  0.16217  0.70644  1.0000
  H   H971      1.0  0.80241  0.14335  0.68390  1.0000
  H   H972      1.0  0.79837  0.19634  0.61910  1.0000
  H   H973      1.0  0.83057  0.21531  0.64180  1.0000
  C   C1216     1.0  0.69890  0.32636  0.87272  1.0000
  C   C1217     1.0  0.69815  0.32788  0.84242  1.0000
  C   C1218     1.0  0.68371  0.31385  0.82683  1.0000
  C   C1219     1.0  0.67028  0.29794  0.84127  1.0000
  C   C1220     1.0  0.67147  0.29606  0.87148  1.0000
  C   C1221     1.0  0.68561  0.31030  0.88709  1.0000
  H   H974      1.0  0.70826  0.34020  0.83110  1.0000
  H   H975      1.0  0.68263  0.31558  0.80354  1.0000
  H   H976      1.0  0.66123  0.28388  0.88286  1.0000
  H   H977      1.0  0.68611  0.30893  0.91047  1.0000
  C   C1222     1.0  0.82083  0.33333  0.77954  1.0000
  C   C1223     1.0  0.83219  0.31225  0.77233  1.0000
  C   C1224     1.0  0.83971  0.30759  0.74366  1.0000
  C   C1225     1.0  0.83572  0.32389  0.72168  1.0000
  C   C1226     1.0  0.82425  0.34493  0.72883  1.0000
  C   C1227     1.0  0.81698  0.34970  0.75759  1.0000
  H   H978      1.0  0.83533  0.29947  0.78910  1.0000
  H   H979      1.0  0.84875  0.29147  0.73865  1.0000
  H   H980      1.0  0.82124  0.35774  0.71206  1.0000
  H   H981      1.0  0.80865  0.36613  0.76281  1.0000
  C   C1228     1.0  0.71887  0.12345  0.53709  1.0000
  C   C1229     1.0  0.70612  0.10386  0.53819  1.0000
  C   C1230     1.0  0.84733  0.17446  0.57235  1.0000
  H   H982      1.0  0.72299  0.13197  0.55701  1.0000
  C   C1231     1.0  0.76013  0.00821  0.53322  1.0000
  H   H983      1.0  0.81363  0.19759  0.84193  1.0000
  C   C1232     1.0  0.61226  0.22688  0.98109  1.0000
  H   H984      1.0  0.66788  0.05074  0.58356  1.0000
  H   H985      1.0  0.97539  0.27979  0.60671  1.0000
  H   H986      1.0  0.60346  0.19541  0.96097  1.0000
  H   H987      1.0  0.82571  0.14983  0.59315  1.0000
  C   C1233     1.0  0.88190  0.26270  0.53473  1.0000
  C   C1234     1.0  0.88736  0.28576  0.53359  1.0000
  H   H988      1.0  0.94345  0.28404  0.52258  1.0000
  H   H989      1.0  0.88803  0.29549  0.55345  1.0000
  C   C1235     1.0  0.77104  0.36722  0.97965  1.0000
  C   C1236     1.0  0.79220  0.37735  0.98068  1.0000
  C   C1237     1.0  0.54913  0.24423  0.94971  1.0000
  H   H990      1.0  0.76317  0.36430  0.95891  1.0000
  H   H991      1.0  0.87212  0.19905  0.55933  1.0000
  H   H992      1.0  0.77085  0.99899  0.57665  1.0000
  C   C1238     1.0  0.98049  0.26516  0.66569  1.0000
  H   H993      1.0  0.93007  0.24540  0.52935  1.0000
  H   H994      1.0  0.97202  0.23034  0.67441  1.0000
  C   C1239     1.0  0.50616  0.20244  0.78830  1.0000
  C   C1240     1.0  0.51786  0.21211  0.86046  1.0000
  C   C1241     1.0  0.51975  0.23320  0.84627  1.0000
  C   C1242     1.0  0.96896  0.32406  0.52417  1.0000
  H   H995      1.0  0.53317  0.20211  0.86656  1.0000
  C   C1243     1.0  0.65019  0.29637  0.96389  1.0000
  C   C1244     1.0  0.66492  0.33437  0.96618  1.0000
  C   C1245     1.0  0.76399  0.47475  0.85396  1.0000
  C   C1246     1.0  0.78451  0.47668  0.86902  1.0000
  C   C1247     1.0  0.95797  0.25033  0.59317  1.0000
  H   H996      1.0  0.79444  0.46133  0.87532  1.0000
  C   C1248     1.0  0.71683  0.01735  0.66477  1.0000
  C   C1249     1.0  0.73864  0.01949  0.67651  1.0000
  C   C1250     1.0  0.96994  0.28176  0.75211  1.0000
  H   H997      1.0  0.70668  0.03258  0.65860  1.0000
  H   H998      1.0  0.75522  0.07413  0.75051  1.0000
  C   C1251     1.0  0.74576  0.28946  0.86310  1.0000
  C   C1252     1.0  0.73901  0.26844  0.87396  1.0000
  C   C1253     1.0  0.73532  0.25048  0.85493  1.0000
  C   C1254     1.0  0.73800  0.25369  0.82500  1.0000
  C   C1255     1.0  0.74394  0.27505  0.81381  1.0000
  C   C1256     1.0  0.74830  0.29278  0.83319  1.0000
  P   P42       1.0  0.74521  0.27961  0.77493  1.0000
  C   C1257     1.0  0.74035  0.30990  0.76756  1.0000
  C   C1258     1.0  0.77277  0.26992  0.76007  1.0000
  C   C1259     1.0  0.78053  0.27905  0.73364  1.0000
  C   C1260     1.0  0.80131  0.27088  0.72126  1.0000
  C   C1261     1.0  0.81453  0.25356  0.73514  1.0000
  C   C1262     1.0  0.80708  0.24460  0.76159  1.0000
  C   C1263     1.0  0.78622  0.25263  0.77399  1.0000
  C   C1264     1.0  0.75839  0.32467  0.77070  1.0000
  C   C1265     1.0  0.75455  0.34830  0.76698  1.0000
  C   C1266     1.0  0.73272  0.35742  0.75999  1.0000
  C   C1267     1.0  0.71472  0.34283  0.75643  1.0000
  C   C1268     1.0  0.71851  0.31915  0.76010  1.0000
  C   C1269     1.0  0.72281  0.26384  0.75861  1.0000
  C   C1270     1.0  0.72684  0.25157  0.73278  1.0000
  C   C1271     1.0  0.70959  0.23878  0.72100  1.0000
  C   C1272     1.0  0.68821  0.23825  0.73479  1.0000
  C   C1273     1.0  0.68389  0.25081  0.76013  1.0000
  C   C1274     1.0  0.70116  0.26340  0.77213  1.0000
  H   H999      1.0  0.74839  0.30351  0.87781  1.0000
  H   H1000     1.0  0.73640  0.26624  0.89711  1.0000
  H   H1001     1.0  0.72990  0.23423  0.86332  1.0000
  H   H1002     1.0  0.73483  0.23969  0.81056  1.0000
  H   H1003     1.0  0.75310  0.30942  0.82553  1.0000
  H   H1004     1.0  0.77054  0.29250  0.72254  1.0000
  H   H1005     1.0  0.80744  0.27829  0.70114  1.0000
  H   H1006     1.0  0.83069  0.24730  0.72552  1.0000
  H   H1007     1.0  0.81753  0.23146  0.77247  1.0000
  H   H1008     1.0  0.78070  0.24535  0.79438  1.0000
  H   H1009     1.0  0.77530  0.31799  0.77693  1.0000
  H   H1010     1.0  0.76842  0.35960  0.77031  1.0000
  H   H1011     1.0  0.72972  0.37580  0.75774  1.0000
  H   H1012     1.0  0.69771  0.34991  0.75138  1.0000
  H   H1013     1.0  0.70421  0.30831  0.75766  1.0000
  H   H1014     1.0  0.74328  0.25164  0.72178  1.0000
  H   H1015     1.0  0.71284  0.22902  0.70135  1.0000
  H   H1016     1.0  0.67509  0.22793  0.72599  1.0000
  H   H1017     1.0  0.66730  0.25052  0.77092  1.0000
  H   H1018     1.0  0.69761  0.27273  0.79207  1.0000
  H   H1019     1.0  0.73586  0.47395  0.99362  1.0000
  H   H1020     1.0  0.92085  0.38597  0.57988  1.0000
  H   H1021     1.0  0.66359  0.03433  0.50377  1.0000
  H   H1022     1.0  0.80891  0.25259  0.59842  1.0000
  H   H1023     1.0  0.56125  0.19264  0.82553  1.0000
  C   C1275     1.0  0.92595  0.36900  0.58784  1.0000
  C   C1276     1.0  0.76539  0.20996  0.69490  1.0000
  C   C1277     1.0  0.74970  0.20050  0.67632  1.0000
  C   C1278     1.0  0.73579  0.18334  0.68648  1.0000
  C   C1279     1.0  0.73832  0.17482  0.71473  1.0000
  C   C1280     1.0  0.75482  0.18342  0.73309  1.0000
  C   C1281     1.0  0.76760  0.20182  0.72339  1.0000
  P   P43       1.0  0.75957  0.17055  0.76847  1.0000
  C   C1282     1.0  0.75872  0.13974  0.76401  1.0000
  C   C1283     1.0  0.78740  0.17788  0.78175  1.0000
  C   C1284     1.0  0.79009  0.18575  0.81022  1.0000
  C   C1285     1.0  0.81168  0.19156  0.81993  1.0000
  C   C1286     1.0  0.83071  0.18972  0.80128  1.0000
  C   C1287     1.0  0.82812  0.18235  0.77277  1.0000
  C   C1288     1.0  0.80660  0.17646  0.76312  1.0000
  C   C1289     1.0  0.73793  0.12892  0.76807  1.0000
  C   C1290     1.0  0.73679  0.10533  0.76370  1.0000
  C   C1291     1.0  0.75631  0.09230  0.75489  1.0000
  C   C1292     1.0  0.77702  0.10286  0.75062  1.0000
  C   C1293     1.0  0.77826  0.12645  0.75511  1.0000
  C   C1294     1.0  0.73696  0.17943  0.79367  1.0000
  C   C1295     1.0  0.72051  0.19682  0.78638  1.0000
  C   C1296     1.0  0.70246  0.20258  0.80563  1.0000
  C   C1297     1.0  0.70071  0.19107  0.83213  1.0000
  C   C1298     1.0  0.71694  0.17370  0.83950  1.0000
  C   C1299     1.0  0.73499  0.16785  0.82035  1.0000
  H   H1024     1.0  0.77626  0.22321  0.68702  1.0000
  H   H1025     1.0  0.74847  0.20621  0.65394  1.0000
  H   H1026     1.0  0.72338  0.17620  0.67226  1.0000
  H   H1027     1.0  0.72768  0.16118  0.72192  1.0000
  H   H1028     1.0  0.77977  0.20952  0.73735  1.0000
  H   H1029     1.0  0.77565  0.18763  0.82501  1.0000
  C   C1300     1.0  0.66505  0.31166  0.97645  1.0000
  C   C1301     1.0  0.94511  0.24059  0.57151  1.0000
  H   H1030     1.0  0.84271  0.18145  0.75793  1.0000
  H   H1031     1.0  0.80478  0.17116  0.74085  1.0000
  H   H1032     1.0  0.72238  0.13874  0.77399  1.0000
  H   H1033     1.0  0.72060  0.09723  0.76635  1.0000
  H   H1034     1.0  0.79199  0.09278  0.74309  1.0000
  H   H1035     1.0  0.79439  0.13410  0.75100  1.0000
  H   H1036     1.0  0.72130  0.20562  0.76573  1.0000
  H   H1037     1.0  0.68939  0.21555  0.79985  1.0000
  H   H1038     1.0  0.68635  0.19519  0.84662  1.0000
  H   H1039     1.0  0.71514  0.16442  0.85976  1.0000
  H   H1040     1.0  0.74716  0.15398  0.82606  1.0000
  H   H1041     1.0  0.74776  0.32247  0.93795  1.0000
  C   C1302     1.0  0.74846  0.05143  0.55638  1.0000
  H   H1042     1.0  0.95911  0.27386  0.88902  1.0000
  C   C1303     1.0  0.81044  0.15802  0.53475  1.0000
  H   H1043     1.0  0.83012  0.48679  0.81766  1.0000
  C   C1304     1.0  0.66182  0.99550  0.56259  1.0000
  H   H1044     1.0  0.72965  0.47403  0.94108  1.0000
  C   C1305     1.0  0.72583  0.13238  0.51015  1.0000
  H   H1045     1.0  0.79620  0.42932  0.98166  1.0000
  H   H1046     1.0  0.69056  0.99420  0.65388  1.0000
  H   H1047     1.0  0.64924  0.27893  0.97160  1.0000
  H   H1048     1.0  0.95137  0.31275  0.81007  1.0000
  C   C1306     1.0  0.76008  0.45316  0.93179  1.0000
  C   C1307     1.0  0.93912  0.32525  0.60851  1.0000
  C   C1308     1.0  0.55832  0.16569  0.92187  1.0000
  H   H1049     1.0  0.49930  0.17157  0.72817  1.0000
  H   H1050     1.0  0.51171  0.27379  0.88993  1.0000
  C   C1309     1.0  0.54980  0.18574  0.93547  1.0000
  C   C1310     1.0  0.70043  0.09325  0.51208  1.0000
  H   H1051     1.0  0.52309  0.20400  0.79716  1.0000
  H   H1052     1.0  0.77129  0.10783  0.51769  1.0000
  H   H1053     1.0  0.70837  0.03688  0.58489  1.0000
  C   C1311     1.0  0.80271  0.24040  0.58307  1.0000
  H   H1054     1.0  0.77823  0.30453  0.96895  1.0000
  H   H1055     1.0  0.63781  0.02421  0.57007  1.0000
  H   H1056     1.0  0.58520  0.15989  0.84518  1.0000
  H   H1057     1.0  0.90522  0.37216  0.62678  1.0000
  C   C1312     1.0  0.91720  0.36129  0.61429  1.0000
  C   C1313     1.0  0.77868  0.13448  0.54778  1.0000
  C   C1314     1.0  0.90000  0.22437  0.75760  1.0000
  C   C1315     1.0  0.90944  0.21296  0.73338  1.0000
  C   C1316     1.0  0.92874  0.22123  0.71944  1.0000
  C   C1317     1.0  0.93874  0.24079  0.72985  1.0000
  C   C1318     1.0  0.92982  0.25193  0.75471  1.0000
  C   C1319     1.0  0.91006  0.24387  0.76817  1.0000
  P   P44       1.0  0.94185  0.27781  0.76764  1.0000
  C   C1320     1.0  0.92139  0.30085  0.75833  1.0000
  C   C1321     1.0  0.94671  0.27636  0.80622  1.0000
  C   C1322     1.0  0.94748  0.25527  0.82107  1.0000
  C   C1323     1.0  0.49663  0.21983  0.77060  1.0000
  C   C1324     1.0  0.50891  0.19754  0.69765  1.0000
  C   C1325     1.0  0.95572  0.27454  0.86594  1.0000
  C   C1326     1.0  0.95119  0.29642  0.82135  1.0000
  C   C1327     1.0  0.91933  0.30809  0.72934  1.0000
  C   C1328     1.0  0.90294  0.32528  0.72163  1.0000
  C   C1329     1.0  0.88848  0.33533  0.74281  1.0000
  C   C1330     1.0  0.88997  0.32780  0.77159  1.0000
  C   C1331     1.0  0.90621  0.31046  0.77933  1.0000
  H   H1058     1.0  0.73544  0.14774  0.50957  1.0000
  H   H1059     1.0  0.71963  0.99701  0.57142  1.0000
  H   H1060     1.0  0.62676  0.33094  0.91116  1.0000
  P   P45       1.0  0.51673  0.21279  0.96565  1.0000
  C   C1332     1.0  0.78230  0.12171  0.52247  1.0000
  C   C1333     1.0  0.76039  0.30363  0.97539  1.0000
  H   H1061     1.0  0.88453  0.21841  0.76766  1.0000
  H   H1062     1.0  0.90138  0.19812  0.72485  1.0000
  H   H1063     1.0  0.93554  0.21288  0.70003  1.0000
  H   H1064     1.0  0.95301  0.24748  0.71800  1.0000
  H   H1065     1.0  0.90224  0.25291  0.78650  1.0000
  C   C1334     1.0  0.49956  0.24594  0.83861  1.0000
  H   H1066     1.0  0.84201  0.28813  0.50976  1.0000
  C   C1335     1.0  0.70772  0.99551  0.66210  1.0000
  H   H1067     1.0  0.68026  0.21931  0.98989  1.0000
  C   C1336     1.0  0.76792  0.45370  0.99200  1.0000
  H   H1068     1.0  0.93013  0.30019  0.71262  1.0000
  H   H1069     1.0  0.90097  0.33038  0.69912  1.0000
  H   H1070     1.0  0.87552  0.34838  0.73671  1.0000
  H   H1071     1.0  0.87801  0.33498  0.78770  1.0000
  H   H1072     1.0  0.90647  0.30436  0.80154  1.0000
  C   C1337     1.0  0.98652  0.26346  0.75223  1.0000
  C   C1338     1.0  0.79857  0.47865  0.79739  1.0000
  C   C1339     1.0  0.51428  0.16761  0.94642  1.0000
  H   H1073     1.0  0.74350  0.06809  0.56542  1.0000
  H   H1074     1.0  0.80529  0.48743  0.98388  1.0000
  C   C1340     1.0  0.57091  0.18125  0.81090  1.0000
  C   C1341     1.0  0.58436  0.16283  0.82198  1.0000
  C   C1342     1.0  0.59754  0.14873  0.80319  1.0000
  C   C1343     1.0  0.59743  0.15305  0.77332  1.0000
  C   C1344     1.0  0.58366  0.17130  0.76195  1.0000
  C   C1345     1.0  0.57055  0.18549  0.78101  1.0000
  P   P46       1.0  0.58347  0.17737  0.72346  1.0000
  C   C1346     1.0  0.60204  0.20055  0.71545  1.0000
  C   C1347     1.0  0.59324  0.15196  0.70368  1.0000
  C   C1348     1.0  0.61683  0.14657  0.70053  1.0000
  C   C1349     1.0  0.62470  0.12693  0.68556  1.0000
  C   C1350     1.0  0.60907  0.11241  0.67362  1.0000
  C   C1351     1.0  0.58552  0.11754  0.67669  1.0000
  C   C1352     1.0  0.57760  0.13722  0.69169  1.0000
  C   C1353     1.0  0.61226  0.20239  0.68785  1.0000
  C   C1354     1.0  0.62642  0.22043  0.68151  1.0000
  C   C1355     1.0  0.63026  0.23692  0.70254  1.0000
  C   C1356     1.0  0.62013  0.23525  0.73002  1.0000
  C   C1357     1.0  0.60605  0.21719  0.73643  1.0000
  C   C1358     1.0  0.55432  0.18543  0.71332  1.0000
  C   C1359     1.0  0.53596  0.17420  0.72605  1.0000
  C   C1360     1.0  0.51338  0.18020  0.71813  1.0000
  H   H1075     1.0  0.94500  0.23943  0.80970  1.0000
  C   C1361     1.0  0.52707  0.20883  0.68493  1.0000
  C   C1362     1.0  0.54971  0.20277  0.69265  1.0000
  H   H1076     1.0  0.60874  0.13507  0.81195  1.0000
  H   H1077     1.0  0.60847  0.14236  0.75945  1.0000
  H   H1078     1.0  0.56049  0.20019  0.77287  1.0000
  H   H1079     1.0  0.62922  0.15752  0.70973  1.0000
  H   H1080     1.0  0.64300  0.12298  0.68330  1.0000
  H   H1081     1.0  0.61527  0.09718  0.66205  1.0000
  H   H1082     1.0  0.57343  0.10621  0.66749  1.0000
  H   H1083     1.0  0.55933  0.14075  0.69384  1.0000
  H   H1084     1.0  0.60942  0.18985  0.67121  1.0000
  H   H1085     1.0  0.63450  0.22155  0.66031  1.0000
  H   H1086     1.0  0.64120  0.25092  0.69764  1.0000
  H   H1087     1.0  0.62321  0.24792  0.74648  1.0000
  H   H1088     1.0  0.59844  0.21632  0.75783  1.0000
  H   H1089     1.0  0.53912  0.16078  0.74207  1.0000
  C   C1363     1.0  0.95550  0.29552  0.85115  1.0000
  C   C1364     1.0  0.74461  0.04714  0.52708  1.0000
  H   H1090     1.0  0.86963  0.16060  0.51703  1.0000
  H   H1091     1.0  0.56352  0.21170  0.68251  1.0000
  C   C1365     1.0  0.72024  0.31326  0.96649  1.0000
  C   C1366     1.0  0.74867  0.46557  0.98000  1.0000
  C   C1367     1.0  0.54480  0.14668  0.92030  1.0000
  C   C1368     1.0  0.94037  0.25280  0.54596  1.0000
  C   C1369     1.0  0.94798  0.27497  0.54230  1.0000
  C   C1370     1.0  0.74484  0.46538  0.95010  1.0000
  C   C1371     1.0  0.69550  0.02531  0.57821  1.0000
  H   H1092     1.0  0.96132  0.24110  0.61329  1.0000
  H   H1093     1.0  0.95877  0.31109  0.86275  1.0000
  H   H1094     1.0  0.93840  0.22379  0.57475  1.0000
  H   H1095     1.0  0.98236  0.24680  0.76061  1.0000
  H   H1096     1.0  0.50083  0.26219  0.82748  1.0000
  C   C1372     1.0  0.75151  0.99938  0.68439  1.0000
  H   H1097     1.0  0.94834  0.36144  0.55170  1.0000
  C   C1373     1.0  0.71415  0.30263  0.99272  1.0000
  H   H1098     1.0  0.55144  0.13118  0.90970  1.0000
  H   H1099     1.0  0.83467  0.22089  0.58166  1.0000
  H   H1100     1.0  0.76837  0.00078  0.69353  1.0000
  C   C1374     1.0  0.98571  0.24189  0.67117  1.0000
  C   C1375     1.0  0.75810  0.03415  0.57419  1.0000
  C   C1376     1.0  0.81631  0.49295  0.80368  1.0000
  C   C1377     1.0  0.52754  0.18701  0.94748  1.0000
  C   C1378     1.0  0.78051  0.48661  0.77979  1.0000
  C   C1379     1.0  0.67253  0.03313  0.57767  1.0000
  H   H1101     1.0  0.85038  0.14353  0.63536  1.0000
  C   C1380     1.0  0.96585  0.27238  0.58943  1.0000
  H   H1102     1.0  0.88565  0.16501  0.64047  1.0000
  H   H1103     1.0  0.76513  0.13036  0.56292  1.0000
  C   C1381     1.0  0.97605  0.30331  0.74176  1.0000
  C   C1382     1.0  0.55773  0.26195  0.93299  1.0000
  C   C1383     1.0  0.51324  0.24811  0.92377  1.0000
  H   H1104     1.0  0.50638  0.23470  0.76565  1.0000
  C   C1384     1.0  0.52281  0.14762  0.93265  1.0000
  H   H1105     1.0  0.81355  0.26255  0.53018  1.0000
  C   C1385     1.0  0.96064  0.28509  0.56419  1.0000
  C   C1386     1.0  0.77895  0.44085  0.94341  1.0000
  C   C1387     1.0  0.81737  0.22230  0.57342  1.0000
  C   C1388     1.0  0.68350  0.25538  0.99751  1.0000
  H   H1106     1.0  0.94408  0.30851  0.61714  1.0000
  H   H1107     1.0  0.56072  0.20011  0.93655  1.0000
  H   H1108     1.0  0.76878  0.25652  0.58090  1.0000
  H   H1109     1.0  0.78903  0.16280  0.57300  1.0000
  C   C1389     1.0  0.78257  0.44063  0.97337  1.0000
  H   H1110     1.0  0.89662  0.19238  0.60190  1.0000
  H   H1111     1.0  0.67614  0.34649  0.97558  1.0000
  H   H1112     1.0  0.84740  0.19432  0.80877  1.0000
  H   H1113     1.0  0.79025  0.43058  0.92925  1.0000
  C   C1390     1.0  0.78017  0.24261  0.57313  1.0000
  C   C1391     1.0  0.74325  0.31380  0.95796  1.0000
  C   C1392     1.0  0.79243  0.15275  0.55363  1.0000
  P   P47       1.0  0.96845  0.31471  0.56168  1.0000
  H   H1114     1.0  0.78068  0.19677  0.52801  1.0000
  C   C1393     1.0  0.94137  0.35489  0.57175  1.0000
  H   H1115     1.0  0.62538  0.29130  0.93059  1.0000
  C   C1394     1.0  0.94779  0.33270  0.58175  1.0000
  C   C1395     1.0  0.63696  0.32578  0.92982  1.0000
  C   C1396     1.0  0.80953  0.20611  0.55393  1.0000
  C   C1397     1.0  0.77237  0.22687  0.55323  1.0000
  C   C1398     1.0  0.88146  0.18265  0.59950  1.0000
  H   H1116     1.0  0.87734  0.23240  0.50978  1.0000
  C   C1399     1.0  0.86753  0.18631  0.57526  1.0000
  H   H1117     1.0  0.55119  0.28583  0.89788  1.0000
  C   C1400     1.0  0.87535  0.16718  0.62112  1.0000
  C   C1401     1.0  0.95182  0.25442  0.85088  1.0000
  C   C1402     1.0  0.84145  0.15875  0.59407  1.0000
  C   C1403     1.0  0.85548  0.15508  0.61825  1.0000
  H   H1118     1.0  0.96387  0.31788  0.74209  1.0000
  C   C1404     1.0  0.70176  0.00268  0.57058  1.0000
  C   C1405     1.0  0.60524  0.20432  0.98126  1.0000
  H   H1119     1.0  0.52362  0.22233  0.66910  1.0000
  H   H1120     1.0  0.79853  0.46151  0.80663  1.0000
  C   C1406     1.0  0.78704  0.20880  0.54343  1.0000
  H   H1121     1.0  0.50084  0.17027  0.80968  1.0000
  H   H1122     1.0  0.65199  0.35851  0.93399  1.0000
  C   C1407     1.0  0.52679  0.23704  0.94522  1.0000
  C   C1408     1.0  0.63631  0.30342  0.94062  1.0000
  C   C1409     1.0  0.86428  0.17525  0.50375  1.0000
  H   H1123     1.0  0.69044  0.07818  0.51279  1.0000
  C   C1410     1.0  0.65566  0.01821  0.56997  1.0000
  C   C1411     1.0  0.92397  0.33953  0.62472  1.0000
  H   H1124     1.0  0.57515  0.26699  0.93621  1.0000
  C   C1412     1.0  0.54422  0.27263  0.91152  1.0000
  H   H1125     1.0  0.56028  0.23578  0.96560  1.0000
  H   H1126     1.0  0.69017  0.25850  0.97588  1.0000
  C   C1413     1.0  0.88108  0.25031  0.50884  1.0000
  C   C1414     1.0  0.65115  0.34129  0.94272  1.0000
  C   C1415     1.0  0.52195  0.26583  0.90708  1.0000
  H   H1127     1.0  0.75675  0.45237  0.90873  1.0000
  H   H1128     1.0  0.76066  0.03743  0.59709  1.0000
  P   P48       1.0  0.82795  0.18181  0.54296  1.0000
  H   H1129     1.0  0.70753  0.32136  0.95245  1.0000
  C   C1416     1.0  0.76388  0.01253  0.56262  1.0000
  H   H1130     1.0  0.91741  0.33358  0.64538  1.0000
  H   H1131     1.0  0.57549  0.16490  0.91265  1.0000
  H   H1132     1.0  0.95231  0.23812  0.86228  1.0000
  H   H1133     1.0  0.75488  0.22850  0.54557  1.0000
  H   H1134     1.0  0.76660  0.47552  0.77545  1.0000
  H   H1135     1.0  0.51238  0.13283  0.93163  1.0000
  C   C1417     1.0  0.81404  0.14505  0.50936  1.0000
  C   C1418     1.0  0.84467  0.18892  0.51132  1.0000
  H   H1136     1.0  0.73668  0.06066  0.51383  1.0000
  H   H1137     1.0  0.93213  0.32418  0.51960  1.0000
  C   C1419     1.0  0.49604  0.20345  0.86557  1.0000
  H   H1138     1.0  0.98794  0.34982  0.59869  1.0000
  C   C1420     1.0  0.79988  0.12710  0.50318  1.0000
  C   C1421     1.0  0.75074  0.02562  0.51505  1.0000
  H   H1139     1.0  0.49620  0.24296  0.91915  1.0000
  C   C1422     1.0  0.81239  0.26779  0.50764  1.0000
  H   H1140     1.0  0.89462  0.31438  0.50556  1.0000
  C   C1423     1.0  0.89119  0.29639  0.50648  1.0000
  H   H1141     1.0  0.70327  0.01961  0.51204  1.0000
  H   H1142     1.0  0.49733  0.16779  0.95620  1.0000
  H   H1143     1.0  0.49481  0.18673  0.87553  1.0000
  C   C1424     1.0  0.98967  0.32867  0.51006  1.0000
  C   C1425     1.0  0.94831  0.32727  0.50896  1.0000
  C   C1426     1.0  0.75449  0.29262  0.00122  1.0000
  Fe  Fe97      1.0  0.77750  0.60171  0.11760  1.0000
  S   S193      1.0  0.74177  0.58990  0.12070  1.0000
  S   S194      1.0  0.79505  0.59247  0.07470  1.0000
  Fe  Fe98      1.0  0.77646  0.61924  0.18103  1.0000
  S   S195      1.0  0.74044  0.60742  0.18746  1.0000
  S   S196      1.0  0.78729  0.64350  0.21732  1.0000
  Fe  Fe99      1.0  0.75258  0.57509  0.16379  1.0000
  S   S197      1.0  0.73971  0.53973  0.17567  1.0000
  Fe  Fe100     1.0  0.73326  0.62304  0.14373  1.0000
  S   S198      1.0  0.70423  0.64691  0.12727  1.0000
  S   S199      1.0  0.78908  0.58564  0.16018  1.0000
  S   S200      1.0  0.76851  0.63600  0.13766  1.0000
  Fe  Fe101     1.0  0.90186  0.72585  0.36246  1.0000
  S   S201      1.0  0.90018  0.68851  0.37289  1.0000
  S   S202      1.0  0.93631  0.74277  0.35727  1.0000
  Fe  Fe102     1.0  0.84915  0.73386  0.36699  1.0000
  S   S203      1.0  0.84494  0.69670  0.37881  1.0000
  S   S204      1.0  0.81345  0.75189  0.36438  1.0000
  Fe  Fe103     1.0  0.87523  0.70030  0.40801  1.0000
  S   S205      1.0  0.87977  0.68455  0.45322  1.0000
  Fe  Fe104     1.0  0.86992  0.68870  0.34247  1.0000
  S   S206      1.0  0.86682  0.65973  0.30926  1.0000
  S   S207      1.0  0.87786  0.73779  0.39881  1.0000
  S   S208      1.0  0.87327  0.72560  0.32938  1.0000
  Fe  Fe105     1.0  0.61783  0.74167  0.17628  1.0000
  S   S209      1.0  0.64263  0.76339  0.15314  1.0000
  S   S210      1.0  0.63270  0.70999  0.19978  1.0000
  Fe  Fe106     1.0  0.57640  0.77355  0.15989  1.0000
  S   S211      1.0  0.59924  0.79777  0.13600  1.0000
  S   S212      1.0  0.53828  0.78494  0.15614  1.0000
  Fe  Fe107     1.0  0.61655  0.76587  0.11757  1.0000
  S   S213      1.0  0.62796  0.75652  0.07172  1.0000
  Fe  Fe108     1.0  0.62328  0.79329  0.17404  1.0000
  S   S214      1.0  0.64459  0.82173  0.19242  1.0000
  S   S215      1.0  0.59282  0.74185  0.13939  1.0000
  S   S216      1.0  0.59947  0.77150  0.19924  1.0000
  Fe  Fe109     1.0  0.73762  0.86770  0.37020  1.0000
  S   S217      1.0  0.71041  0.84350  0.38254  1.0000
  S   S218      1.0  0.77471  0.85585  0.36015  1.0000
  Fe  Fe110     1.0  0.70511  0.91053  0.37503  1.0000
  S   S219      1.0  0.67575  0.88861  0.38704  1.0000
  S   S220      1.0  0.69347  0.94859  0.37852  1.0000
  Fe  Fe111     1.0  0.70047  0.86972  0.41661  1.0000
  S   S221      1.0  0.68750  0.86098  0.46182  1.0000
  Fe  Fe112     1.0  0.68785  0.86441  0.35163  1.0000
  S   S222      1.0  0.66074  0.84563  0.32615  1.0000
  S   S223      1.0  0.72922  0.89262  0.40663  1.0000
  S   S224      1.0  0.71568  0.88753  0.33718  1.0000
  C   C1427     1.0  0.70735  0.97477  0.37338  1.0000
  C   C1428     1.0  0.73006  0.97538  0.36363  1.0000
  H   H1144     1.0  0.51186  0.73067  0.09066  1.0000
  H   H1145     1.0  0.73994  0.95951  0.35977  1.0000
  H   H1146     1.0  0.82807  0.65239  0.35507  1.0000
  H   H1147     1.0  0.77298  0.65780  0.01187  1.0000
  C   C1429     1.0  0.66916  0.75861  0.25193  1.0000
  H   H1148     1.0  0.82150  0.55761  0.03949  1.0000
  H   H1149     1.0  0.75714  0.64719  0.33405  1.0000
  H   H1150     1.0  0.73405  0.87539  0.47013  1.0000
  C   C1430     1.0  0.61656  0.76924  0.03959  1.0000
  C   C1431     1.0  0.60937  0.79242  0.03816  1.0000
  C   C1432     1.0  0.83873  0.60255  0.00657  1.0000
  H   H1151     1.0  0.60949  0.80283  0.05748  1.0000
  C   C1433     1.0  0.96302  0.66767  0.46004  1.0000
  C   C1434     1.0  0.64932  0.82775  0.22977  1.0000
  C   C1435     1.0  0.63798  0.81648  0.25218  1.0000
  C   C1436     1.0  0.64165  0.82231  0.28139  1.0000
  C   C1437     1.0  0.65702  0.83913  0.28877  1.0000
  C   C1438     1.0  0.66853  0.85026  0.26640  1.0000
  C   C1439     1.0  0.66462  0.84465  0.23710  1.0000
  H   H1152     1.0  0.62586  0.80375  0.24697  1.0000
  H   H1153     1.0  0.63231  0.81386  0.29839  1.0000
  H   H1154     1.0  0.68032  0.86330  0.27165  1.0000
  H   H1155     1.0  0.67343  0.85356  0.22001  1.0000
  C   C1440     1.0  0.87687  0.70039  0.48598  1.0000
  C   C1441     1.0  0.72904  0.50689  0.08973  1.0000
  H   H1156     1.0  0.83041  0.63673  0.02193  1.0000
  C   C1442     1.0  0.74574  0.81018  0.46147  1.0000
  H   H1157     1.0  0.86713  0.73271  0.46584  1.0000
  C   C1443     1.0  0.80432  0.78130  0.36642  1.0000
  C   C1444     1.0  0.78195  0.78707  0.37648  1.0000
  C   C1445     1.0  0.77312  0.80997  0.37612  1.0000
  C   C1446     1.0  0.78622  0.82729  0.36455  1.0000
  C   C1447     1.0  0.80877  0.82161  0.35503  1.0000
  C   C1448     1.0  0.81785  0.79876  0.35611  1.0000
  H   H1158     1.0  0.77136  0.77369  0.38452  1.0000
  H   H1159     1.0  0.75601  0.81417  0.38421  1.0000
  H   H1160     1.0  0.81917  0.83490  0.34638  1.0000
  H   H1161     1.0  0.83504  0.79458  0.34817  1.0000
  C   C1449     1.0  0.75237  0.51171  0.16930  1.0000
  C   C1450     1.0  0.65524  0.65563  0.04015  1.0000
  H   H1162     1.0  0.67501  0.71276  0.34717  1.0000
  H   H1163     1.0  0.78672  0.52219  0.16168  1.0000
  H   H1164     1.0  0.69178  0.57060  0.06568  1.0000
  C   C1451     1.0  0.77980  0.62886  0.04034  1.0000
  C   C1452     1.0  0.78471  0.60522  0.04209  1.0000
  H   H1165     1.0  0.66135  0.57389  0.01735  1.0000
  H   H1166     1.0  0.78061  0.63921  0.05965  1.0000
  C   C1453     1.0  0.93243  0.74553  0.48554  1.0000
  C   C1454     1.0  0.68625  0.66515  0.14911  1.0000
  C   C1455     1.0  0.68011  0.65926  0.17753  1.0000
  C   C1456     1.0  0.66363  0.67303  0.19292  1.0000
  C   C1457     1.0  0.65333  0.69286  0.18009  1.0000
  C   C1458     1.0  0.65991  0.69895  0.15194  1.0000
  C   C1459     1.0  0.67628  0.68517  0.13657  1.0000
  H   H1167     1.0  0.68741  0.64365  0.18718  1.0000
  H   H1168     1.0  0.65857  0.66808  0.21457  1.0000
  H   H1169     1.0  0.65222  0.71415  0.14179  1.0000
  H   H1170     1.0  0.68097  0.68985  0.11462  1.0000
  C   C1460     1.0  0.80998  0.64760  0.24225  1.0000
  C   C1461     1.0  0.80742  0.66565  0.26234  1.0000
  C   C1462     1.0  0.82462  0.66959  0.28283  1.0000
  C   C1463     1.0  0.84473  0.65556  0.28352  1.0000
  C   C1464     1.0  0.84725  0.63739  0.26357  1.0000
  C   C1465     1.0  0.83006  0.63344  0.24302  1.0000
  H   H1171     1.0  0.79199  0.67666  0.26201  1.0000
  H   H1172     1.0  0.82237  0.68333  0.29836  1.0000
  H   H1173     1.0  0.86267  0.62631  0.26396  1.0000
  H   H1174     1.0  0.83237  0.61947  0.22780  1.0000
  C   C1466     1.0  0.96421  0.72884  0.35892  1.0000
  C   C1467     1.0  0.75588  0.94518  0.44818  1.0000
  C   C1468     1.0  0.96747  0.70499  0.36118  1.0000
  C   C1469     1.0  0.75052  0.69365  0.29788  1.0000
  H   H1175     1.0  0.95277  0.69447  0.36234  1.0000
  C   C1470     1.0  0.50958  0.75047  0.17406  1.0000
  C   C1471     1.0  0.51148  0.77190  0.16074  1.0000
  C   C1472     1.0  0.73450  0.95664  0.44479  1.0000
  H   H1176     1.0  0.52486  0.74073  0.18075  1.0000
  H   H1177     1.0  0.98674  0.65438  0.26349  1.0000
  H   H1178     1.0  0.68293  0.78219  0.00227  1.0000
  C   C1473     1.0  0.98940  0.61728  0.45065  1.0000
  H   H1179     1.0  0.72089  0.94815  0.43401  1.0000
  C   C1474     1.0  0.88402  0.53919  0.05979  1.0000
  H   H1180     1.0  0.94278  0.71319  0.41969  1.0000
  C   C1475     1.0  0.97745  0.70831  0.43511  1.0000
  C   C1476     1.0  0.96212  0.76869  0.44908  1.0000
  C   C1477     1.0  0.73084  0.97922  0.45440  1.0000
  H   H1181     1.0  0.71634  0.62642  0.33207  1.0000
  H   H1182     1.0  0.71788  0.64531  0.22691  1.0000
  C   C1478     1.0  0.57481  0.83234  0.26552  1.0000
  C   C1479     1.0  0.76770  0.70761  0.30731  1.0000
  C   C1480     1.0  0.92594  0.75115  0.45717  1.0000
  H   H1183     1.0  0.55489  0.80952  0.20333  1.0000
  C   C1481     1.0  0.74478  0.58462  0.33449  1.0000
  C   C1482     1.0  0.72604  0.55706  0.37797  1.0000
  C   C1483     1.0  0.49872  0.75100  0.05427  1.0000
  C   C1484     1.0  0.77386  0.95647  0.46061  1.0000
  C   C1485     1.0  0.66662  0.95676  0.31235  1.0000
  H   H1184     1.0  0.54816  0.67057  0.05545  1.0000
  H   H1185     1.0  0.81290  0.51353  0.09892  1.0000
  H   H1186     1.0  0.94600  0.65651  0.27910  1.0000
  H   H1187     1.0  0.79389  0.60621  0.26332  1.0000
  C   C1486     1.0  0.73891  0.67595  0.07450  1.0000
  C   C1487     1.0  0.73557  0.68570  0.04701  1.0000
  C   C1488     1.0  0.73301  0.70951  0.04395  1.0000
  C   C1489     1.0  0.73371  0.72354  0.06841  1.0000
  C   C1490     1.0  0.73653  0.71381  0.09623  1.0000
  C   C1491     1.0  0.73923  0.68989  0.09900  1.0000
  P   P49       1.0  0.73932  0.73196  0.12753  1.0000
  C   C1492     1.0  0.73053  0.71737  0.16022  1.0000
  C   C1493     1.0  0.76903  0.73894  0.13076  1.0000
  C   C1494     1.0  0.77851  0.74250  0.15820  1.0000
  C   C1495     1.0  0.80183  0.74648  0.16080  1.0000
  C   C1496     1.0  0.81570  0.74763  0.13601  1.0000
  C   C1497     1.0  0.80629  0.74475  0.10860  1.0000
  C   C1498     1.0  0.78307  0.74037  0.10594  1.0000
  C   C1499     1.0  0.74539  0.70088  0.17360  1.0000
  C   C1500     1.0  0.73926  0.69090  0.20004  1.0000
  C   C1501     1.0  0.71826  0.69722  0.21322  1.0000
  C   C1502     1.0  0.70324  0.71319  0.19975  1.0000
  C   C1503     1.0  0.70923  0.72312  0.17332  1.0000
  C   C1504     1.0  0.72133  0.75789  0.12373  1.0000
  C   C1505     1.0  0.72751  0.77832  0.13681  1.0000
  C   C1506     1.0  0.71285  0.79801  0.13537  1.0000
  C   C1507     1.0  0.69203  0.79747  0.12071  1.0000
  C   C1508     1.0  0.68583  0.77724  0.10755  1.0000
  C   C1509     1.0  0.70019  0.75741  0.10947  1.0000
  H   H1188     1.0  0.74127  0.65752  0.07705  1.0000
  H   H1189     1.0  0.73519  0.67480  0.02809  1.0000
  H   H1190     1.0  0.73074  0.71710  0.02258  1.0000
  H   H1191     1.0  0.73230  0.74197  0.06553  1.0000
  H   H1192     1.0  0.74158  0.68178  0.11998  1.0000
  H   H1193     1.0  0.76802  0.74173  0.17763  1.0000
  H   H1194     1.0  0.80928  0.74831  0.18206  1.0000
  H   H1195     1.0  0.83382  0.75052  0.13804  1.0000
  H   H1196     1.0  0.81709  0.74550  0.08937  1.0000
  H   H1197     1.0  0.77628  0.73780  0.08452  1.0000
  H   H1198     1.0  0.76175  0.69572  0.16369  1.0000
  H   H1199     1.0  0.75074  0.67810  0.21015  1.0000
  H   H1200     1.0  0.71344  0.68949  0.23358  1.0000
  H   H1201     1.0  0.68671  0.71778  0.20946  1.0000
  H   H1202     1.0  0.69701  0.73520  0.16332  1.0000
  H   H1203     1.0  0.74340  0.77899  0.14855  1.0000
  H   H1204     1.0  0.71740  0.81366  0.14590  1.0000
  H   H1205     1.0  0.68048  0.81262  0.11995  1.0000
  H   H1206     1.0  0.66951  0.77676  0.09651  1.0000
  H   H1207     1.0  0.69448  0.74162  0.10035  1.0000
  C   C1510     1.0  0.69092  0.75228  0.26296  1.0000
  C   C1511     1.0  0.81440  0.64273  0.34621  1.0000
  P   P50       1.0  0.54280  0.79826  0.26306  1.0000
  C   C1512     1.0  0.50767  0.81768  0.22837  1.0000
  C   C1513     1.0  0.53619  0.80471  0.30052  1.0000
  C   C1514     1.0  0.53735  0.78745  0.32188  1.0000
  C   C1515     1.0  0.53168  0.79269  0.35075  1.0000
  C   C1516     1.0  0.65008  0.67885  0.03364  1.0000
  C   C1517     1.0  0.99304  0.69397  0.45042  1.0000
  C   C1518     1.0  0.52850  0.82704  0.30822  1.0000
  C   C1519     1.0  0.64066  0.69321  0.05548  1.0000
  C   C1520     1.0  0.69348  0.77045  0.37644  1.0000
  C   C1521     1.0  0.55856  0.77102  0.25909  1.0000
  C   C1522     1.0  0.55225  0.75511  0.23828  1.0000
  C   C1523     1.0  0.56519  0.73448  0.23461  1.0000
  C   C1524     1.0  0.58480  0.72982  0.25122  1.0000
  C   C1525     1.0  0.59147  0.74578  0.27158  1.0000
  C   C1526     1.0  0.57847  0.76636  0.27543  1.0000
  H   H1208     1.0  0.63874  0.68372  0.25856  1.0000
  C   C1527     1.0  0.95599  0.67164  0.27992  1.0000
  H   H1209     1.0  0.63642  0.71110  0.05102  1.0000
  C   C1528     1.0  0.95474  0.70229  0.43210  1.0000
  C   C1529     1.0  0.69903  0.64423  0.29704  1.0000
  H   H1210     1.0  0.69260  0.91052  0.46423  1.0000
  C   C1530     1.0  0.68540  0.97027  0.30770  1.0000
  C   C1531     1.0  0.70805  0.58005  0.02514  1.0000
  C   C1532     1.0  0.56434  0.82030  0.21743  1.0000
  C   C1533     1.0  0.76772  0.58350  0.27725  1.0000
  H   H1211     1.0  0.59520  0.71417  0.24760  1.0000
  H   H1212     1.0  0.60698  0.74238  0.28391  1.0000
  H   H1213     1.0  0.58414  0.77885  0.29073  1.0000
  H   H1214     1.0  0.70263  0.96248  0.30866  1.0000
  C   C1534     1.0  0.64072  0.68157  0.30523  1.0000
  C   C1535     1.0  0.58152  0.71532  0.06884  1.0000
  C   C1536     1.0  0.55344  0.82201  0.05827  1.0000
  H   H1215     1.0  0.89204  0.54217  0.01451  1.0000
  H   H1216     1.0  0.65369  0.75490  0.26383  1.0000
  C   C1537     1.0  0.59009  0.84743  0.25321  1.0000
  C   C1538     1.0  0.67041  0.96530  0.46862  1.0000
  C   C1539     1.0  0.98366  0.74212  0.35712  1.0000
  C   C1540     1.0  0.72706  0.53479  0.03283  1.0000
  C   C1541     1.0  0.71538  0.52244  0.06318  1.0000
  C   C1542     1.0  0.53674  0.77931  0.04381  1.0000
  H   H1217     1.0  0.80641  0.59178  0.31379  1.0000
  C   C1543     1.0  0.63540  0.52312  0.01660  1.0000
  H   H1218     1.0  0.66251  0.64407  0.02389  1.0000
  H   H1219     1.0  0.63006  0.69602  0.10029  1.0000
  H   H1220     1.0  0.62168  0.73814  0.01520  1.0000
  C   C1544     1.0  0.79190  0.65205  0.34600  1.0000
  H   H1221     1.0  0.52009  0.81911  0.38073  1.0000
  H   H1222     1.0  0.95699  0.65217  0.46983  1.0000
  C   C1545     1.0  0.59262  0.84882  0.22307  1.0000
  H   H1223     1.0  0.56047  0.72248  0.21812  1.0000
  H   H1224     1.0  0.67221  0.94020  0.43441  1.0000
  C   C1546     1.0  0.94088  0.76245  0.43879  1.0000
  C   C1547     1.0  0.74819  0.56472  0.38089  1.0000
  C   C1548     1.0  0.54806  0.80646  0.08016  1.0000
  H   H1225     1.0  0.80736  0.58228  0.22233  1.0000
  C   C1549     1.0  0.65107  0.68974  0.33008  1.0000
  C   C1550     1.0  0.72254  0.57678  0.33170  1.0000
  C   C1551     1.0  0.98811  0.57862  0.46974  1.0000
  C   C1552     1.0  0.67626  0.94381  0.45680  1.0000
  H   H1226     1.0  0.64817  0.80056  0.34681  1.0000
  H   H1227     1.0  0.69037  0.75597  0.04407  1.0000
  H   H1228     1.0  0.71486  0.69160  0.28815  1.0000
  H   H1229     1.0  0.57275  0.75060  0.05981  1.0000
  H   H1230     1.0  0.83709  0.61417  0.33420  1.0000
  C   C1553     1.0  0.98168  0.71072  0.28267  1.0000
  H   H1231     1.0  0.99117  0.72608  0.28422  1.0000
  C   C1554     1.0  0.66344  0.70626  0.27536  1.0000
  P   P51       1.0  0.69351  0.73766  0.29768  1.0000
  H   H1232     1.0  0.68492  0.65068  0.31062  1.0000
  H   H1233     1.0  0.53787  0.75889  0.22415  1.0000
  H   H1234     1.0  0.62995  0.95634  0.31645  1.0000
  C   C1555     1.0  0.69923  0.64936  0.26736  1.0000
  C   C1556     1.0  0.80209  0.60865  0.32246  1.0000
  C   C1557     1.0  0.70871  0.62393  0.04946  1.0000
  H   H1235     1.0  0.78810  0.66887  0.35520  1.0000
  H   H1236     1.0  0.71886  0.54634  0.39469  1.0000
  C   C1558     1.0  0.77610  0.52063  0.04298  1.0000
  C   C1559     1.0  0.77556  0.63936  0.01323  1.0000
  C   C1560     1.0  0.78585  0.59027  0.25944  1.0000
  H   H1237     1.0  0.59817  0.82050  0.01014  1.0000
  P   P52       1.0  0.52597  0.75169  0.03534  1.0000
  C   C1561     1.0  0.68776  0.92704  0.47365  1.0000
  H   H1238     1.0  0.93594  0.76644  0.41659  1.0000
  H   H1239     1.0  0.97348  0.77781  0.43489  1.0000
  C   C1562     1.0  0.70821  0.76760  0.21907  1.0000
  C   C1563     1.0  0.95419  0.75076  0.49568  1.0000
  C   C1564     1.0  0.51540  0.79869  0.24510  1.0000
  H   H1240     1.0  0.78272  0.55000  0.10378  1.0000
  C   C1565     1.0  0.54518  0.72883  0.04828  1.0000
  C   C1566     1.0  0.53861  0.70608  0.04674  1.0000
  C   C1567     1.0  0.55338  0.68809  0.05644  1.0000
  C   C1568     1.0  0.57480  0.69272  0.06763  1.0000
  C   C1569     1.0  0.55017  0.81643  0.02921  1.0000
  C   C1570     1.0  0.56690  0.73332  0.05898  1.0000
  H   H1241     1.0  0.68524  0.65960  0.25781  1.0000
  H   H1242     1.0  0.71248  0.58104  0.31259  1.0000
  C   C1571     1.0  0.77947  0.61807  0.32157  1.0000
  C   C1572     1.0  0.66228  0.78784  0.34865  1.0000
  C   C1573     1.0  0.76813  0.80330  0.46914  1.0000
  H   H1243     1.0  0.60510  0.85986  0.21356  1.0000
  H   H1244     1.0  0.56027  0.83830  0.06382  1.0000
  C   C1574     1.0  0.52286  0.83222  0.33709  1.0000
  C   C1575     1.0  0.71849  0.59780  0.01007  1.0000
  C   C1576     1.0  0.68261  0.74965  0.02467  1.0000
  C   C1577     1.0  0.74020  0.73998  0.30942  1.0000
  H   H1245     1.0  0.58621  0.67885  0.07538  1.0000
  H   H1246     1.0  0.75860  0.92772  0.44055  1.0000
  H   H1247     1.0  0.60066  0.85743  0.26702  1.0000
  H   H1248     1.0  0.69709  0.52519  0.06644  1.0000
  C   C1578     1.0  0.79717  0.51277  0.08687  1.0000
  H   H1249     1.0  0.77484  0.58393  0.36187  1.0000
  H   H1250     1.0  0.72751  0.75188  0.25365  1.0000
  C   C1579     1.0  0.76412  0.55008  0.24663  1.0000
  C   C1580     1.0  0.85604  0.55082  0.02313  1.0000
  H   H1251     1.0  0.97634  0.58899  0.42723  1.0000
  H   H1252     1.0  0.54234  0.76991  0.31632  1.0000
  C   C1581     1.0  0.78250  0.55672  0.22948  1.0000
  H   H1253     1.0  0.50191  0.82310  0.06086  1.0000
  H   H1254     1.0  0.87134  0.53833  0.10391  1.0000
  C   C1582     1.0  0.53959  0.78527  0.07301  1.0000
  H   H1255     1.0  0.75468  0.67581  0.29275  1.0000
  H   H1256     1.0  0.57388  0.83086  0.28891  1.0000
  H   H1257     1.0  0.79383  0.52159  0.03548  1.0000
  H   H1258     1.0  0.64624  0.68337  0.35130  1.0000
  H   H1259     1.0  0.73662  0.75806  0.31348  1.0000
  C   C1583     1.0  0.65978  0.55552  0.01650  1.0000
  C   C1584     1.0  0.64691  0.68984  0.27790  1.0000
  H   H1260     1.0  0.66940  0.93857  0.31682  1.0000
  C   C1585     1.0  0.98984  0.69462  0.36156  1.0000
  H   H1261     1.0  0.78506  0.70056  0.31014  1.0000
  H   H1262     1.0  0.62783  0.66890  0.30711  1.0000
  H   H1263     1.0  0.69614  0.55695  0.35097  1.0000
  C   C1586     1.0  0.64213  0.66161  0.08973  1.0000
  H   H1264     1.0  0.52200  0.70230  0.03818  1.0000
  H   H1265     1.0  0.67125  0.79865  0.39146  1.0000
  C   C1587     1.0  0.79112  0.73716  0.24325  1.0000
  C   C1588     1.0  0.80862  0.73229  0.26316  1.0000
  C   C1589     1.0  0.81608  0.74957  0.28108  1.0000
  C   C1590     1.0  0.80680  0.77199  0.27823  1.0000
  C   C1591     1.0  0.79032  0.77734  0.25691  1.0000
  C   C1592     1.0  0.78177  0.75959  0.24038  1.0000
  P   P53       1.0  0.77842  0.80629  0.25282  1.0000
  C   C1593     1.0  0.75204  0.80724  0.27341  1.0000
  C   C1594     1.0  0.79790  0.82661  0.26646  1.0000
  C   C1595     1.0  0.78986  0.84524  0.28350  1.0000
  C   C1596     1.0  0.80515  0.86092  0.29376  1.0000
  C   C1597     1.0  0.82849  0.85824  0.28696  1.0000
  C   C1598     1.0  0.83656  0.84000  0.26953  1.0000
  C   C1599     1.0  0.82131  0.82433  0.25911  1.0000
  C   C1600     1.0  0.73071  0.80791  0.25960  1.0000
  C   C1601     1.0  0.71048  0.80857  0.27604  1.0000
  C   C1602     1.0  0.71141  0.80885  0.30627  1.0000
  C   C1603     1.0  0.73254  0.80735  0.32013  1.0000
  C   C1604     1.0  0.75283  0.80629  0.30379  1.0000
  C   C1605     1.0  0.77419  0.81417  0.21520  1.0000
  C   C1606     1.0  0.78612  0.80216  0.19296  1.0000
  C   C1607     1.0  0.78266  0.80840  0.16389  1.0000
  C   C1608     1.0  0.76769  0.82700  0.15689  1.0000
  C   C1609     1.0  0.75640  0.83956  0.17896  1.0000
  C   C1610     1.0  0.75985  0.83336  0.20802  1.0000
  H   H1266     1.0  0.78480  0.72345  0.23023  1.0000
  H   H1267     1.0  0.81613  0.71505  0.26514  1.0000
  H   H1268     1.0  0.82887  0.74555  0.29753  1.0000
  H   H1269     1.0  0.81246  0.78498  0.29285  1.0000
  H   H1270     1.0  0.76799  0.76314  0.22523  1.0000
  H   H1271     1.0  0.77189  0.84771  0.28932  1.0000
  H   H1272     1.0  0.79888  0.87486  0.30764  1.0000
  H   H1273     1.0  0.84031  0.87022  0.29540  1.0000
  H   H1274     1.0  0.85468  0.83792  0.26431  1.0000
  H   H1275     1.0  0.82782  0.81030  0.24560  1.0000
  H   H1276     1.0  0.72948  0.80787  0.23625  1.0000
  H   H1277     1.0  0.69403  0.80899  0.26534  1.0000
  H   H1278     1.0  0.69580  0.81040  0.31901  1.0000
  H   H1279     1.0  0.73310  0.80724  0.34356  1.0000
  H   H1280     1.0  0.76915  0.80514  0.31482  1.0000
  H   H1281     1.0  0.79838  0.78827  0.19802  1.0000
  H   H1282     1.0  0.79183  0.79901  0.14679  1.0000
  H   H1283     1.0  0.76512  0.83194  0.13438  1.0000
  H   H1284     1.0  0.74514  0.85429  0.17361  1.0000
  H   H1285     1.0  0.75132  0.84355  0.22493  1.0000
  C   C1611     1.0  0.56151  0.81892  0.24765  1.0000
  H   H1286     1.0  0.69279  0.60917  0.08696  1.0000
  H   H1287     1.0  0.90145  0.53398  0.06562  1.0000
  H   H1288     1.0  0.83926  0.59571  0.02839  1.0000
  H   H1289     1.0  0.66197  0.97843  0.45522  1.0000
  H   H1290     1.0  0.60663  0.69784  0.01561  1.0000
  H   H1291     1.0  0.98138  0.76056  0.35521  1.0000
  H   H1292     1.0  0.67958  0.71576  0.04192  1.0000
  C   C1612     1.0  0.72890  0.81346  0.48299  1.0000
  C   C1613     1.0  0.67654  0.51692  0.01111  1.0000
  H   H1293     1.0  0.71931  0.50056  0.10797  1.0000
  H   H1294     1.0  0.71155  0.81887  0.47701  1.0000
  C   C1614     1.0  0.84458  0.54822  0.07386  1.0000
  C   C1615     1.0  0.78409  0.59203  0.01667  1.0000
  C   C1616     1.0  0.73540  0.62761  0.26194  1.0000
  C   C1617     1.0  0.68670  0.75725  0.32732  1.0000
  H   H1295     1.0  0.98306  0.72387  0.42490  1.0000
  C   C1618     1.0  0.94570  0.69234  0.28964  1.0000
  C   C1619     1.0  0.95847  0.71190  0.29066  1.0000
  C   C1620     1.0  0.87859  0.54390  0.03076  1.0000
  C   C1621     1.0  0.52453  0.81508  0.35838  1.0000
  C   C1622     1.0  0.54200  0.79513  0.02195  1.0000
  H   H1296     1.0  0.92973  0.67767  0.44268  1.0000
  C   C1623     1.0  0.77446  0.63975  0.33380  1.0000
  H   H1297     1.0  0.63963  0.65512  0.11159  1.0000
  H   H1298     1.0  0.58218  0.83589  0.18186  1.0000
  C   C1624     1.0  0.96862  0.76321  0.47756  1.0000
  H   H1299     1.0  0.53265  0.77935  0.36720  1.0000
  C   C1625     1.0  0.73490  0.62158  0.29144  1.0000
  C   C1626     1.0  0.71846  0.61976  0.02206  1.0000
  C   C1627     1.0  0.72260  0.72586  0.30120  1.0000
  C   C1628     1.0  0.75525  0.53447  0.02273  1.0000
  C   C1629     1.0  0.69940  0.60608  0.06516  1.0000
  C   C1630     1.0  0.98608  0.67322  0.46235  1.0000
  C   C1631     1.0  0.64442  0.96685  0.31235  1.0000
  C   C1632     1.0  0.65469  0.50822  0.01291  1.0000
  C   C1633     1.0  0.69888  0.75545  0.35353  1.0000
  C   C1634     1.0  0.77579  0.50782  0.16328  1.0000
  H   H1300     1.0  0.75817  0.55994  0.39989  1.0000
  H   H1301     1.0  0.95046  0.72793  0.29831  1.0000
  H   H1302     1.0  0.92786  0.69323  0.29658  1.0000
  H   H1303     1.0  0.55053  0.81072  0.10275  1.0000
  H   H1304     1.0  0.71261  0.74255  0.35652  1.0000
  C   C1635     1.0  0.66738  0.70642  0.32764  1.0000
  C   C1636     1.0  0.94747  0.68211  0.44479  1.0000
  H   H1305     1.0  0.70857  0.64088  0.05886  1.0000
  C   C1637     1.0  0.76256  0.73077  0.31300  1.0000
  C   C1638     1.0  0.77370  0.79983  0.49836  1.0000
  H   H1306     1.0  0.55452  0.82837  0.01213  1.0000
  C   C1639     1.0  0.71684  0.63044  0.30910  1.0000
  H   H1307     1.0  0.66792  0.71221  0.25389  1.0000
  H   H1308     1.0  0.65784  0.77491  0.30599  1.0000
  C   C1640     1.0  0.63793  0.54676  0.01829  1.0000
  H   H1309     1.0  0.50597  0.76621  0.26347  1.0000
  P   P54       1.0  0.75686  0.60202  0.30618  1.0000
  C   C1641     1.0  0.75672  0.56338  0.27041  1.0000
  C   C1642     1.0  0.81949  0.62108  0.33444  1.0000
  C   C1643     1.0  0.66796  0.77325  0.32541  1.0000
  C   C1644     1.0  0.65120  0.64709  0.06809  1.0000
  C   C1645     1.0  0.74875  0.99061  0.46730  1.0000
  H   H1310     1.0  0.65535  0.62926  0.07317  1.0000
  C   C1646     1.0  0.97908  0.67048  0.27132  1.0000
  H   H1311     1.0  0.74145  0.81322  0.43888  1.0000
  H   H1312     1.0  0.78120  0.80082  0.45238  1.0000
  C   C1647     1.0  0.57978  0.83523  0.20520  1.0000
  C   C1648     1.0  0.66702  0.76941  0.22493  1.0000
  C   C1649     1.0  0.77041  0.97920  0.46975  1.0000
  H   H1313     1.0  0.79060  0.94775  0.46250  1.0000
  H   H1314     1.0  0.53550  0.77346  0.09034  1.0000
  C   C1650     1.0  0.75757  0.57840  0.35923  1.0000
  H   H1315     1.0  0.72326  0.77097  0.20616  1.0000
  C   C1651     1.0  0.67347  0.71507  0.30028  1.0000
  H   H1316     1.0  0.74219  0.55802  0.28292  1.0000
  C   C1652     1.0  0.72598  0.87362  0.49119  1.0000
  C   C1653     1.0  0.75223  0.53664  0.07381  1.0000
  C   C1654     1.0  0.77833  0.53575  0.09035  1.0000
  C   C1655     1.0  0.87048  0.72380  0.48611  1.0000
  C   C1656     1.0  0.68648  0.77414  0.20861  1.0000
  H   H1317     1.0  0.78788  0.54653  0.21080  1.0000
  H   H1318     1.0  0.51830  0.83211  0.22493  1.0000
  H   H1319     1.0  0.74939  0.62152  0.24799  1.0000
  H   H1320     1.0  0.68457  0.78282  0.18783  1.0000
  C   C1657     1.0  0.71048  0.75671  0.24612  1.0000
  P   P55       1.0  0.70749  0.55154  0.01038  1.0000
  H   H1321     1.0  0.75529  0.53484  0.24095  1.0000
  C   C1658     1.0  0.63682  0.68465  0.08340  1.0000
  C   C1659     1.0  0.67528  0.78676  0.37391  1.0000
  C   C1660     1.0  0.72799  0.70268  0.29510  1.0000
  H   H1322     1.0  0.74095  0.55189  0.07744  1.0000
  C   C1661     1.0  0.70335  0.86698  0.49320  1.0000
  H   H1323     1.0  0.90934  0.74655  0.44939  1.0000
  H   H1324     1.0  0.70339  0.76946  0.39621  1.0000
  H   H1325     1.0  0.77594  0.74159  0.32030  1.0000
  C   C1662     1.0  0.71323  0.56307  0.35337  1.0000
  C   C1663     1.0  0.71756  0.64129  0.24993  1.0000
  H   H1326     1.0  0.78784  0.57376  0.01778  1.0000
  H   H1327     1.0  0.59805  0.71906  0.07751  1.0000
  C   C1664     1.0  0.69898  0.58425  0.05306  1.0000
  H   H1328     1.0  0.65017  0.77426  0.21667  1.0000
  C   C1665     1.0  0.61638  0.75605  0.01425  1.0000
  C   C1666     1.0  0.79340  0.57680  0.23594  1.0000
  H   H1329     1.0  0.52685  0.84042  0.29186  1.0000
  C   C1667     1.0  0.64098  0.99046  0.30772  1.0000
  C   C1668     1.0  0.67926  0.54059  0.01337  1.0000
  H   H1330     1.0  0.61846  0.51636  0.01793  1.0000
  H   H1331     1.0  0.98477  0.76890  0.48537  1.0000
  C   C1669     1.0  0.98385  0.59444  0.44731  1.0000
  C   C1670     1.0  0.60298  0.80240  0.01129  1.0000
  C   C1671     1.0  0.67612  0.72694  0.02349  1.0000
  C   C1672     1.0  0.83900  0.55237  0.04483  1.0000
  H   H1332     1.0  0.51706  0.84953  0.34293  1.0000
  H   H1333     1.0  0.83147  0.55069  0.09055  1.0000
  H   H1334     1.0  0.62294  0.55831  0.02083  1.0000
  C   C1673     1.0  0.74714  0.49895  0.04446  1.0000
  H   H1335     1.0  0.71424  0.98779  0.45085  1.0000
  C   C1674     1.0  0.86706  0.54153  0.08136  1.0000
  H   H1336     1.0  0.72643  0.63340  0.01029  1.0000
  C   C1675     1.0  0.99220  0.68996  0.27296  1.0000
  H   H1337     1.0  0.99022  0.67998  0.16223  1.0000
  H   H1338     1.0  0.98640  0.62923  0.43283  1.0000
  H   H1339     1.0  0.98383  0.56091  0.46710  1.0000
  C   C1676     1.0  0.75809  0.50169  0.08894  1.0000
  H   H1340     1.0  0.76028  0.54382  0.00354  1.0000
  H   H1341     1.0  0.72043  0.49542  0.17624  1.0000
  C   C1677     1.0  0.67547  0.96982  0.49758  1.0000
  H   H1342     1.0  0.99068  0.69581  0.21175  1.0000
  H   H1343     1.0  0.50144  0.81957  0.00756  1.0000
  H   H1344     1.0  0.99207  0.67617  0.36318  1.0000
  C   C1678     1.0  0.50065  0.78075  0.25003  1.0000
  C   C1679     1.0  0.49706  0.73957  0.08108  1.0000
  H   H1345     1.0  0.78474  0.98804  0.47829  1.0000
  C   C1680     1.0  0.83387  0.62608  0.00306  1.0000
  H   H1346     1.0  0.69131  0.50518  0.00794  1.0000
  H   H1347     1.0  0.92039  0.73703  0.49948  1.0000
  H   H1348     1.0  0.94935  0.70290  0.50028  1.0000
  Fe  Fe113     1.0  0.60418  0.78508  0.90929  1.0000
  S   S225      1.0  0.59739  0.74825  0.90224  1.0000
  S   S226      1.0  0.59529  0.80246  0.95243  1.0000
  Fe  Fe114     1.0  0.62258  0.79097  0.84612  1.0000
  S   S227      1.0  0.61629  0.75419  0.83510  1.0000
  S   S228      1.0  0.64222  0.81757  0.81996  1.0000
  Fe  Fe115     1.0  0.58244  0.76024  0.85963  1.0000
  S   S229      1.0  0.54845  0.74465  0.84797  1.0000
  Fe  Fe116     1.0  0.63134  0.74563  0.87890  1.0000
  S   S230      1.0  0.65937  0.72032  0.89459  1.0000
  S   S231      1.0  0.58770  0.79756  0.86764  1.0000
  S   S232      1.0  0.63919  0.78194  0.88892  1.0000
  Fe  Fe117     1.0  0.73431  0.87645  0.62249  1.0000
  S   S233      1.0  0.75479  0.90002  0.64907  1.0000
  S   S234      1.0  0.74520  0.87893  0.57507  1.0000
  Fe  Fe118     1.0  0.70712  0.86082  0.67661  1.0000
  S   S235      1.0  0.72504  0.88461  0.70592  1.0000
  S   S236      1.0  0.68175  0.83415  0.69130  1.0000
  Fe  Fe119     1.0  0.72130  0.91118  0.66989  1.0000
  S   S237      1.0  0.70707  0.94861  0.66920  1.0000
  Fe  Fe120     1.0  0.75690  0.87137  0.68188  1.0000
  S   S238      1.0  0.78913  0.86167  0.70715  1.0000
  S   S239      1.0  0.70060  0.88818  0.64222  1.0000
  S   S240      1.0  0.73933  0.84679  0.65390  1.0000
  Fe  Fe121     1.0  0.77344  0.62469  0.90919  1.0000
  S   S241      1.0  0.74904  0.59901  0.89374  1.0000
  S   S242      1.0  0.77222  0.64074  0.95408  1.0000
  Fe  Fe122     1.0  0.79546  0.63060  0.84811  1.0000
  S   S243      1.0  0.77286  0.60491  0.82839  1.0000
  S   S244      1.0  0.82226  0.65309  0.82724  1.0000
  Fe  Fe123     1.0  0.74441  0.62245  0.85498  1.0000
  S   S245      1.0  0.70986  0.63319  0.83568  1.0000
  Fe  Fe124     1.0  0.77926  0.58332  0.86876  1.0000
  S   S246      1.0  0.79227  0.54569  0.87302  1.0000
  S   S247      1.0  0.76660  0.64925  0.87211  1.0000
  S   S248      1.0  0.80411  0.60798  0.88679  1.0000
  Fe  Fe125     1.0  0.87941  0.75366  0.67576  1.0000
  S   S249      1.0  0.85226  0.73436  0.65446  1.0000
  S   S250      1.0  0.87264  0.78751  0.69863  1.0000
  Fe  Fe126     1.0  0.91819  0.71848  0.65918  1.0000
  S   S251      1.0  0.89296  0.69631  0.63689  1.0000
  S   S252      1.0  0.95609  0.70551  0.65690  1.0000
  Fe  Fe127     1.0  0.87793  0.72917  0.61789  1.0000
  S   S253      1.0  0.86792  0.74000  0.57190  1.0000
  Fe  Fe128     1.0  0.86954  0.70325  0.67568  1.0000
  S   S254      1.0  0.84711  0.67546  0.69458  1.0000
  S   S255      1.0  0.90414  0.75088  0.63811  1.0000
  S   S256      1.0  0.89567  0.72299  0.69926  1.0000
  C   C1681     1.0  0.78033  0.51873  0.86635  1.0000
  C   C1682     1.0  0.75948  0.51683  0.85211  1.0000
  H   H1349     1.0  0.91466  0.84032  0.73767  1.0000
  H   H1350     1.0  0.74975  0.53216  0.84544  1.0000
  C   C1683     1.0  0.71452  0.55015  0.97214  1.0000
  C   C1684     1.0  0.82778  0.65987  0.79012  1.0000
  C   C1685     1.0  0.81932  0.64713  0.76735  1.0000
  C   C1686     1.0  0.82520  0.65230  0.73830  1.0000
  C   C1687     1.0  0.83962  0.67027  0.73159  1.0000
  C   C1688     1.0  0.84775  0.68330  0.75435  1.0000
  C   C1689     1.0  0.84193  0.67804  0.78339  1.0000
  H   H1351     1.0  0.80870  0.63291  0.77218  1.0000
  H   H1352     1.0  0.81884  0.64208  0.72093  1.0000
  H   H1353     1.0  0.85883  0.69717  0.74961  1.0000
  H   H1354     1.0  0.84864  0.68800  0.80080  1.0000
  C   C1690     1.0  0.72038  0.97544  0.67063  1.0000
  C   C1691     1.0  0.94797  0.71155  0.57332  1.0000
  C   C1692     1.0  0.74255  0.97748  0.68126  1.0000
  H   H1355     1.0  0.74386  0.61910  0.74620  1.0000
  H   H1356     1.0  0.75245  0.96229  0.68810  1.0000
  C   C1693     1.0  0.81083  0.83953  0.70336  1.0000
  C   C1694     1.0  0.83023  0.84129  0.72053  1.0000
  C   C1695     1.0  0.84852  0.82500  0.71871  1.0000
  C   C1696     1.0  0.84780  0.80631  0.70004  1.0000
  C   C1697     1.0  0.82817  0.80399  0.68301  1.0000
  C   C1698     1.0  0.80968  0.82074  0.68454  1.0000
  H   H1357     1.0  0.83128  0.85556  0.73525  1.0000
  H   H1358     1.0  0.86342  0.82692  0.73203  1.0000
  H   H1359     1.0  0.82737  0.78954  0.66857  1.0000
  H   H1360     1.0  0.79462  0.81905  0.67143  1.0000
  C   C1699     1.0  0.67283  0.69640  0.87700  1.0000
  C   C1700     1.0  0.69200  0.68555  0.89031  1.0000
  C   C1701     1.0  0.70345  0.66638  0.87759  1.0000
  C   C1702     1.0  0.69564  0.65756  0.85161  1.0000
  C   C1703     1.0  0.67630  0.66827  0.83827  1.0000
  C   C1704     1.0  0.66502  0.68780  0.85081  1.0000
  H   H1361     1.0  0.69809  0.69210  0.91058  1.0000
  H   H1362     1.0  0.71817  0.65826  0.88816  1.0000
  H   H1363     1.0  0.67010  0.66155  0.81815  1.0000
  H   H1364     1.0  0.65021  0.69601  0.84047  1.0000
  C   C1705     1.0  0.65407  0.82075  0.78430  1.0000
  C   C1706     1.0  0.66752  0.83964  0.77848  1.0000
  C   C1707     1.0  0.67654  0.84365  0.75044  1.0000
  C   C1708     1.0  0.67208  0.82890  0.72759  1.0000
  C   C1709     1.0  0.65900  0.80972  0.73349  1.0000
  C   C1710     1.0  0.65015  0.80558  0.76165  1.0000
  H   H1365     1.0  0.67064  0.85155  0.79573  1.0000
  H   H1366     1.0  0.68643  0.85853  0.74636  1.0000
  H   H1367     1.0  0.65538  0.79818  0.71606  1.0000
  H   H1368     1.0  0.63984  0.79100  0.76566  1.0000
  C   C1711     1.0  0.70559  0.86851  0.54616  1.0000
  C   C1712     1.0  0.72835  0.87480  0.54409  1.0000
  H   H1369     1.0  0.93565  0.68760  0.60473  1.0000
  H   H1370     1.0  0.69765  0.86654  0.56728  1.0000
  C   C1713     1.0  0.78937  0.51407  0.95754  1.0000
  C   C1714     1.0  0.91288  0.78189  0.57647  1.0000
  C   C1715     1.0  0.60335  0.78926  0.98580  1.0000
  H   H1371     1.0  0.77405  0.65701  0.76075  1.0000
  P   P56       1.0  0.96211  0.74354  0.53264  1.0000
  H   H1372     1.0  0.61008  0.75555  0.96810  1.0000
  C   C1716     1.0  0.87868  0.70099  0.53913  1.0000
  C   C1717     1.0  0.87209  0.72434  0.53923  1.0000
  H   H1373     1.0  0.71827  0.95318  0.60706  1.0000
  H   H1374     1.0  0.88169  0.69206  0.55947  1.0000
  H   H1375     1.0  0.97602  0.64375  0.52960  1.0000
  H   H1376     1.0  0.73560  0.49374  0.83413  1.0000
  H   H1377     1.0  0.72488  0.54516  0.88875  1.0000
  C   C1718     1.0  0.92952  0.90122  0.60339  1.0000
  H   H1378     1.0  0.89488  0.78053  0.58171  1.0000
  H   H1379     1.0  0.77918  0.59236  0.97011  1.0000
  C   C1719     1.0  0.98235  0.71992  0.65758  1.0000
  H   H1380     1.0  0.93757  0.91608  0.61184  1.0000
  C   C1720     1.0  0.98316  0.74359  0.66184  1.0000
  C   C1721     1.0  0.95148  0.71632  0.54375  1.0000
  H   H1381     1.0  0.96735  0.75385  0.66462  1.0000
  C   C1722     1.0  0.93804  0.89071  0.57806  1.0000
  C   C1723     1.0  0.52038  0.75800  0.85096  1.0000
  C   C1724     1.0  0.51668  0.78110  0.85838  1.0000
  H   H1382     1.0  0.67811  0.96318  0.61378  1.0000
  H   H1383     1.0  0.53117  0.79132  0.86288  1.0000
  C   C1725     1.0  0.84312  0.81384  0.80472  1.0000
  C   C1726     1.0  0.86312  0.80475  0.79134  1.0000
  C   C1727     1.0  0.86205  0.78625  0.77243  1.0000
  C   C1728     1.0  0.84099  0.77700  0.76649  1.0000
  C   C1729     1.0  0.82078  0.78609  0.77974  1.0000
  C   C1730     1.0  0.82207  0.80438  0.79923  1.0000
  P   P57       1.0  0.79391  0.77262  0.77492  1.0000
  C   C1731     1.0  0.79336  0.76018  0.73897  1.0000
  C   C1732     1.0  0.79214  0.74908  0.80046  1.0000
  C   C1733     1.0  0.77330  0.73509  0.79974  1.0000
  C   C1734     1.0  0.77291  0.71530  0.81697  1.0000
  C   C1735     1.0  0.79141  0.70919  0.83484  1.0000
  C   C1736     1.0  0.81020  0.72302  0.83581  1.0000
  C   C1737     1.0  0.81060  0.74292  0.81878  1.0000
  C   C1738     1.0  0.78277  0.77196  0.71558  1.0000
  C   C1739     1.0  0.78280  0.76210  0.68798  1.0000
  C   C1740     1.0  0.79346  0.74046  0.68342  1.0000
  C   C1741     1.0  0.80399  0.72860  0.70649  1.0000
  C   C1742     1.0  0.80390  0.73832  0.73414  1.0000
  C   C1743     1.0  0.77089  0.79441  0.77915  1.0000
  C   C1744     1.0  0.77188  0.81518  0.76371  1.0000
  C   C1745     1.0  0.75383  0.83178  0.76546  1.0000
  C   C1746     1.0  0.73484  0.82806  0.78321  1.0000
  C   C1747     1.0  0.73414  0.80795  0.79970  1.0000
  C   C1748     1.0  0.75217  0.79125  0.79795  1.0000
  H   H1384     1.0  0.84391  0.82819  0.81938  1.0000
  H   H1385     1.0  0.87943  0.81210  0.79544  1.0000
  H   H1386     1.0  0.87750  0.77934  0.76172  1.0000
  H   H1387     1.0  0.84067  0.76287  0.75146  1.0000
  H   H1388     1.0  0.80683  0.81137  0.81025  1.0000
  H   H1389     1.0  0.75913  0.73927  0.78542  1.0000
  H   H1390     1.0  0.75856  0.70431  0.81606  1.0000
  H   H1391     1.0  0.79140  0.69350  0.84757  1.0000
  H   H1392     1.0  0.82471  0.71793  0.84929  1.0000
  H   H1393     1.0  0.82563  0.75298  0.81946  1.0000
  H   H1394     1.0  0.77469  0.78884  0.71816  1.0000
  H   H1395     1.0  0.77483  0.77145  0.67005  1.0000
  H   H1396     1.0  0.79386  0.73295  0.66195  1.0000
  H   H1397     1.0  0.81257  0.71194  0.70287  1.0000
  H   H1398     1.0  0.81245  0.72884  0.75157  1.0000
  H   H1399     1.0  0.78653  0.81849  0.74995  1.0000
  H   H1400     1.0  0.75456  0.84754  0.75293  1.0000
  H   H1401     1.0  0.72074  0.84087  0.78436  1.0000
  H   H1402     1.0  0.71952  0.80539  0.81379  1.0000
  H   H1403     1.0  0.75122  0.77598  0.81118  1.0000
  C   C1749     1.0  0.93613  0.67970  0.53168  1.0000
  C   C1750     1.0  0.80927  0.73229  0.56745  1.0000
  H   H1404     1.0  0.74149  0.76020  0.58475  1.0000
  H   H1405     1.0  0.66471  0.76787  0.95794  1.0000
  H   H1406     1.0  0.85716  0.52118  0.94234  1.0000
  C   C1751     1.0  0.54318  0.74883  0.97892  1.0000
  C   C1752     1.0  0.70836  0.56483  0.92316  1.0000
  C   C1753     1.0  0.70007  0.79489  0.61645  1.0000
  C   C1754     1.0  0.53561  0.82670  0.92671  1.0000
  H   H1407     1.0  0.79279  0.72133  0.52877  1.0000
  C   C1755     1.0  0.68496  0.98763  0.56247  1.0000
  H   H1408     1.0  0.64855  0.98399  0.55708  1.0000
  H   H1409     1.0  0.67075  0.98658  0.50610  1.0000
  C   C1756     1.0  0.52176  0.73738  0.93712  1.0000
  C   C1757     1.0  0.70687  0.81609  0.60629  1.0000
  H   H1410     1.0  0.70216  0.91834  0.51515  1.0000
  H   H1411     1.0  0.84145  0.78627  0.56722  1.0000
  H   H1412     1.0  0.55682  0.74684  0.93540  1.0000
  C   C1758     1.0  0.78019  0.50887  0.76838  1.0000
  H   H1413     1.0  0.73397  0.51757  0.97454  1.0000
  C   C1759     1.0  0.73203  0.77593  0.59061  1.0000
  C   C1760     1.0  0.88092  0.68907  0.51263  1.0000
  H   H1414     1.0  0.52093  0.73432  0.91392  1.0000
  C   C1761     1.0  0.66471  0.71909  0.99903  1.0000
  H   H1415     1.0  0.84327  0.82403  0.54270  1.0000
  H   H1416     1.0  0.70096  0.57777  0.90857  1.0000
  C   C1762     1.0  0.98873  0.66114  0.56656  1.0000
  H   H1417     1.0  0.82041  0.71690  0.56921  1.0000
  C   C1763     1.0  0.76165  0.94283  0.54373  1.0000
  C   C1764     1.0  0.75688  0.80340  0.52020  1.0000
  H   H1418     1.0  0.95232  0.72370  0.58984  1.0000
  C   C1765     1.0  0.90749  0.84467  0.71664  1.0000
  C   C1766     1.0  0.69319  0.86450  0.52077  1.0000
  C   C1767     1.0  0.68649  0.95283  0.51500  1.0000
  C   C1768     1.0  0.58740  0.69640  0.94649  1.0000
  P   P58       1.0  0.79753  0.55180  0.75878  1.0000
  C   C1769     1.0  0.77069  0.56789  0.76482  1.0000
  C   C1770     1.0  0.81885  0.56941  0.77411  1.0000
  C   C1771     1.0  0.82032  0.57142  0.80435  1.0000
  C   C1772     1.0  0.83555  0.58627  0.81656  1.0000
  C   C1773     1.0  0.84922  0.59947  0.79868  1.0000
  C   C1774     1.0  0.84780  0.59767  0.76853  1.0000
  C   C1775     1.0  0.83251  0.58288  0.75623  1.0000
  C   C1776     1.0  0.75417  0.56012  0.78441  1.0000
  C   C1777     1.0  0.73391  0.57334  0.78970  1.0000
  C   C1778     1.0  0.73013  0.59450  0.77577  1.0000
  C   C1779     1.0  0.74662  0.60249  0.75652  1.0000
  C   C1780     1.0  0.76690  0.58933  0.75121  1.0000
  C   C1781     1.0  0.80312  0.54705  0.72068  1.0000
  C   C1782     1.0  0.78577  0.55089  0.70006  1.0000
  C   C1783     1.0  0.79037  0.54674  0.67065  1.0000
  H   H1419     1.0  0.83825  0.53471  0.72734  1.0000
  H   H1420     1.0  0.73145  0.83381  0.58097  1.0000
  C   C1784     1.0  0.82484  0.53831  0.71162  1.0000
  H   H1421     1.0  0.83018  0.52581  0.79719  1.0000
  C   C1785     1.0  0.72718  0.53116  0.96057  1.0000
  H   H1422     1.0  0.80933  0.56185  0.81850  1.0000
  H   H1423     1.0  0.83633  0.58800  0.83992  1.0000
  H   H1424     1.0  0.86034  0.61166  0.80817  1.0000
  H   H1425     1.0  0.85789  0.60849  0.75473  1.0000
  H   H1426     1.0  0.83099  0.58261  0.73287  1.0000
  H   H1427     1.0  0.75710  0.54423  0.79625  1.0000
  H   H1428     1.0  0.72140  0.56750  0.80524  1.0000
  H   H1429     1.0  0.71468  0.60498  0.78053  1.0000
  C   C1786     1.0  0.95929  0.78517  0.56255  1.0000
  H   H1430     1.0  0.77980  0.59601  0.73683  1.0000
  H   H1431     1.0  0.76865  0.55687  0.70657  1.0000
  H   H1432     1.0  0.77698  0.54982  0.65478  1.0000
  C   C1787     1.0  0.89126  0.56454  0.96069  1.0000
  C   C1788     1.0  0.77936  0.60251  0.98960  1.0000
  C   C1789     1.0  0.83643  0.62189  0.95097  1.0000
  C   C1790     1.0  0.67587  0.94049  0.57682  1.0000
  C   C1791     1.0  0.66738  0.91970  0.56743  1.0000
  C   C1792     1.0  0.65489  0.90623  0.58647  1.0000
  C   C1793     1.0  0.65073  0.91334  0.61501  1.0000
  C   C1794     1.0  0.65908  0.93394  0.62455  1.0000
  C   C1795     1.0  0.67150  0.94749  0.60558  1.0000
  C   C1796     1.0  0.60982  0.76593  0.98748  1.0000
  C   C1797     1.0  0.92441  0.76448  0.56069  1.0000
  C   C1798     1.0  0.73096  0.52946  0.93057  1.0000
  H   H1433     1.0  0.95682  0.81705  0.58601  1.0000
  H   H1434     1.0  0.64157  0.90262  0.62999  1.0000
  H   H1435     1.0  0.65661  0.93914  0.64698  1.0000
  H   H1436     1.0  0.80874  0.49973  0.88617  1.0000
  C   C1799     1.0  0.79262  0.49851  0.87507  1.0000
  C   C1800     1.0  0.80585  0.50509  0.97679  1.0000
  C   C1801     1.0  0.73905  0.79725  0.58051  1.0000
  H   H1437     1.0  0.70735  0.75837  0.61653  1.0000
  C   C1802     1.0  0.82938  0.53417  0.68220  1.0000
  H   H1438     1.0  0.95267  0.89746  0.56681  1.0000
  C   C1803     1.0  0.73010  0.95037  0.58909  1.0000
  C   C1804     1.0  0.50847  0.80222  0.94987  1.0000
  C   C1805     1.0  0.73842  0.87743  0.51654  1.0000
  H   H1439     1.0  0.83626  0.51130  0.00065  1.0000
  H   H1440     1.0  0.69728  0.83170  0.61261  1.0000
  C   C1806     1.0  0.62840  0.69122  0.97787  1.0000
  C   C1807     1.0  0.82330  0.51871  0.98626  1.0000
  C   C1808     1.0  0.54203  0.74447  0.94919  1.0000
  H   H1441     1.0  0.78704  0.83680  0.52694  1.0000
  C   C1809     1.0  0.60823  0.69187  0.93192  1.0000
  C   C1810     1.0  0.62862  0.68929  0.94751  1.0000
  C   C1811     1.0  0.76894  0.94129  0.57250  1.0000
  C   C1812     1.0  0.50272  0.73411  0.95498  1.0000
  C   C1813     1.0  0.81605  0.51524  0.79235  1.0000
  H   H1442     1.0  0.72117  0.81368  0.52846  1.0000
  C   C1814     1.0  0.66141  0.73384  0.97508  1.0000
  C   C1815     1.0  0.67664  0.67235  0.97883  1.0000
  H   H1443     1.0  0.76800  0.75660  0.52420  1.0000
  C   C1816     1.0  0.71595  0.66545  0.96218  1.0000
  C   C1817     1.0  0.71008  0.64504  0.94921  1.0000
  C   C1818     1.0  0.68750  0.63824  0.95089  1.0000
  C   C1819     1.0  0.67082  0.65180  0.96572  1.0000
  C   C1820     1.0  0.94784  0.76570  0.55420  1.0000
  C   C1821     1.0  0.92460  0.80063  0.58601  1.0000
  H   H1444     1.0  0.74100  0.51502  0.92154  1.0000
  C   C1822     1.0  0.53032  0.80544  0.93822  1.0000
  H   H1445     1.0  0.88940  0.51257  0.90884  1.0000
  H   H1446     1.0  0.92388  0.65993  0.56778  1.0000
  C   C1823     1.0  0.93833  0.69113  0.58188  1.0000
  C   C1824     1.0  0.77572  0.62631  0.98771  1.0000
  H   H1447     1.0  0.60875  0.69104  0.90841  1.0000
  H   H1448     1.0  0.64462  0.68657  0.93564  1.0000
  H   H1449     1.0  0.77488  0.81632  0.61583  1.0000
  C   C1825     1.0  0.75322  0.94544  0.59513  1.0000
  H   H1450     1.0  0.91569  0.81367  0.59897  1.0000
  H   H1451     1.0  0.88926  0.87539  0.73165  1.0000
  C   C1826     1.0  0.51904  0.84482  0.92673  1.0000
  C   C1827     1.0  0.81218  0.53847  0.66170  1.0000
  C   C1828     1.0  0.72175  0.54640  0.91194  1.0000
  H   H1452     1.0  0.72300  0.63473  0.93743  1.0000
  H   H1453     1.0  0.68287  0.62273  0.94014  1.0000
  H   H1454     1.0  0.65334  0.64645  0.96663  1.0000
  C   C1829     1.0  0.79017  0.53676  0.94801  1.0000
  C   C1830     1.0  0.50122  0.74504  0.84525  1.0000
  P   P59       1.0  0.65512  0.69014  0.99757  1.0000
  H   H1455     1.0  0.70431  0.69487  0.98660  1.0000
  C   C1831     1.0  0.82435  0.54151  0.97652  1.0000
  C   C1832     1.0  0.80773  0.55036  0.95713  1.0000
  C   C1833     1.0  0.60736  0.69570  0.99236  1.0000
  C   C1834     1.0  0.93199  0.67541  0.56107  1.0000
  C   C1835     1.0  0.87227  0.55072  0.96150  1.0000
  H   H1456     1.0  0.92410  0.57031  0.94090  1.0000
  C   C1836     1.0  0.90952  0.55954  0.94149  1.0000
  C   C1837     1.0  0.90889  0.54077  0.92289  1.0000
  H   H1457     1.0  0.52321  0.86128  0.91768  1.0000
  C   C1838     1.0  0.87171  0.53194  0.94264  1.0000
  H   H1458     1.0  0.67041  0.91353  0.54567  1.0000
  H   H1459     1.0  0.64878  0.89003  0.57921  1.0000
  H   H1460     1.0  0.68514  0.79418  0.63056  1.0000
  H   H1461     1.0  0.93445  0.86320  0.54775  1.0000
  H   H1462     1.0  0.73335  0.67096  0.96030  1.0000
  C   C1839     1.0  0.69304  0.93155  0.50252  1.0000
  H   H1463     1.0  0.81572  0.53524  0.63891  1.0000
  P   P60       1.0  0.84865  0.55783  0.98599  1.0000
  H   H1464     1.0  0.75604  0.88223  0.51481  1.0000
  C   C1840     1.0  0.79772  0.52354  0.77506  1.0000
  C   C1841     1.0  0.84129  0.59833  0.95435  1.0000
  H   H1465     1.0  0.77763  0.54368  0.93269  1.0000
  H   H1466     1.0  0.79893  0.78334  0.60095  1.0000
  C   C1842     1.0  0.71263  0.77481  0.60860  1.0000
  H   H1467     1.0  0.57171  0.69887  0.93425  1.0000
  H   H1468     1.0  0.80843  0.56752  0.94841  1.0000
  H   H1469     1.0  0.71677  0.70998  0.82735  1.0000
  H   H1470     1.0  0.77377  0.93949  0.52615  1.0000
  H   H1471     1.0  0.92299  0.53696  0.90791  1.0000
  H   H1472     1.0  0.75873  0.94446  0.61751  1.0000
  H   H1473     1.0  0.71491  0.72898  0.87459  1.0000
  C   C1843     1.0  0.72629  0.81726  0.58845  1.0000
  H   H1474     1.0  0.78669  0.93668  0.57731  1.0000
  C   C1844     1.0  0.49419  0.79118  0.85938  1.0000
  C   C1845     1.0  0.94621  0.69990  0.52308  1.0000
  H   H1475     1.0  0.88565  0.67093  0.51278  1.0000
  H   H1476     1.0  0.54336  0.79157  0.93810  1.0000
  H   H1477     1.0  0.55264  0.82907  0.91784  1.0000
  H   H1478     1.0  0.82793  0.65381  0.97256  1.0000
  H   H1479     1.0  0.84404  0.58786  0.93517  1.0000
  C   C1846     1.0  0.84868  0.82208  0.56504  1.0000
  C   C1847     1.0  0.84735  0.80087  0.57894  1.0000
  C   C1848     1.0  0.85379  0.79843  0.60795  1.0000
  C   C1849     1.0  0.86218  0.81700  0.62283  1.0000
  C   C1850     1.0  0.86449  0.83812  0.60869  1.0000
  C   C1851     1.0  0.85694  0.84072  0.57994  1.0000
  P   P61       1.0  0.87617  0.86220  0.62700  1.0000
  C   C1852     1.0  0.85315  0.88391  0.62993  1.0000
  C   C1853     1.0  0.88767  0.85497  0.66245  1.0000
  C   C1854     1.0  0.90275  0.83566  0.66589  1.0000
  C   C1855     1.0  0.91235  0.83039  0.69294  1.0000
  H   H1480     1.0  0.50469  0.78566  0.95880  1.0000
  C   C1856     1.0  0.89310  0.86433  0.71325  1.0000
  C   C1857     1.0  0.88333  0.86957  0.68627  1.0000
  C   C1858     1.0  0.83537  0.88117  0.65016  1.0000
  C   C1859     1.0  0.81777  0.89814  0.65317  1.0000
  C   C1860     1.0  0.81738  0.91764  0.63546  1.0000
  C   C1861     1.0  0.83467  0.92021  0.61467  1.0000
  C   C1862     1.0  0.85250  0.90339  0.61183  1.0000
  C   C1863     1.0  0.90013  0.87325  0.60719  1.0000
  C   C1864     1.0  0.91069  0.89250  0.61796  1.0000
  C   C1865     1.0  0.73444  0.81036  0.51226  1.0000
  H   H1481     1.0  0.77633  0.50328  0.94948  1.0000
  C   C1866     1.0  0.92777  0.87143  0.56732  1.0000
  C   C1867     1.0  0.90892  0.86268  0.58182  1.0000
  H   H1482     1.0  0.91501  0.74999  0.55369  1.0000
  H   H1483     1.0  0.67568  0.85937  0.52248  1.0000
  H   H1484     1.0  0.85265  0.78199  0.61880  1.0000
  H   H1485     1.0  0.86681  0.81465  0.64529  1.0000
  H   H1486     1.0  0.85770  0.85710  0.56893  1.0000
  H   H1487     1.0  0.90681  0.82435  0.64789  1.0000
  H   H1488     1.0  0.65310  0.72821  0.95571  1.0000
  H   H1489     1.0  0.92314  0.81488  0.69566  1.0000
  H   H1490     1.0  0.87250  0.88505  0.68424  1.0000
  H   H1491     1.0  0.83526  0.86603  0.66387  1.0000
  H   H1492     1.0  0.80437  0.89617  0.66931  1.0000
  H   H1493     1.0  0.80359  0.93067  0.63788  1.0000
  H   H1494     1.0  0.83430  0.93531  0.60087  1.0000
  H   H1495     1.0  0.86567  0.90568  0.59553  1.0000
  H   H1496     1.0  0.90437  0.90073  0.63770  1.0000
  C   C1868     1.0  0.69937  0.67903  0.97702  1.0000
  C   C1869     1.0  0.70455  0.56659  0.95309  1.0000
  H   H1497     1.0  0.82284  0.74770  0.60537  1.0000
  H   H1498     1.0  0.90150  0.84763  0.57315  1.0000
  C   C1870     1.0  0.94776  0.80240  0.57884  1.0000
  C   C1871     1.0  0.66813  0.75644  0.97621  1.0000
  H   H1499     1.0  0.72701  0.59481  0.98937  1.0000
  C   C1872     1.0  0.81071  0.74973  0.58784  1.0000
  C   C1873     1.0  0.79721  0.77006  0.58503  1.0000
  C   C1874     1.0  0.78216  0.77313  0.56159  1.0000
  H   H1500     1.0  0.89189  0.57926  0.97484  1.0000
  P   P62       1.0  0.76442  0.79925  0.55798  1.0000
  C   C1875     1.0  0.78002  0.82343  0.57006  1.0000
  C   C1876     1.0  0.73860  0.94833  0.53758  1.0000
  C   C1877     1.0  0.78228  0.82755  0.59990  1.0000
  C   C1878     1.0  0.79344  0.84672  0.60947  1.0000
  C   C1879     1.0  0.80219  0.86203  0.58934  1.0000
  C   C1880     1.0  0.80016  0.85806  0.55966  1.0000
  C   C1881     1.0  0.78912  0.83887  0.55001  1.0000
  C   C1882     1.0  0.58697  0.69828  0.97672  1.0000
  H   H1501     1.0  0.98850  0.74790  0.58609  1.0000
  H   H1502     1.0  0.55922  0.75408  0.98786  1.0000
  C   C1883     1.0  0.72250  0.95163  0.56028  1.0000
  H   H1503     1.0  0.93111  0.66762  0.51547  1.0000
  C   C1884     1.0  0.84217  0.58836  0.98220  1.0000
  C   C1885     1.0  0.88999  0.52700  0.92346  1.0000
  H   H1504     1.0  0.79456  0.85017  0.63250  1.0000
  H   H1505     1.0  0.80988  0.87736  0.59669  1.0000
  H   H1506     1.0  0.80628  0.87034  0.54411  1.0000
  H   H1507     1.0  0.69369  0.58071  0.96133  1.0000
  C   C1886     1.0  0.65171  0.67968  0.74723  1.0000
  C   C1887     1.0  0.63223  0.68832  0.76218  1.0000
  C   C1888     1.0  0.63331  0.70812  0.77885  1.0000
  C   C1889     1.0  0.65392  0.71918  0.78087  1.0000
  C   C1890     1.0  0.67370  0.71037  0.76640  1.0000
  C   C1891     1.0  0.67234  0.69075  0.74912  1.0000
  P   P63       1.0  0.70040  0.72457  0.76894  1.0000
  C   C1892     1.0  0.72387  0.70321  0.76598  1.0000
  C   C1893     1.0  0.70257  0.74570  0.74038  1.0000
  C   C1894     1.0  0.68944  0.74459  0.71512  1.0000
  C   C1895     1.0  0.69141  0.76113  0.69323  1.0000
  C   C1896     1.0  0.70642  0.77882  0.69647  1.0000
  C   C1897     1.0  0.71942  0.78010  0.72160  1.0000
  C   C1898     1.0  0.71766  0.76349  0.74335  1.0000
  C   C1899     1.0  0.74297  0.70684  0.74798  1.0000
  C   C1900     1.0  0.76104  0.69020  0.74618  1.0000
  C   C1901     1.0  0.76007  0.66981  0.76202  1.0000
  C   C1902     1.0  0.74105  0.66593  0.77959  1.0000
  C   C1903     1.0  0.72294  0.68244  0.78140  1.0000
  C   C1904     1.0  0.70078  0.73877  0.80375  1.0000
  C   C1905     1.0  0.69058  0.76099  0.80677  1.0000
  C   C1906     1.0  0.68933  0.77152  0.83394  1.0000
  C   C1907     1.0  0.69833  0.76009  0.85828  1.0000
  C   C1908     1.0  0.70866  0.73812  0.85548  1.0000
  C   C1909     1.0  0.70970  0.72739  0.82843  1.0000
  H   H1508     1.0  0.65084  0.66435  0.73426  1.0000
  H   H1509     1.0  0.61626  0.67971  0.76087  1.0000
  H   H1510     1.0  0.61818  0.71488  0.79038  1.0000
  H   H1511     1.0  0.65431  0.73446  0.79399  1.0000
  H   H1512     1.0  0.68722  0.68388  0.73727  1.0000
  H   H1513     1.0  0.67752  0.73120  0.71238  1.0000
  H   H1514     1.0  0.68090  0.76059  0.67404  1.0000
  H   H1515     1.0  0.70757  0.79197  0.67990  1.0000
  H   H1516     1.0  0.73041  0.79431  0.72447  1.0000
  H   H1517     1.0  0.72782  0.76466  0.76266  1.0000
  H   H1518     1.0  0.74419  0.72250  0.73552  1.0000
  H   H1519     1.0  0.77593  0.69311  0.73266  1.0000
  P   P64       1.0  0.69249  0.95817  0.55287  1.0000
  H   H1520     1.0  0.74042  0.65015  0.79205  1.0000
  H   H1521     1.0  0.70830  0.67904  0.79506  1.0000
  H   H1522     1.0  0.68286  0.77000  0.78839  1.0000
  H   H1523     1.0  0.68084  0.78836  0.83626  1.0000
  H   H1524     1.0  0.69664  0.76798  0.87948  1.0000
  C   C1910     1.0  0.50371  0.73859  0.98475  1.0000
  H   H1525     1.0  0.83521  0.62943  0.92946  1.0000
  C   C1911     1.0  0.78007  0.75508  0.54187  1.0000
  C   C1912     1.0  0.86802  0.73566  0.51262  1.0000
  H   H1526     1.0  0.86280  0.75370  0.51247  1.0000
  H   H1527     1.0  0.73351  0.94978  0.51512  1.0000
  C   C1913     1.0  0.98905  0.65468  0.53735  1.0000
  C   C1914     1.0  0.83253  0.63572  0.97529  1.0000
  C   C1915     1.0  0.49718  0.84171  0.93839  1.0000
  H   H1528     1.0  0.50387  0.72717  0.83946  1.0000
  H   H1529     1.0  0.84623  0.52755  0.67532  1.0000
  H   H1530     1.0  0.97711  0.78698  0.55673  1.0000
  H   H1531     1.0  0.57089  0.70220  0.98800  1.0000
  H   H1532     1.0  0.97567  0.65513  0.58121  1.0000
  C   C1916     1.0  0.99256  0.74168  0.53984  1.0000
  H   H1533     1.0  0.76616  0.51469  0.75454  1.0000
  C   C1917     1.0  0.79385  0.73489  0.54458  1.0000
  H   H1534     1.0  0.76425  0.99121  0.52512  1.0000
  C   C1918     1.0  0.75146  0.49499  0.84582  1.0000
  H   H1535     1.0  0.79118  0.79464  0.50397  1.0000
  C   C1919     1.0  0.52377  0.74671  0.99681  1.0000
  H   H1536     1.0  0.53983  0.79134  0.99930  1.0000
  C   C1920     1.0  0.67844  0.76445  0.00114  1.0000
